# generated using pymatgen
data_H8PbC4(N3Cl2)2
_symmetry_space_group_name_H-M   'P 1'
_cell_length_a   16.62272672
_cell_length_b   22.49916794
_cell_length_c   21.58828905
_cell_angle_alpha   90.00008495
_cell_angle_beta   89.99647706
_cell_angle_gamma   90.00057295
_symmetry_Int_Tables_number   1
_chemical_formula_structural   H8PbC4(N3Cl2)2
_chemical_formula_sum   'H192 Pb24 C96 N144 Cl96'
_cell_volume   8073.96655367
_cell_formula_units_Z   24
loop_
 _symmetry_equiv_pos_site_id
 _symmetry_equiv_pos_as_xyz
  1  'x, y, z'
loop_
 _atom_site_type_symbol
 _atom_site_label
 _atom_site_symmetry_multiplicity
 _atom_site_fract_x
 _atom_site_fract_y
 _atom_site_fract_z
 _atom_site_occupancy
  H  H0  1  0.00123910  0.03181719  0.68088234  1
  H  H1  1  -0.00649425  0.36566813  0.68206592  1
  H  H2  1  -0.00240147  0.69965980  0.68245224  1
  H  H3  1  0.50009260  0.03404919  0.67777279  1
  H  H4  1  0.50156465  0.36039358  0.67925339  1
  H  H5  1  0.49816891  0.69981445  0.68011512  1
  H  H6  1  -0.00142288  0.30059103  0.18226482  1
  H  H7  1  -0.00545251  0.63337756  0.18051692  1
  H  H8  1  -0.00091317  0.96710361  0.18212464  1
  H  H9  1  0.49762905  0.29929832  0.18199839  1
  H  H10  1  0.50314158  0.63499531  0.18276355  1
  H  H11  1  0.50287910  0.96717107  0.17994598  1
  H  H12  1  0.00175381  0.03261983  0.81696294  1
  H  H13  1  -0.00008697  0.36534472  0.81911267  1
  H  H14  1  -0.00754134  0.70049242  0.81960751  1
  H  H15  1  0.50308697  0.03361671  0.81789806  1
  H  H16  1  0.50289715  0.36565860  0.81766096  1
  H  H17  1  0.50703133  0.70050420  0.81927712  1
  H  H18  1  -0.00302816  0.29930801  0.32031733  1
  H  H19  1  0.00353168  0.63424980  0.31724587  1
  H  H20  1  -0.00591485  0.96727461  0.32038967  1
  H  H21  1  0.49382223  0.29946690  0.31938836  1
  H  H22  1  0.49574763  0.63529049  0.31792414  1
  H  H23  1  0.50031797  0.96779128  0.31829306  1
  H  H24  1  0.25361398  0.19866056  0.67931860  1
  H  H25  1  0.24329755  0.53308709  0.68315824  1
  H  H26  1  0.24770449  0.86511397  0.68046041  1
  H  H27  1  0.75000794  0.19851034  0.68172521  1
  H  H28  1  0.75386402  0.53332189  0.67936321  1
  H  H29  1  0.74922281  0.86698857  0.68197200  1
  H  H30  1  0.24401001  0.13365166  0.18243186  1
  H  H31  1  0.25604178  0.46717511  0.18138790  1
  H  H32  1  0.25532167  0.80066788  0.17748396  1
  H  H33  1  0.75870338  0.13542935  0.18120992  1
  H  H34  1  0.74458885  0.46650098  0.18047207  1
  H  H35  1  0.74908244  0.80027747  0.18350234  1
  H  H36  1  0.25778167  0.20027678  0.81712874  1
  H  H37  1  0.25600513  0.53179269  0.81939840  1
  H  H38  1  0.25658855  0.86521522  0.81776597  1
  H  H39  1  0.74775076  0.19989554  0.81865906  1
  H  H40  1  0.74848873  0.53145067  0.81762164  1
  H  H41  1  0.74438950  0.86641524  0.81980728  1
  H  H42  1  0.25272428  0.13420654  0.31905069  1
  H  H43  1  0.25636138  0.46723274  0.32051991  1
  H  H44  1  0.24894896  0.79951108  0.32211629  1
  H  H45  1  0.74860297  0.13368211  0.31866817  1
  H  H46  1  0.74736932  0.46812405  0.31753623  1
  H  H47  1  0.75260510  0.80106562  0.31843809  1
  H  H48  1  0.12515545  0.05446735  0.61069355  1
  H  H49  1  0.12906612  0.38499117  0.62034567  1
  H  H50  1  0.12900628  0.72000499  0.61522959  1
  H  H51  1  0.62481142  0.05367940  0.60917069  1
  H  H52  1  0.62523455  0.38811635  0.60997796  1
  H  H53  1  0.62815706  0.71994650  0.61464578  1
  H  H54  1  0.38046240  0.27914166  0.10678388  1
  H  H55  1  0.37509097  0.61485382  0.11575700  1
  H  H56  1  0.37071318  0.94713633  0.11650586  1
  H  H57  1  0.87785851  0.27944424  0.10667369  1
  H  H58  1  0.87986210  0.60895571  0.10123572  1
  H  H59  1  0.87373494  0.94606588  0.11341514  1
  H  H60  1  0.37239119  0.05169304  0.88352426  1
  H  H61  1  0.37179167  0.38590736  0.88435743  1
  H  H62  1  0.37301456  0.71962436  0.88131128  1
  H  H63  1  0.87534777  0.05455125  0.88754372  1
  H  H64  1  0.87534047  0.38714880  0.88925778  1
  H  H65  1  0.88579159  0.72378279  0.90185605  1
  H  H66  1  0.12753269  0.27926046  0.38711578  1
  H  H67  1  0.12220016  0.61344994  0.39367414  1
  H  H68  1  0.12661229  0.94652989  0.38422365  1
  H  H69  1  0.62510381  0.28064012  0.38528662  1
  H  H70  1  0.62490828  0.61306357  0.38472505  1
  H  H71  1  0.62548259  0.94676146  0.39009790  1
  H  H72  1  0.37018435  0.22207786  0.60108513  1
  H  H73  1  0.37665461  0.55230633  0.61905824  1
  H  H74  1  0.37097993  0.88620143  0.60771271  1
  H  H75  1  0.87319738  0.22087480  0.60846413  1
  H  H76  1  0.87335420  0.55579101  0.60467302  1
  H  H77  1  0.87395483  0.88810513  0.60893387  1
  H  H78  1  0.13069716  0.11153648  0.10378797  1
  H  H79  1  0.12567798  0.44770232  0.11404567  1
  H  H80  1  0.12181649  0.77985435  0.11594958  1
  H  H81  1  0.62311611  0.11624131  0.12093956  1
  H  H82  1  0.62965689  0.44176294  0.10162990  1
  H  H83  1  0.62531327  0.78057840  0.11290818  1
  H  H84  1  0.12106525  0.21757531  0.87521658  1
  H  H85  1  0.12307600  0.55314492  0.88238141  1
  H  H86  1  0.12719007  0.88600927  0.88666616  1
  H  H87  1  0.62363462  0.22089117  0.89245515  1
  H  H88  1  0.62533702  0.55653411  0.89023960  1
  H  H89  1  0.63130879  0.89076383  0.90068930  1
  H  H90  1  0.37416441  0.11268849  0.39501851  1
  H  H91  1  0.36898614  0.43977170  0.39985333  1
  H  H92  1  0.37343625  0.78016515  0.39066546  1
  H  H93  1  0.87497043  0.11238900  0.38800036  1
  H  H94  1  0.87421744  0.44750906  0.38493795  1
  H  H95  1  0.86959225  0.78004464  0.39466131  1
  H  H96  1  0.37640526  0.27679218  0.39578247  1
  H  H97  1  0.37622286  0.61392731  0.39320018  1
  H  H98  1  0.37589113  0.94590244  0.39008002  1
  H  H99  1  0.87927372  0.27766856  0.39787868  1
  H  H100  1  0.87313880  0.61286384  0.38445176  1
  H  H101  1  0.87825998  0.94388766  0.39791934  1
  H  H102  1  0.12551749  0.05406287  0.88786172  1
  H  H103  1  0.12506243  0.38704303  0.88964508  1
  H  H104  1  0.13171380  0.71613255  0.87388118  1
  H  H105  1  0.62155306  0.05479642  0.89213653  1
  H  H106  1  0.62092523  0.38755251  0.89438807  1
  H  H107  1  0.62177363  0.72436863  0.89866929  1
  H  H108  1  0.12689028  0.27966544  0.11479385  1
  H  H109  1  0.12803392  0.61557019  0.11794440  1
  H  H110  1  0.12313040  0.94604772  0.11225020  1
  H  H111  1  0.62962048  0.28204814  0.11783929  1
  H  H112  1  0.62481079  0.60971199  0.10917002  1
  H  H113  1  0.61957428  0.94382770  0.10195913  1
  H  H114  1  0.37564474  0.05433985  0.60909493  1
  H  H115  1  0.37682368  0.38632274  0.61028037  1
  H  H116  1  0.37954677  0.72235707  0.60305488  1
  H  H117  1  0.87618940  0.05362612  0.60965798  1
  H  H118  1  0.88168015  0.39011994  0.60172616  1
  H  H119  1  0.87966925  0.72126553  0.60593636  1
  H  H120  1  0.12490334  0.11302043  0.38655807  1
  H  H121  1  0.12206263  0.44901962  0.38223257  1
  H  H122  1  0.12461881  0.78036889  0.39117845  1
  H  H123  1  0.62553056  0.11293133  0.39275493  1
  H  H124  1  0.62485533  0.44276687  0.39079364  1
  H  H125  1  0.62052080  0.78200881  0.38030729  1
  H  H126  1  0.36873491  0.22148180  0.89712874  1
  H  H127  1  0.36976579  0.55720503  0.89966859  1
  H  H128  1  0.37552981  0.88871209  0.89523698  1
  H  H129  1  0.87246033  0.22154809  0.89119305  1
  H  H130  1  0.87521224  0.55345552  0.88547360  1
  H  H131  1  0.87938321  0.88541141  0.87975183  1
  H  H132  1  0.37837493  0.11571953  0.12315069  1
  H  H133  1  0.37333213  0.44337265  0.10291381  1
  H  H134  1  0.36928433  0.77685038  0.09865890  1
  H  H135  1  0.86966357  0.10972197  0.09862572  1
  H  H136  1  0.87784773  0.44798978  0.11871803  1
  H  H137  1  0.87520247  0.78015074  0.11540167  1
  H  H138  1  0.12201770  0.21899854  0.61604162  1
  H  H139  1  0.12826334  0.55618592  0.60508402  1
  H  H140  1  0.12244445  0.88721526  0.60885453  1
  H  H141  1  0.62369232  0.21863599  0.61155639  1
  H  H142  1  0.62448408  0.55445891  0.61334709  1
  H  H143  1  0.62520759  0.88827466  0.60836314  1
  H  H144  1  0.67265093  0.75606995  0.00003333  1
  H  H145  1  0.07886057  0.41561178  0.99440347  1
  H  H146  1  0.94606448  0.58538776  -0.00298180  1
  H  H147  1  0.64992646  0.75424232  0.49388784  1
  H  H148  1  0.93971959  0.74795946  0.49738660  1
  H  H149  1  0.41777416  0.58856249  0.00273654  1
  H  H150  1  0.82850349  0.08398407  0.49770504  1
  H  H151  1  0.94835741  0.41409569  0.49471731  1
  H  H152  1  0.91377503  0.91735737  0.00250715  1
  H  H153  1  0.91823642  0.41405957  0.99973999  1
  H  H154  1  0.81275720  0.75439943  0.50462245  1
  H  H155  1  0.83213844  0.75536500  0.00214176  1
  H  H156  1  0.07645483  0.07720272  1.00033001  1
  H  H157  1  0.19171236  0.08763939  -0.00539260  1
  H  H158  1  0.55616807  0.91845804  -0.00227125  1
  H  H159  1  0.30098991  0.57992769  1.00264574  1
  H  H160  1  0.55516309  0.75054986  1.00228712  1
  H  H161  1  0.43138011  0.58804562  0.50136789  1
  H  H162  1  0.43674823  0.25306620  -0.00449915  1
  H  H163  1  0.07930713  0.91695039  0.00194531  1
  H  H164  1  0.56982639  0.08417799  1.00126400  1
  H  H165  1  0.42603652  0.91877861  0.49893344  1
  H  H166  1  0.08729008  0.25112345  0.00405863  1
  H  H167  1  0.15356163  0.41405652  0.48750403  1
  H  H168  1  0.30442927  0.24796696  1.00555666  1
  H  H169  1  0.79634021  0.08922534  -0.00352571  1
  H  H170  1  0.67030225  0.24550583  0.50197666  1
  H  H171  1  0.67891788  0.42622156  0.49787278  1
  H  H172  1  0.08776867  0.25150982  0.49321997  1
  H  H173  1  0.95535692  0.74941893  1.00903984  1
  H  H174  1  0.68085539  0.56961488  0.99835385  1
  H  H175  1  0.06302287  0.58862393  0.50271058  1
  H  H176  1  0.16747385  0.08487268  0.49708445  1
  H  H177  1  0.15140767  0.74999549  0.00675650  1
  H  H178  1  0.83037179  0.57885121  0.99835936  1
  H  H179  1  0.56164676  0.39499986  0.50291492  1
  H  H180  1  0.30061433  0.42667835  0.50357360  1
  H  H181  1  0.17124219  0.91298282  0.50431183  1
  H  H182  1  0.83163567  0.42113697  0.49781736  1
  H  H183  1  0.69514592  0.41259870  -0.00092584  1
  H  H184  1  0.92393025  0.07616959  0.99467691  1
  H  H185  1  0.56750951  0.59612232  0.00131914  1
  H  H186  1  0.69938083  0.91683969  1.00312155  1
  H  H187  1  0.66525360  0.58400272  0.50693053  1
  H  H188  1  0.43452282  0.40189840  0.50390151  1
  H  H189  1  0.19161706  0.58464829  0.49776434  1
  H  H190  1  0.35543244  0.08665201  0.00940541  1
  H  H191  1  0.56079285  0.41038589  1.00355667  1
  Pb  Pb192  1  0.24816923  0.04840528  0.74885287  1
  Pb  Pb193  1  0.25086613  0.37862239  0.74450582  1
  Pb  Pb194  1  0.25270543  0.71475307  0.74852954  1
  Pb  Pb195  1  0.75167639  0.04686456  0.75267614  1
  Pb  Pb196  1  0.74754408  0.38200711  0.74931644  1
  Pb  Pb197  1  0.75072635  0.71665091  0.75333324  1
  Pb  Pb198  1  0.24886991  0.28355236  0.24920462  1
  Pb  Pb199  1  0.24877985  0.62051395  0.25172542  1
  Pb  Pb200  1  0.25088073  0.95411698  0.25322972  1
  Pb  Pb201  1  0.75338957  0.28527392  0.25353458  1
  Pb  Pb202  1  0.74966895  0.61954193  0.24798281  1
  Pb  Pb203  1  0.74599697  0.95215476  0.24671897  1
  Pb  Pb204  1  -0.00333807  0.21394016  0.74724050  1
  Pb  Pb205  1  0.00113931  0.54822795  0.74903309  1
  Pb  Pb206  1  0.00180230  0.88038247  0.74913768  1
  Pb  Pb207  1  0.49997773  0.21170629  0.75038430  1
  Pb  Pb208  1  0.49877683  0.54860341  0.75531854  1
  Pb  Pb209  1  0.50086462  0.88352752  0.75267901  1
  Pb  Pb210  1  -0.00195284  0.11648341  0.24378210  1
  Pb  Pb211  1  0.00160567  0.45254436  0.24820932  1
  Pb  Pb212  1  -0.00038018  0.78807785  0.25259959  1
  Pb  Pb213  1  0.50105443  0.12074855  0.25325231  1
  Pb  Pb214  1  0.49875584  0.44972527  0.25083154  1
  Pb  Pb215  1  0.49650666  0.78674546  0.24386000  1
  C  C216  1  0.00062842  0.04664760  0.63337345  1
  C  C217  1  0.00177948  0.38014995  0.63450555  1
  C  C218  1  0.00233585  0.71398729  0.63461475  1
  C  C219  1  0.50019251  0.04781924  0.62947209  1
  C  C220  1  0.50124595  0.37678115  0.63182545  1
  C  C221  1  0.50174395  0.71413338  0.63242452  1
  C  C222  1  0.00108333  0.28600231  0.13448904  1
  C  C223  1  0.00053580  0.61969411  0.13270638  1
  C  C224  1  -0.00143459  0.95284338  0.13404364  1
  C  C225  1  0.50229089  0.28640929  0.13382527  1
  C  C226  1  0.50175483  0.62058457  0.13467260  1
  C  C227  1  0.49801576  0.95314024  0.13216448  1
  C  C228  1  0.00033235  0.04717064  0.86496087  1
  C  C229  1  0.00040270  0.38036440  0.86696259  1
  C  C230  1  0.00321080  0.71372544  0.86721294  1
  C  C231  1  0.49944127  0.04677442  0.86608362  1
  C  C232  1  0.49830349  0.38009354  0.86547255  1
  C  C233  1  0.50101888  0.71443931  0.86702835  1
  C  C234  1  0.00165933  0.28494526  0.36814748  1
  C  C235  1  -0.00062789  0.62000317  0.36512427  1
  C  C236  1  -0.00001655  0.95282669  0.36791181  1
  C  C237  1  0.49878955  0.28542311  0.36704210  1
  C  C238  1  0.49914872  0.62024050  0.36555734  1
  C  C239  1  0.50061465  0.95359460  0.36624856  1
  C  C240  1  0.24868059  0.21357118  0.63191279  1
  C  C241  1  0.24964696  0.54722298  0.63539282  1
  C  C242  1  0.24667491  0.87960116  0.63254976  1
  C  C243  1  0.74898632  0.21337074  0.63402022  1
  C  C244  1  0.75013847  0.54782488  0.63166121  1
  C  C245  1  0.74945484  0.88092955  0.63388661  1
  C  C246  1  0.25132389  0.11974248  0.13456927  1
  C  C247  1  0.25185361  0.45297343  0.13351225  1
  C  C248  1  0.24831560  0.78591996  0.13002666  1
  C  C249  1  0.75095124  0.12107967  0.13362721  1
  C  C250  1  0.75036125  0.45229688  0.13270491  1
  C  C251  1  0.74984860  0.78621295  0.13535610  1
  C  C252  1  0.24932708  0.21360716  0.86491264  1
  C  C253  1  0.24996327  0.54658904  0.86695234  1
  C  C254  1  0.25304372  0.87981836  0.86559082  1
  C  C255  1  0.74793046  0.21407670  0.86666192  1
  C  C256  1  0.74886209  0.54624441  0.86557123  1
  C  C257  1  0.75131071  0.88064082  0.86750276  1
  C  C258  1  0.25079937  0.11955183  0.36680434  1
  C  C259  1  0.24900306  0.45255739  0.36821291  1
  C  C260  1  0.24894063  0.78620023  0.37036521  1
  C  C261  1  0.74964219  0.11927071  0.36654826  1
  C  C262  1  0.74808445  0.45372456  0.36558610  1
  C  C263  1  0.74726749  0.78692252  0.36636153  1
  C  C264  1  0.77789419  0.76286420  0.46295926  1
  C  C265  1  0.78592501  0.57516837  0.53652642  1
  C  C266  1  0.22410211  0.57300999  0.53992100  1
  C  C267  1  0.46930338  0.25868492  0.46169866  1
  C  C268  1  0.22498553  0.09583564  0.03716100  1
  C  C269  1  0.30656204  0.09648506  0.04409314  1
  C  C270  1  0.80540901  0.42644569  0.04260524  1
  C  C271  1  0.79252056  0.76365171  0.04125245  1
  C  C272  1  0.02889111  0.59652353  0.46045334  1
  C  C273  1  0.46029155  0.07256347  0.53739136  1
  C  C274  1  0.04039358  0.07161292  0.95874563  1
  C  C275  1  0.80833576  0.90626789  0.95691823  1
  C  C276  1  0.98564232  0.73878976  0.96569578  1
  C  C277  1  0.03875766  0.07406512  0.54048646  1
  C  C278  1  0.95931187  0.40494426  0.96071415  1
  C  C279  1  0.27186901  0.23816330  0.96296972  1
  C  C280  1  0.53160867  0.07272087  0.96220113  1
  C  C281  1  0.54041340  0.07219567  0.53737982  1
  C  C282  1  0.19089938  0.23664866  0.95375411  1
  C  C283  1  0.05522510  0.59546608  0.04199975  1
  C  C284  1  0.71030921  0.23730210  0.54098229  1
  C  C285  1  0.97935177  0.40446044  0.53804167  1
  C  C286  1  0.97250385  0.92578033  0.46291000  1
  C  C287  1  0.28928310  0.76221838  0.46293678  1
  C  C288  1  0.20876685  0.76214470  0.46299356  1
  C  C289  1  0.06599934  0.73590604  0.95440007  1
  C  C290  1  0.44614562  0.74011115  0.95710429  1
  C  C291  1  0.03851690  0.92755638  0.03976092  1
  C  C292  1  0.20094697  0.24016957  0.54146748  1
  C  C293  1  0.47183854  0.26256390  0.03686489  1
  C  C294  1  0.55296436  0.26364556  0.04270630  1
  C  C295  1  0.69585474  0.76336022  0.45790119  1
  C  C296  1  0.54717742  0.74046499  0.54116553  1
  C  C297  1  0.45602297  0.59408760  0.04327376  1
  C  C298  1  0.52690482  0.40302370  0.96110672  1
  C  C299  1  0.44562867  0.92714137  0.04130920  1
  C  C300  1  0.46449971  0.92895969  0.45966910  1
  C  C301  1  0.79301752  0.42856086  0.45790724  1
  C  C302  1  0.27698528  0.75709093  0.03392985  1
  C  C303  1  0.20917242  0.09458572  0.45890932  1
  C  C304  1  0.04336617  0.26128237  0.04225053  1
  C  C305  1  0.78871557  0.09403451  0.45913273  1
  C  C306  1  0.79288380  0.57294716  0.95746108  1
  C  C307  1  0.97343821  0.73835764  0.53947464  1
  C  C308  1  0.71052287  0.76374093  0.04033573  1
  C  C309  1  0.44991487  0.07092830  0.95779916  1
  C  C310  1  0.46802660  0.59640404  0.46053117  1
  C  C311  1  0.95623722  0.92764405  0.04020932  1
  N  N312  1  0.54749375  0.59511903  0.45816892  1
  N  N313  1  0.44779478  0.40345795  0.95765332  1
  N  N314  1  0.78654017  0.23903416  0.96072268  1
  N  N315  1  0.94968736  0.59573726  0.45730643  1
  N  N316  1  0.05005844  0.92640912  0.45966025  1
  N  N317  1  0.27426459  0.42052575  0.46101270  1
  N  N318  1  0.27840162  0.24156988  0.53550936  1
  N  N319  1  0.52484144  0.74047992  0.96231927  1
  N  N320  1  0.28844202  0.09411782  0.46199091  1
  N  N321  1  0.19858968  0.75904580  0.04076260  1
  N  N322  1  0.71027801  0.23880045  0.96101533  1
  N  N323  1  0.27302775  0.57373266  0.96083171  1
  N  N324  1  0.52434191  0.92688887  0.03749512  1
  N  N325  1  0.71331816  0.42625628  0.45865364  1
  N  N326  1  0.70688058  0.57388264  0.54037809  1
  N  N327  1  0.20881173  0.90495396  0.95820889  1
  N  N328  1  0.19543550  0.57193546  0.95632458  1
  N  N329  1  0.04583294  0.26122579  0.45851856  1
  N  N330  1  0.78960111  0.23920140  0.53963463  1
  N  N331  1  0.71290619  0.57486439  0.95821377  1
  N  N332  1  0.28172604  0.42747423  0.03761994  1
  N  N333  1  0.53593441  0.59165291  0.04181064  1
  N  N334  1  0.30321284  0.57084632  0.54428123  1
  N  N335  1  0.03916639  0.40492923  0.95976537  1
  N  N336  1  0.54210734  0.41472792  0.54345506  1
  N  N337  1  0.97660602  0.59402049  0.03728752  1
  N  N338  1  0.19619229  0.43169356  0.45739992  1
  N  N339  1  0.20963341  0.90362664  0.54049944  1
  N  N340  1  0.72646218  0.42538271  0.03771873  1
  N  N341  1  0.96086153  0.07381115  0.53886201  1
  N  N342  1  0.46975305  0.74125555  0.53620981  1
  N  N343  1  0.96089866  0.07372392  0.95694559  1
  N  N344  1  0.54373397  0.92902218  0.46027471  1
  N  N345  1  0.45917862  0.41659057  0.54506725  1
  N  N346  1  0.05257175  0.73790620  0.54264292  1
  N  N347  1  0.05821138  0.40266025  0.54405834  1
  N  N348  1  0.77024070  0.09355002  0.03941779  1
  N  N349  1  0.69269341  0.09659220  0.04559301  1
  N  N350  1  0.78800381  0.90376649  0.53918009  1
  N  N351  1  0.20513603  0.42860849  0.04138699  1
  N  N352  1  0.96404420  0.26115313  0.03889475  1
  N  N353  1  0.28801089  0.90327667  0.53849276  1
  N  N354  1  0.71185072  0.90397619  0.53894232  1
  N  N355  1  0.96770229  0.26066848  0.46371828  1
  N  N356  1  0.72962504  0.90755623  0.96276549  1
  N  N357  1  0.28514666  0.90605202  0.96083770  1
  N  N358  1  0.54692671  0.26040130  0.45982937  1
  N  N359  1  0.70943796  0.09393338  0.46112569  1
  N  N360  1  0.06521827  0.05778591  0.59749413  1
  N  N361  1  0.07037959  0.38788281  0.60472926  1
  N  N362  1  0.06877425  0.72303688  0.60202767  1
  N  N363  1  0.56580752  0.05729338  0.59354897  1
  N  N364  1  0.56489160  0.38777642  0.59706402  1
  N  N365  1  0.56929103  0.72393169  0.59950259  1
  N  N366  1  0.44111754  0.27688178  0.09501721  1
  N  N367  1  0.43469789  0.61004762  0.10109797  1
  N  N368  1  0.42908156  0.94316151  0.09995183  1
  N  N369  1  0.93943208  0.27619229  0.09696346  1
  N  N370  1  0.94145698  0.60983978  0.09292236  1
  N  N371  1  0.93309289  0.94334807  0.09928563  1
  N  N372  1  0.43125385  0.05532784  0.89952428  1
  N  N373  1  0.43186807  0.38919577  0.89798235  1
  N  N374  1  0.43144499  0.72403492  0.89823959  1
  N  N375  1  0.93621046  0.05625020  0.89975369  1
  N  N376  1  0.93517545  0.38970624  0.90286498  1
  N  N377  1  0.94726992  0.72470888  0.90999051  1
  N  N378  1  0.06768282  0.27544060  0.40065464  1
  N  N379  1  0.06106696  0.61091962  0.40414304  1
  N  N380  1  0.06713854  0.94365754  0.39897993  1
  N  N381  1  0.56535031  0.27692312  0.39922756  1
  N  N382  1  0.56483424  0.61016974  0.39837779  1
  N  N383  1  0.56464139  0.94450222  0.40173077  1
  N  N384  1  0.30825994  0.22445931  0.59303841  1
  N  N385  1  0.31717273  0.55536057  0.60401345  1
  N  N386  1  0.31029483  0.88838297  0.59615291  1
  N  N387  1  0.81198974  0.22419743  0.59800453  1
  N  N388  1  0.81297586  0.55875012  0.59284973  1
  N  N389  1  0.81292578  0.88982438  0.59798119  1
  N  N390  1  0.19165364  0.11015083  0.09392685  1
  N  N391  1  0.18558994  0.44436773  0.10073642  1
  N  N392  1  0.18047034  0.77688326  0.09990337  1
  N  N393  1  0.68152967  0.11142311  0.10478020  1
  N  N394  1  0.69152496  0.44121929  0.09330221  1
  N  N395  1  0.68517315  0.77752464  0.09938124  1
  N  N396  1  0.17808943  0.22190940  0.89438103  1
  N  N397  1  0.18162486  0.55666099  0.89726461  1
  N  N398  1  0.18766916  0.88881723  0.89922864  1
  N  N399  1  0.68468862  0.22331144  0.90282586  1
  N  N400  1  0.68599732  0.55393244  0.90223100  1
  N  N401  1  0.69352718  0.89091548  0.90803680  1
  N  N402  1  0.31256671  0.10977045  0.40429659  1
  N  N403  1  0.30751106  0.44341979  0.40884337  1
  N  N404  1  0.31427584  0.77664940  0.40647177  1
  N  N405  1  0.81501821  0.10928428  0.40137776  1
  N  N406  1  0.81481080  0.44395469  0.39990227  1
  N  N407  1  0.80852447  0.77728810  0.40558213  1
  N  N408  1  0.43728280  0.27404322  0.40625647  1
  N  N409  1  0.43702399  0.61099641  0.40400367  1
  N  N410  1  0.43638731  0.94374629  0.40229999  1
  N  N411  1  0.94066470  0.27537784  0.40705810  1
  N  N412  1  0.93328768  0.61036718  0.39785123  1
  N  N413  1  0.93936393  0.94162743  0.40798295  1
  N  N414  1  0.06525012  0.05669899  0.90131051  1
  N  N415  1  0.06428329  0.39042611  0.90179233  1
  N  N416  1  0.07573167  0.72090289  0.89460260  1
  N  N417  1  0.56115656  0.05716782  0.90395387  1
  N  N418  1  0.55961234  0.38950449  0.90469834  1
  N  N419  1  0.56000823  0.72428947  0.90694040  1
  N  N420  1  0.06735788  0.27642161  0.10068505  1
  N  N421  1  0.07020903  0.61108010  0.10101236  1
  N  N422  1  0.06321911  0.94324564  0.09841065  1
  N  N423  1  0.57100531  0.27787374  0.10119980  1
  N  N424  1  0.56396585  0.61238881  0.09750186  1
  N  N425  1  0.55781900  0.94379871  0.09298991  1
  N  N426  1  0.43473491  0.05786045  0.59362335  1
  N  N427  1  0.43722756  0.38749363  0.59732576  1
  N  N428  1  0.44133326  0.72462505  0.59440482  1
  N  N429  1  0.93712902  0.05622233  0.59813564  1
  N  N430  1  0.94324075  0.39088795  0.59312232  1
  N  N431  1  0.94085948  0.72395156  0.59560384  1
  N  N432  1  0.18460708  0.10979282  0.40073430  1
  N  N433  1  0.18046430  0.44249983  0.39761091  1
  N  N434  1  0.18361104  0.77654777  0.40650904  1
  N  N435  1  0.68675590  0.10963776  0.40301461  1
  N  N436  1  0.68553614  0.44543664  0.40239789  1
  N  N437  1  0.67869336  0.77805565  0.39748758  1
  N  N438  1  0.30726218  0.22354749  0.90637611  1
  N  N439  1  0.30828398  0.55625456  0.90748742  1
  N  N440  1  0.31410403  0.89051490  0.90361498  1
  N  N441  1  0.81141563  0.22412950  0.90220007  1
  N  N442  1  0.81532022  0.55727952  0.89973383  1
  N  N443  1  0.82184447  0.88996477  0.89776970  1
  N  N444  1  0.32088256  0.11139223  0.10487362  1
  N  N445  1  0.31193301  0.44241641  0.09462063  1
  N  N446  1  0.30823921  0.77384443  0.08911259  1
  N  N447  1  0.80754822  0.11131341  0.09188209  1
  N  N448  1  0.82016858  0.44344208  0.10129595  1
  N  N449  1  0.81563148  0.77736228  0.10060169  1
  N  N450  1  0.18046717  0.22352366  0.60011328  1
  N  N451  1  0.18967572  0.55826425  0.59539473  1
  N  N452  1  0.18313093  0.88949858  0.59724638  1
  N  N453  1  0.68375945  0.22213266  0.59869400  1
  N  N454  1  0.68416332  0.55732341  0.59917811  1
  N  N455  1  0.68622249  0.88983739  0.59764885  1
  Cl  Cl456  1  0.24780926  0.05198541  0.61760963  1
  Cl  Cl457  1  0.25588318  0.39264612  0.60495308  1
  Cl  Cl458  1  0.25472090  0.71807119  0.61820706  1
  Cl  Cl459  1  0.75326812  0.05359138  0.62159900  1
  Cl  Cl460  1  0.74971400  0.39461114  0.60683574  1
  Cl  Cl461  1  0.75496747  0.71731348  0.61864802  1
  Cl  Cl462  1  0.25339337  0.27900653  0.11635495  1
  Cl  Cl463  1  0.25510842  0.61437678  0.11337271  1
  Cl  Cl464  1  0.24690375  0.94776826  0.12470767  1
  Cl  Cl465  1  0.75458553  0.28716024  0.12225409  1
  Cl  Cl466  1  0.75084601  0.60539304  0.10431561  1
  Cl  Cl467  1  0.74168143  0.94318367  0.10562324  1
  Cl  Cl468  1  0.24740945  0.05441212  0.88231751  1
  Cl  Cl469  1  0.24713662  0.38382700  0.87563612  1
  Cl  Cl470  1  0.25465887  0.71786403  0.88294384  1
  Cl  Cl471  1  0.75378661  0.05438453  0.89273831  1
  Cl  Cl472  1  0.74466087  0.39157992  0.88806043  1
  Cl  Cl473  1  0.74959803  0.72248530  0.88913560  1
  Cl  Cl474  1  0.25037649  0.28352600  0.38148216  1
  Cl  Cl475  1  0.24715328  0.61235283  0.38470601  1
  Cl  Cl476  1  0.25080753  0.94423303  0.38681957  1
  Cl  Cl477  1  0.75259130  0.28245334  0.38663816  1
  Cl  Cl478  1  0.74850161  0.61111261  0.38166352  1
  Cl  Cl479  1  0.75248734  0.94716173  0.37538410  1
  Cl  Cl480  1  -0.00183293  0.21895091  0.61479296  1
  Cl  Cl481  1  0.00191223  0.55338683  0.61658402  1
  Cl  Cl482  1  -0.00104430  0.88671011  0.61682672  1
  Cl  Cl483  1  0.49620591  0.22022506  0.61803898  1
  Cl  Cl484  1  0.50115628  0.55239411  0.62235678  1
  Cl  Cl485  1  0.49713012  0.88689261  0.61989949  1
  Cl  Cl486  1  -0.00567904  0.10712307  0.10367313  1
  Cl  Cl487  1  0.00296242  0.44818709  0.11157015  1
  Cl  Cl488  1  -0.00192152  0.77799161  0.11826418  1
  Cl  Cl489  1  0.50204942  0.11551584  0.12092809  1
  Cl  Cl490  1  0.50458799  0.44554785  0.11579777  1
  Cl  Cl491  1  0.49924812  0.77915610  0.10577531  1
  Cl  Cl492  1  -0.00473224  0.21779441  0.87972331  1
  Cl  Cl493  1  -0.00463375  0.55473033  0.88917503  1
  Cl  Cl494  1  0.00363536  0.88691058  0.88274372  1
  Cl  Cl495  1  0.49695068  0.22028153  0.88455897  1
  Cl  Cl496  1  0.49892690  0.56097658  0.89756567  1
  Cl  Cl497  1  0.50770494  0.88946700  0.89628480  1
  Cl  Cl498  1  0.00074145  0.11523219  0.37493670  1
  Cl  Cl499  1  -0.00165238  0.44687839  0.38192953  1
  Cl  Cl500  1  -0.00630204  0.78172388  0.38452989  1
  Cl  Cl501  1  0.49906014  0.11656280  0.38404717  1
  Cl  Cl502  1  0.49548377  0.43459800  0.40021231  1
  Cl  Cl503  1  0.49663504  0.78287266  0.37135212  1
  Cl  Cl504  1  0.36092379  0.14332837  0.75063837  1
  Cl  Cl505  1  0.36317017  0.47660834  0.74714948  1
  Cl  Cl506  1  0.36003546  0.80926561  0.75081280  1
  Cl  Cl507  1  0.86309406  0.14258980  0.75127795  1
  Cl  Cl508  1  0.86196682  0.47712603  0.75081396  1
  Cl  Cl509  1  0.86192114  0.80946824  0.75260398  1
  Cl  Cl510  1  0.13989237  0.19126061  0.25009526  1
  Cl  Cl511  1  0.13732803  0.52352297  0.25047984  1
  Cl  Cl512  1  0.13609762  0.85604382  0.25023254  1
  Cl  Cl513  1  0.63760981  0.19070295  0.24778185  1
  Cl  Cl514  1  0.63839772  0.52445897  0.25053592  1
  Cl  Cl515  1  0.63804431  0.85710766  0.24803986  1
  Cl  Cl516  1  0.13616526  0.14254933  0.75188717  1
  Cl  Cl517  1  0.13726722  0.47681303  0.75163054  1
  Cl  Cl518  1  0.13706220  0.80804627  0.75102202  1
  Cl  Cl519  1  0.63735116  0.14332574  0.75129426  1
  Cl  Cl520  1  0.63892069  0.47565698  0.74805781  1
  Cl  Cl521  1  0.63819853  0.80889478  0.75110185  1
  Cl  Cl522  1  0.36267195  0.19050712  0.24889580  1
  Cl  Cl523  1  0.36247036  0.52232684  0.25066840  1
  Cl  Cl524  1  0.36169819  0.85549620  0.24890114  1
  Cl  Cl525  1  0.86139112  0.19101087  0.24971923  1
  Cl  Cl526  1  0.86157165  0.52264491  0.24804519  1
  Cl  Cl527  1  0.86286890  0.85631009  0.24603767  1
  Cl  Cl528  1  0.11305600  0.31042349  0.74903162  1
  Cl  Cl529  1  0.11275439  0.64218723  0.75273001  1
  Cl  Cl530  1  0.11180161  0.97588576  0.75033864  1
  Cl  Cl531  1  0.61293674  0.31181042  0.74761887  1
  Cl  Cl532  1  0.61085398  0.64146928  0.75122102  1
  Cl  Cl533  1  0.61148968  0.97562703  0.75065565  1
  Cl  Cl534  1  0.38625333  0.02312214  0.24786361  1
  Cl  Cl535  1  0.38988475  0.35870059  0.25240887  1
  Cl  Cl536  1  0.38947103  0.68869918  0.24677971  1
  Cl  Cl537  1  0.88904108  0.02420717  0.24716760  1
  Cl  Cl538  1  0.88856580  0.35745019  0.25058275  1
  Cl  Cl539  1  0.88562146  0.68912080  0.25024931  1
  Cl  Cl540  1  0.38727545  0.31172837  0.75013581  1
  Cl  Cl541  1  0.38909687  0.64198931  0.75191753  1
  Cl  Cl542  1  0.38813113  0.97617507  0.75128537  1
  Cl  Cl543  1  0.88928614  0.31126586  0.74951872  1
  Cl  Cl544  1  0.89028384  0.64214736  0.75277763  1
  Cl  Cl545  1  0.88752876  0.97644813  0.75298484  1
  Cl  Cl546  1  0.11244530  0.02379900  0.24973193  1
  Cl  Cl547  1  0.11092176  0.35803836  0.25208425  1
  Cl  Cl548  1  0.11275345  0.68876068  0.24641755  1
  Cl  Cl549  1  0.61297197  0.02348179  0.24939861  1
  Cl  Cl550  1  0.61181569  0.35839284  0.25173301  1
  Cl  Cl551  1  0.61426484  0.68987104  0.24794004  1
