# generated using pymatgen
data_H8PbC4(N3Cl2)2
_symmetry_space_group_name_H-M   'P 1'
_cell_length_a   16.62580250
_cell_length_b   22.50585657
_cell_length_c   21.59021341
_cell_angle_alpha   89.99858683
_cell_angle_beta   90.00087029
_cell_angle_gamma   90.00097812
_symmetry_Int_Tables_number   1
_chemical_formula_structural   H8PbC4(N3Cl2)2
_chemical_formula_sum   'H192 Pb24 C96 N144 Cl96'
_cell_volume   8078.58128121
_cell_formula_units_Z   24
loop_
 _symmetry_equiv_pos_site_id
 _symmetry_equiv_pos_as_xyz
  1  'x, y, z'
loop_
 _atom_site_type_symbol
 _atom_site_label
 _atom_site_symmetry_multiplicity
 _atom_site_fract_x
 _atom_site_fract_y
 _atom_site_fract_z
 _atom_site_occupancy
  H  H0  1  0.00062600  0.03226014  0.68142647  1
  H  H1  1  -0.00894278  0.36567668  0.68159355  1
  H  H2  1  -0.00533490  0.69753031  0.67839167  1
  H  H3  1  0.49632770  0.03066068  0.68112862  1
  H  H4  1  0.50543487  0.36484589  0.68058697  1
  H  H5  1  0.51256459  0.69794772  0.67928010  1
  H  H6  1  0.00757819  0.30164728  0.18183322  1
  H  H7  1  0.00754181  0.63464850  0.17863480  1
  H  H8  1  0.00728046  0.96945056  0.17536723  1
  H  H9  1  0.50000316  0.30012398  0.17579325  1
  H  H10  1  0.49334716  0.63549931  0.17914650  1
  H  H11  1  0.49208221  0.96933447  0.18222078  1
  H  H12  1  0.00362398  0.03104432  0.82246857  1
  H  H13  1  -0.01302643  0.36174794  0.81785247  1
  H  H14  1  -0.00285443  0.69901215  0.81929231  1
  H  H15  1  0.50157516  0.03145102  0.82164858  1
  H  H16  1  0.50908456  0.36378988  0.81951490  1
  H  H17  1  0.50903656  0.69922972  0.81884431  1
  H  H18  1  0.00486685  0.30213155  0.31682395  1
  H  H19  1  -0.00215753  0.63497676  0.32172719  1
  H  H20  1  -0.00191611  0.96896642  0.32020667  1
  H  H21  1  0.49572216  0.30104664  0.32248396  1
  H  H22  1  0.49931620  0.63591131  0.32287386  1
  H  H23  1  0.49431178  0.96638032  0.32070318  1
  H  H24  1  0.23863477  0.19897817  0.68115273  1
  H  H25  1  0.25638382  0.53354703  0.67898800  1
  H  H26  1  0.25753552  0.86609304  0.68082206  1
  H  H27  1  0.75277564  0.19734136  0.68061583  1
  H  H28  1  0.74716865  0.53349481  0.67985610  1
  H  H29  1  0.75155255  0.86551305  0.67969841  1
  H  H30  1  0.24474644  0.13759221  0.17736525  1
  H  H31  1  0.25374734  0.46874277  0.17938344  1
  H  H32  1  0.24804564  0.80251360  0.18010211  1
  H  H33  1  0.75611428  0.13532179  0.17753618  1
  H  H34  1  0.74924634  0.47030034  0.18053765  1
  H  H35  1  0.74839540  0.80002429  0.18091487  1
  H  H36  1  0.25317923  0.19656360  0.82215300  1
  H  H37  1  0.24763253  0.53094706  0.82107197  1
  H  H38  1  0.25508913  0.86262764  0.82137846  1
  H  H39  1  0.74591852  0.19845504  0.82087075  1
  H  H40  1  0.75060424  0.53102072  0.82084877  1
  H  H41  1  0.74214136  0.86408313  0.81936384  1
  H  H42  1  0.25421632  0.13479477  0.32040795  1
  H  H43  1  0.26154289  0.46726015  0.31936261  1
  H  H44  1  0.24599428  0.80266342  0.31925130  1
  H  H45  1  0.75757075  0.13520803  0.31677611  1
  H  H46  1  0.74619924  0.46950205  0.31828143  1
  H  H47  1  0.75653699  0.80346471  0.32237071  1
  H  H48  1  0.13179068  0.05227999  0.61714849  1
  H  H49  1  0.12788903  0.38377049  0.62610460  1
  H  H50  1  0.12859183  0.72028231  0.61870370  1
  H  H51  1  0.63037886  0.05145125  0.62077366  1
  H  H52  1  0.62638495  0.38909142  0.60761693  1
  H  H53  1  0.62716000  0.72392717  0.60106682  1
  H  H54  1  0.37560310  0.28000324  0.10694961  1
  H  H55  1  0.37125890  0.61100002  0.10603759  1
  H  H56  1  0.37984209  0.94479195  0.10177615  1
  H  H57  1  0.87645572  0.28012300  0.11516673  1
  H  H58  1  0.86577967  0.61927786  0.12776705  1
  H  H59  1  0.87509922  0.94752357  0.11273238  1
  H  H60  1  0.38103091  0.05670236  0.89547488  1
  H  H61  1  0.37361470  0.38374815  0.88162707  1
  H  H62  1  0.36918836  0.71538370  0.87299960  1
  H  H63  1  0.87676695  0.05464322  0.89106116  1
  H  H64  1  0.87747981  0.38757245  0.89977188  1
  H  H65  1  0.87197449  0.72117808  0.89158959  1
  H  H66  1  0.12195098  0.27941861  0.39244305  1
  H  H67  1  0.13220374  0.61560091  0.38333568  1
  H  H68  1  0.12994834  0.94816606  0.38381027  1
  H  H69  1  0.62228263  0.27770847  0.38990261  1
  H  H70  1  0.63355362  0.61452681  0.38322752  1
  H  H71  1  0.63062114  0.94744284  0.37834590  1
  H  H72  1  0.37744624  0.21846376  0.62489920  1
  H  H73  1  0.36294164  0.55927137  0.59358845  1
  H  H74  1  0.36331111  0.88925423  0.59722940  1
  H  H75  1  0.87356520  0.22094655  0.60627062  1
  H  H76  1  0.86318009  0.55664574  0.60443433  1
  H  H77  1  0.86716457  0.88940497  0.60108626  1
  H  H78  1  0.12462023  0.11030358  0.10463674  1
  H  H79  1  0.12732267  0.44751551  0.11299077  1
  H  H80  1  0.13010022  0.77840715  0.10336785  1
  H  H81  1  0.62043058  0.11789173  0.11840704  1
  H  H82  1  0.62489189  0.44339273  0.11051094  1
  H  H83  1  0.63241309  0.77873819  0.10502134  1
  H  H84  1  0.12623155  0.21855623  0.89108996  1
  H  H85  1  0.13196355  0.55702440  0.89965794  1
  H  H86  1  0.12274056  0.88749921  0.88426586  1
  H  H87  1  0.62356822  0.22072184  0.89334217  1
  H  H88  1  0.63601859  0.55804049  0.89933618  1
  H  H89  1  0.62599043  0.88923498  0.89617556  1
  H  H90  1  0.36590760  0.10895875  0.40271442  1
  H  H91  1  0.36602356  0.44203047  0.40318014  1
  H  H92  1  0.37324529  0.77996887  0.38726657  1
  H  H93  1  0.86881360  0.11020941  0.39721073  1
  H  H94  1  0.87222456  0.44575904  0.38595562  1
  H  H95  1  0.86800961  0.77617326  0.40315527  1
  H  H96  1  0.37311513  0.27736089  0.39473767  1
  H  H97  1  0.38576982  0.60906289  0.40168129  1
  H  H98  1  0.38298077  0.94190275  0.40236446  1
  H  H99  1  0.87315990  0.28187200  0.37897725  1
  H  H100  1  0.88500252  0.60918086  0.40075662  1
  H  H101  1  0.88174499  0.94387170  0.39838636  1
  H  H102  1  0.12563835  0.05570615  0.89441535  1
  H  H103  1  0.12432758  0.38199018  0.87652826  1
  H  H104  1  0.12071842  0.72085830  0.89294734  1
  H  H105  1  0.62942397  0.05586721  0.88963659  1
  H  H106  1  0.62186353  0.38691095  0.90039117  1
  H  H107  1  0.61552677  0.72288764  0.90119425  1
  H  H108  1  0.12485968  0.27681211  0.10357743  1
  H  H109  1  0.11095121  0.60935310  0.09441835  1
  H  H110  1  0.12305003  0.94430734  0.09832518  1
  H  H111  1  0.62460182  0.27857578  0.10755127  1
  H  H112  1  0.61987231  0.61327832  0.10864879  1
  H  H113  1  0.62759378  0.94919636  0.12104937  1
  H  H114  1  0.38196859  0.05753113  0.60238172  1
  H  H115  1  0.37812662  0.38625122  0.61311663  1
  H  H116  1  0.37903928  0.71889960  0.61653198  1
  H  H117  1  0.88290824  0.05241219  0.60664415  1
  H  H118  1  0.88127460  0.39039227  0.60086692  1
  H  H119  1  0.88076565  0.72551587  0.59994272  1
  H  H120  1  0.11898855  0.11378643  0.38107769  1
  H  H121  1  0.12053120  0.45091911  0.37142794  1
  H  H122  1  0.12422623  0.77772080  0.39397964  1
  H  H123  1  0.62149276  0.11510791  0.37741044  1
  H  H124  1  0.62275822  0.44551018  0.39096469  1
  H  H125  1  0.62081579  0.78093300  0.38009764  1
  H  H126  1  0.37540100  0.22249881  0.89345950  1
  H  H127  1  0.37924399  0.55228389  0.88551588  1
  H  H128  1  0.37051813  0.88978908  0.89973849  1
  H  H129  1  0.87285996  0.21661760  0.88723330  1
  H  H130  1  0.88320357  0.55402264  0.88378224  1
  H  H131  1  0.87425954  0.88601790  0.88382764  1
  H  H132  1  0.37358826  0.11586425  0.11085952  1
  H  H133  1  0.37641025  0.44513153  0.10791532  1
  H  H134  1  0.37845473  0.78016326  0.11577813  1
  H  H135  1  0.86712209  0.10849969  0.09586340  1
  H  H136  1  0.87479992  0.44801128  0.11171480  1
  H  H137  1  0.88129005  0.78205173  0.11817184  1
  H  H138  1  0.13172030  0.22225312  0.59699598  1
  H  H139  1  0.11811437  0.55218962  0.62155443  1
  H  H140  1  0.11689868  0.88317261  0.62747839  1
  H  H141  1  0.62549444  0.22167657  0.61166458  1
  H  H142  1  0.61487492  0.55335275  0.61750261  1
  H  H143  1  0.61876519  0.88536770  0.61621275  1
  H  H144  1  0.94853537  0.41366321  1.00522434  1
  H  H145  1  0.60779757  0.91773444  0.49143839  1
  H  H146  1  0.94757611  0.75260886  0.49728315  1
  H  H147  1  0.82793337  0.42032010  0.49851479  1
  H  H148  1  0.42877159  0.43268984  0.51654753  1
  H  H149  1  0.34423694  0.74897357  0.00472946  1
  H  H150  1  0.67531147  0.41836972  0.00395508  1
  H  H151  1  0.80553034  0.58352268  0.49401646  1
  H  H152  1  0.54487107  0.74897997  1.00814370  1
  H  H153  1  0.19803999  0.58331445  1.00218652  1
  H  H154  1  0.10886137  0.41275974  0.51097609  1
  H  H155  1  0.93810301  0.07946669  0.49552470  1
  H  H156  1  0.95306512  0.59317299  0.50445822  1
  H  H157  1  0.80050189  0.08231625  0.50303990  1
  H  H158  1  0.79809343  0.75174213  0.50554317  1
  H  H159  1  0.67735847  0.43960541  0.49874968  1
  H  H160  1  0.94794450  0.41366966  0.49293216  1
  H  H161  1  0.56877568  0.58552415  0.00315004  1
  H  H162  1  0.16757269  0.41568906  0.00107848  1
  H  H163  1  0.09705019  0.91769494  0.49518140  1
  H  H164  1  0.29184623  0.91600004  0.49126578  1
  H  H165  1  0.33080393  0.08659109  0.00470936  1
  H  H166  1  0.28669102  0.58518115  0.49408256  1
  H  H167  1  0.82928257  0.41975315  0.00029303  1
  H  H168  1  0.20491425  0.24918732  0.49292770  1
  H  H169  1  0.55343450  0.40901050  1.00781105  1
  H  H170  1  0.69013046  0.75122100  -0.00527295  1
  H  H171  1  0.29252283  0.41478088  0.50884130  1
  H  H172  1  0.30346168  0.91652656  1.00203355  1
  H  H173  1  0.29419234  0.08349962  0.50358359  1
  H  H174  1  0.83331293  0.24550465  1.00057689  1
  H  H175  1  0.60062965  0.08195043  0.50862355  1
  H  H176  1  0.06637102  0.25238438  0.50174346  1
  H  H177  1  0.32881368  0.75156368  0.49726487  1
  H  H178  1  0.42335327  0.24857682  0.49883176  1
  H  H179  1  0.44728427  0.91573484  -0.00364875  1
  H  H180  1  0.91094498  0.91694208  0.00596081  1
  H  H181  1  0.68513368  0.91717928  1.00264984  1
  H  H182  1  0.85245875  0.58488942  0.99237156  1
  H  H183  1  0.67077126  0.24653687  0.50622407  1
  H  H184  1  0.10005903  0.58050711  0.48842762  1
  H  H185  1  0.44528237  0.08244313  0.49947022  1
  H  H186  1  0.58708110  0.08509710  0.99449982  1
  H  H187  1  0.56577768  0.39204888  0.50141042  1
  H  H188  1  0.45217126  0.58495288  0.50520685  1
  H  H189  1  0.03727636  0.58473443  -0.01106146  1
  H  H190  1  0.45092380  0.90967542  0.50182245  1
  H  H191  1  0.90465912  0.25301586  0.49139984  1
  Pb  Pb192  1  0.25226285  0.04614699  0.75081147  1
  Pb  Pb193  1  0.25114550  0.37776871  0.74991867  1
  Pb  Pb194  1  0.24773410  0.71710948  0.74900349  1
  Pb  Pb195  1  0.75469064  0.04718337  0.74822771  1
  Pb  Pb196  1  0.75020377  0.38395575  0.75162283  1
  Pb  Pb197  1  0.75035118  0.71284849  0.74651028  1
  Pb  Pb198  1  0.24430131  0.28524761  0.25221924  1
  Pb  Pb199  1  0.24871315  0.62026534  0.24617368  1
  Pb  Pb200  1  0.24539061  0.95177878  0.24566636  1
  Pb  Pb201  1  0.74454112  0.28476905  0.25149481  1
  Pb  Pb202  1  0.74454624  0.62025450  0.25289124  1
  Pb  Pb203  1  0.75066964  0.95417453  0.25004439  1
  Pb  Pb204  1  0.00145812  0.21224369  0.74471165  1
  Pb  Pb205  1  0.00430470  0.54803064  0.74636323  1
  Pb  Pb206  1  -0.00334541  0.88075573  0.75156038  1
  Pb  Pb207  1  0.50191929  0.21324824  0.74714188  1
  Pb  Pb208  1  0.49390541  0.54899234  0.75014765  1
  Pb  Pb209  1  0.50358560  0.88157717  0.74893994  1
  Pb  Pb210  1  -0.00562503  0.11838448  0.24751872  1
  Pb  Pb211  1  -0.00526279  0.45330153  0.24647660  1
  Pb  Pb212  1  -0.00391143  0.78511280  0.25799781  1
  Pb  Pb213  1  0.49292093  0.11818843  0.25473845  1
  Pb  Pb214  1  0.49411642  0.45083336  0.25651870  1
  Pb  Pb215  1  0.49889961  0.78774857  0.24790145  1
  C  C216  1  0.00490101  0.04557156  0.63336551  1
  C  C217  1  0.00062589  0.38015510  0.63415717  1
  C  C218  1  0.00108053  0.71318048  0.63133925  1
  C  C219  1  0.50279135  0.04571738  0.63348128  1
  C  C220  1  0.50332163  0.38026182  0.63290751  1
  C  C221  1  0.50596972  0.71341677  0.63218853  1
  C  C222  1  0.00286224  0.28642832  0.13428537  1
  C  C223  1  -0.00533070  0.62127673  0.13142861  1
  C  C224  1  0.00144862  0.95382190  0.12814381  1
  C  C225  1  0.50002522  0.28587890  0.12766393  1
  C  C226  1  0.49507525  0.62010907  0.13158262  1
  C  C227  1  0.50012642  0.95474194  0.13469412  1
  C  C228  1  0.00182241  0.04675645  0.86968423  1
  C  C229  1  -0.00353839  0.37726665  0.86489334  1
  C  C230  1  -0.00347996  0.71333789  0.86729032  1
  C  C231  1  0.50431298  0.04758141  0.86894785  1
  C  C232  1  0.50138203  0.37814914  0.86717280  1
  C  C233  1  0.49808531  0.71253447  0.86633906  1
  C  C234  1  -0.00033683  0.28726626  0.36450459  1
  C  C235  1  0.00538790  0.61979293  0.36921250  1
  C  C236  1  0.00336435  0.95369109  0.36761014  1
  C  C237  1  0.49663169  0.28547328  0.36995078  1
  C  C238  1  0.50623378  0.62057480  0.37020010  1
  C  C239  1  0.50253455  0.95179560  0.36833612  1
  C  C240  1  0.24961172  0.21320526  0.63384331  1
  C  C241  1  0.24583363  0.54772049  0.63153682  1
  C  C242  1  0.24606684  0.87951913  0.63339982  1
  C  C243  1  0.75019297  0.21341828  0.63330428  1
  C  C244  1  0.74178067  0.54747619  0.63199707  1
  C  C245  1  0.74585012  0.88008602  0.63223000  1
  C  C246  1  0.24802527  0.12164018  0.13011202  1
  C  C247  1  0.25190815  0.45394844  0.13170042  1
  C  C248  1  0.25223080  0.78681252  0.13276946  1
  C  C249  1  0.74804481  0.12090045  0.13015675  1
  C  C250  1  0.74912662  0.45445575  0.13293827  1
  C  C251  1  0.75381192  0.78670193  0.13293287  1
  C  C252  1  0.25145102  0.21245885  0.86930828  1
  C  C253  1  0.25270722  0.54598867  0.86862816  1
  C  C254  1  0.24973240  0.87906500  0.86841896  1
  C  C255  1  0.74807316  0.21246343  0.86878981  1
  C  C256  1  0.75700398  0.54704113  0.86804799  1
  C  C257  1  0.74768428  0.87923796  0.86688505  1
  C  C258  1  0.24662016  0.11976253  0.36784561  1
  C  C259  1  0.24947207  0.45367493  0.36667134  1
  C  C260  1  0.24760392  0.78688420  0.36672955  1
  C  C261  1  0.74879692  0.12057454  0.36422891  1
  C  C262  1  0.74627734  0.45399264  0.36598332  1
  C  C263  1  0.74874057  0.78813136  0.36951548  1
  C  C264  1  0.43467818  0.73526629  0.95318400  1
  C  C265  1  0.53223920  0.74273031  0.53760083  1
  C  C266  1  0.05488938  0.06958395  0.54230969  1
  C  C267  1  0.79143637  0.42760007  0.04049075  1
  C  C268  1  0.69788091  0.90549422  0.54180246  1
  C  C269  1  0.77011226  0.09382589  0.45991853  1
  C  C270  1  0.05036701  0.92799523  0.45822468  1
  C  C271  1  0.21144993  0.09089585  0.03642838  1
  C  C272  1  0.29778366  0.75962655  0.04209867  1
  C  C273  1  0.28600158  0.24361151  0.96110275  1
  C  C274  1  0.45989747  0.26024791  0.03561566  1
  C  C275  1  0.94907542  0.26281281  0.45578715  1
  C  C276  1  0.03283356  0.92365379  0.03311032  1
  C  C277  1  0.71008846  0.23816021  0.96307478  1
  C  C278  1  0.00830767  0.59554103  0.03285181  1
  C  C279  1  0.55647224  0.07260070  0.54461552  1
  C  C280  1  0.26218405  0.90530905  0.53486115  1
  C  C281  1  0.05643991  0.74418689  0.54333031  1
  C  C282  1  0.69081827  0.75836307  0.45705884  1
  C  C283  1  0.20905210  0.42680017  0.03834763  1
  C  C284  1  0.72024098  0.90616464  0.96172993  1
  C  C285  1  0.72478247  0.76146681  0.03608682  1
  C  C286  1  0.54029224  0.25961187  0.03573974  1
  C  C287  1  0.78961747  0.42897008  0.45868435  1
  C  C288  1  0.54161957  0.25681146  0.46240292  1
  C  C289  1  0.03626024  0.07632584  0.96214824  1
  C  C290  1  0.23345047  0.23868708  0.53705708  1
  C  C291  1  0.69441562  0.09609082  0.04113738  1
  C  C292  1  0.18443111  0.42982516  0.45234945  1
  C  C293  1  0.56218855  0.59252239  0.45965360  1
  C  C294  1  0.79169833  0.23684235  0.96272622  1
  C  C295  1  0.18225046  0.90290343  0.54725155  1
  C  C296  1  0.29054031  0.42691484  0.03815108  1
  C  C297  1  0.68878050  0.57132710  0.54088251  1
  C  C298  1  0.28818950  0.76106536  0.45891844  1
  C  C299  1  0.47814444  0.92744477  0.03918154  1
  C  C300  1  0.97868309  0.40469991  0.53643616  1
  C  C301  1  0.80580884  0.76292714  0.04255458  1
  C  C302  1  0.92834546  0.59912121  0.04564216  1
  C  C303  1  0.97742158  0.40424261  0.96099426  1
  C  C304  1  0.26432921  0.42669447  0.46499831  1
  C  C305  1  0.97374430  0.06989576  0.53665112  1
  C  C306  1  0.51497306  0.73823725  0.96473336  1
  C  C307  1  0.03091875  0.26220569  0.46068564  1
  C  C308  1  0.56025340  0.92716568  0.45655173  1
  C  C309  1  0.77052506  0.57281983  0.53519436  1
  C  C310  1  0.05978012  0.40315610  0.54532022  1
  C  C311  1  0.52348608  0.40207367  0.96358981  1
  N  N312  1  0.05776346  0.59915729  0.45833674  1
  N  N313  1  0.22774758  0.57337110  0.96195619  1
  N  N314  1  0.97978700  0.58793593  0.46183122  1
  N  N315  1  0.26140664  0.57023928  0.53515720  1
  N  N316  1  0.45478084  0.74109167  0.54114937  1
  N  N317  1  0.78871385  0.23964564  0.53928446  1
  N  N318  1  0.53266004  0.59590746  0.03987258  1
  N  N319  1  0.54527166  0.07534655  0.95903632  1
  N  N320  1  0.77493982  0.90713585  0.53538474  1
  N  N321  1  0.95892378  0.07600546  0.96236707  1
  N  N322  1  0.48106374  0.92658213  0.46417454  1
  N  N323  1  0.18929908  0.09424443  0.45597725  1
  N  N324  1  0.69139174  0.09572995  0.45331637  1
  N  N325  1  0.47722480  0.07487605  0.53948944  1
  N  N326  1  0.95761045  0.73818339  0.96137271  1
  N  N327  1  0.95410403  0.92525809  0.03887534  1
  N  N328  1  0.20885752  0.76023450  0.46136183  1
  N  N329  1  0.03245123  0.25874066  0.03899131  1
  N  N330  1  0.55708849  0.92900208  0.04547332  1
  N  N331  1  0.72757148  0.57571944  0.96294775  1
  N  N332  1  0.95628458  0.26024836  0.04270622  1
  N  N333  1  0.53993124  0.40908542  0.54082397  1
  N  N334  1  0.26674285  0.09253986  0.46202628  1
  N  N335  1  0.71195390  0.42514386  0.04133055  1
  N  N336  1  0.05583287  0.40405161  0.95278536  1
  N  N337  1  0.97151909  0.92667045  0.46363389  1
  N  N338  1  0.48317283  0.59146289  0.46455975  1
  N  N339  1  0.45475206  0.59436772  0.03784278  1
  N  N340  1  0.27439770  0.90853475  0.96108936  1
  N  N341  1  0.30548142  0.57189589  0.95844499  1
  N  N342  1  0.18441994  0.56797955  0.54358496  1
  N  N343  1  0.79939454  0.90496066  0.95802079  1
  N  N344  1  0.45864341  0.40016730  0.54054837  1
  N  N345  1  0.80538636  0.57453861  0.95650983  1
  N  N346  1  0.70953680  0.42939815  0.45976555  1
  N  N347  1  0.46229041  0.25753984  0.46294691  1
  N  N348  1  0.44487775  0.40283441  0.95673061  1
  N  N349  1  0.77126883  0.09264706  0.03279218  1
  N  N350  1  0.76925662  0.75823419  0.46393049  1
  N  N351  1  0.03363494  0.73804351  0.96183868  1
  N  N352  1  0.71043151  0.24057176  0.54261328  1
  N  N353  1  0.46644690  0.07525685  0.96252930  1
  N  N354  1  0.29038402  0.09350243  0.03950762  1
  N  N355  1  0.19664914  0.90804334  0.95707969  1
  N  N356  1  0.21868952  0.75881558  0.03728948  1
  N  N357  1  0.31186770  0.23735449  0.54612958  1
  N  N358  1  0.97791469  0.74433614  0.53780733  1
  N  N359  1  0.20868328  0.24201002  0.96179829  1
  N  N360  1  0.07339114  0.05513611  0.60066138  1
  N  N361  1  0.07165271  0.38801419  0.60625403  1
  N  N362  1  0.07105546  0.72534905  0.60130039  1
  N  N363  1  0.57254142  0.05556634  0.60328485  1
  N  N364  1  0.56575039  0.38594654  0.59539914  1
  N  N365  1  0.56602931  0.72597802  0.59211863  1
  N  N366  1  0.43471745  0.27612704  0.09164213  1
  N  N367  1  0.43175212  0.60970914  0.09525138  1
  N  N368  1  0.44172731  0.94319550  0.09349237  1
  N  N369  1  0.93659260  0.27700449  0.10180880  1
  N  N370  1  0.92085223  0.61441470  0.10577080  1
  N  N371  1  0.93420768  0.94406460  0.09751408  1
  N  N372  1  0.44214721  0.05847110  0.90608155  1
  N  N373  1  0.43288726  0.38762010  0.89694774  1
  N  N374  1  0.42524314  0.72008072  0.89355468  1
  N  N375  1  0.93718870  0.05740346  0.90355042  1
  N  N376  1  0.93932168  0.38861236  0.90718502  1
  N  N377  1  0.93278015  0.72288763  0.90286052  1
  N  N378  1  0.06108188  0.27735488  0.40348252  1
  N  N379  1  0.07389458  0.60920017  0.39844506  1
  N  N380  1  0.07130924  0.94423920  0.39940568  1
  N  N381  1  0.56281738  0.27385463  0.40479858  1
  N  N382  1  0.57625390  0.60953710  0.40064710  1
  N  N383  1  0.57343768  0.94356308  0.39723444  1
  N  N384  1  0.31993824  0.22185891  0.60672026  1
  N  N385  1  0.30031077  0.55901863  0.58858443  1
  N  N386  1  0.30123279  0.89042958  0.59006855  1
  N  N387  1  0.81268099  0.22415834  0.59627057  1
  N  N388  1  0.80234271  0.55781111  0.59288073  1
  N  N389  1  0.80503804  0.89109953  0.59316899  1
  N  N390  1  0.18504023  0.10798430  0.09254693  1
  N  N391  1  0.18623995  0.44386116  0.09781888  1
  N  N392  1  0.19190491  0.77582658  0.09438625  1
  N  N393  1  0.67782679  0.11307888  0.10049727  1
  N  N394  1  0.68571303  0.44395281  0.09768863  1
  N  N395  1  0.69322369  0.77652681  0.09377965  1
  N  N396  1  0.18680690  0.22232389  0.90343202  1
  N  N397  1  0.19367604  0.55678380  0.90808192  1
  N  N398  1  0.18194659  0.89065540  0.89880807  1
  N  N399  1  0.68396213  0.22362022  0.90631863  1
  N  N400  1  0.69801056  0.55908741  0.90768544  1
  N  N401  1  0.68708423  0.89055804  0.90616041  1
  N  N402  1  0.30349538  0.10928963  0.40922169  1
  N  N403  1  0.30411370  0.44196598  0.41021958  1
  N  N404  1  0.31339717  0.77676870  0.40101542  1
  N  N405  1  0.80678849  0.10911447  0.40571809  1
  N  N406  1  0.81223561  0.44221333  0.40037767  1
  N  N407  1  0.80604788  0.77861971  0.41084121  1
  N  N408  1  0.43396395  0.27563660  0.40601458  1
  N  N409  1  0.44771211  0.61059149  0.41022195  1
  N  N410  1  0.44544277  0.94025001  0.40927339  1
  N  N411  1  0.93123330  0.27819552  0.39585389  1
  N  N412  1  0.94689004  0.61067985  0.40982548  1
  N  N413  1  0.94380135  0.94265386  0.40673826  1
  N  N414  1  0.06558044  0.05858184  0.90639159  1
  N  N415  1  0.06588479  0.38727815  0.89289202  1
  N  N416  1  0.05944855  0.72276779  0.90352592  1
  N  N417  1  0.56907631  0.05796331  0.90268110  1
  N  N418  1  0.56008798  0.38770785  0.90869619  1
  N  N419  1  0.55373607  0.72385011  0.90921152  1
  N  N420  1  0.06293269  0.27499843  0.09558831  1
  N  N421  1  0.04885527  0.60962043  0.08763205  1
  N  N422  1  0.06241104  0.94119038  0.08818631  1
  N  N423  1  0.56550593  0.27507665  0.09204207  1
  N  N424  1  0.55901547  0.61084969  0.09663348  1
  N  N425  1  0.56868730  0.94580280  0.10505193  1
  N  N426  1  0.44408733  0.05606118  0.59359417  1
  N  N427  1  0.43815865  0.39391630  0.60090633  1
  N  N428  1  0.43845378  0.72295433  0.60164075  1
  N  N429  1  0.94352412  0.05464241  0.59471204  1
  N  N430  1  0.94281898  0.39064740  0.59219917  1
  N  N431  1  0.94251243  0.72322448  0.59124418  1
  N  N432  1  0.17727723  0.11017504  0.39702082  1
  N  N433  1  0.17580883  0.44581126  0.39290261  1
  N  N434  1  0.18537844  0.77646700  0.40362641  1
  N  N435  1  0.67982124  0.11218393  0.39340544  1
  N  N436  1  0.68330822  0.44862393  0.40295985  1
  N  N437  1  0.67805063  0.77613126  0.39839776  1
  N  N438  1  0.31515679  0.22559475  0.90553669  1
  N  N439  1  0.32052423  0.55546814  0.89993885  1
  N  N440  1  0.30868417  0.88953811  0.90817884  1
  N  N441  1  0.81405434  0.22098327  0.90280158  1
  N  N442  1  0.82431446  0.55667553  0.89904226  1
  N  N443  1  0.81465351  0.88810807  0.89858201  1
  N  N444  1  0.31367527  0.11318720  0.09697949  1
  N  N445  1  0.31643448  0.44295494  0.09435519  1
  N  N446  1  0.31957273  0.77642424  0.10055030  1
  N  N447  1  0.80488464  0.10871097  0.08944223  1
  N  N448  1  0.81487861  0.44470002  0.09764584  1
  N  N449  1  0.82302497  0.77789523  0.10095858  1
  N  N450  1  0.19375714  0.22404197  0.59044354  1
  N  N451  1  0.17510247  0.55373034  0.60338891  1
  N  N452  1  0.17290666  0.88771516  0.60686581  1
  N  N453  1  0.68593201  0.22364295  0.59916394  1
  N  N454  1  0.67246326  0.55636910  0.59987324  1
  N  N455  1  0.67729263  0.88939649  0.60056045  1
  Cl  Cl456  1  0.26173745  0.05812884  0.60944885  1
  Cl  Cl457  1  0.25788956  0.38608686  0.61522574  1
  Cl  Cl458  1  0.25493021  0.71691227  0.61673698  1
  Cl  Cl459  1  0.75765623  0.05516514  0.61291489  1
  Cl  Cl460  1  0.75045605  0.39441902  0.60826120  1
  Cl  Cl461  1  0.75774948  0.72721651  0.60555564  1
  Cl  Cl462  1  0.24741337  0.28007298  0.12115159  1
  Cl  Cl463  1  0.23803843  0.60707005  0.10962967  1
  Cl  Cl464  1  0.25565996  0.94578579  0.10712645  1
  Cl  Cl465  1  0.75231579  0.28268362  0.11882226  1
  Cl  Cl466  1  0.73848529  0.61446398  0.12121705  1
  Cl  Cl467  1  0.75165995  0.94645326  0.11656210  1
  Cl  Cl468  1  0.25687353  0.05638345  0.88616147  1
  Cl  Cl469  1  0.24921896  0.38358655  0.88026264  1
  Cl  Cl470  1  0.24273484  0.71762222  0.88095800  1
  Cl  Cl471  1  0.75007858  0.05405661  0.87914870  1
  Cl  Cl472  1  0.74775635  0.39186199  0.89410430  1
  Cl  Cl473  1  0.74387133  0.72074853  0.88004601  1
  Cl  Cl474  1  0.24807529  0.27802515  0.38862214  1
  Cl  Cl475  1  0.26217096  0.60764150  0.39411022  1
  Cl  Cl476  1  0.26153696  0.94670685  0.38175103  1
  Cl  Cl477  1  0.74461976  0.28161909  0.38521482  1
  Cl  Cl478  1  0.76377896  0.61403441  0.38803982  1
  Cl  Cl479  1  0.75828034  0.94656130  0.38068434  1
  Cl  Cl480  1  0.00223626  0.22023288  0.60847044  1
  Cl  Cl481  1  -0.01081830  0.56332944  0.60900049  1
  Cl  Cl482  1  -0.01062779  0.88347819  0.62015182  1
  Cl  Cl483  1  0.50448153  0.22287672  0.61041227  1
  Cl  Cl484  1  0.48229636  0.55685466  0.60485194  1
  Cl  Cl485  1  0.48963703  0.88978618  0.60763766  1
  Cl  Cl486  1  -0.00319137  0.10897645  0.11629346  1
  Cl  Cl487  1  -0.00281339  0.44691156  0.11371005  1
  Cl  Cl488  1  0.00800352  0.78499634  0.12688938  1
  Cl  Cl489  1  0.49625343  0.11487719  0.12197238  1
  Cl  Cl490  1  0.50358372  0.44487917  0.12185649  1
  Cl  Cl491  1  0.50613289  0.77898096  0.11392111  1
  Cl  Cl492  1  0.00201263  0.21563254  0.87324257  1
  Cl  Cl493  1  0.00928448  0.55458639  0.88155509  1
  Cl  Cl494  1  -0.00178742  0.89117969  0.88607618  1
  Cl  Cl495  1  0.49991722  0.21746783  0.87744592  1
  Cl  Cl496  1  0.51335326  0.55592371  0.88500377  1
  Cl  Cl497  1  0.49355106  0.89030736  0.88502422  1
  Cl  Cl498  1  -0.00839129  0.11141532  0.38297244  1
  Cl  Cl499  1  -0.00866387  0.45042100  0.37998186  1
  Cl  Cl500  1  -0.00885762  0.77117932  0.39773482  1
  Cl  Cl501  1  0.48638305  0.10886406  0.39747742  1
  Cl  Cl502  1  0.49595962  0.43979510  0.39841792  1
  Cl  Cl503  1  0.49637366  0.78313447  0.37920425  1
  Cl  Cl504  1  0.36461801  0.14577323  0.74447052  1
  Cl  Cl505  1  0.36083336  0.47996913  0.75306888  1
  Cl  Cl506  1  0.35581351  0.81078389  0.75130163  1
  Cl  Cl507  1  0.85687103  0.14779969  0.74754990  1
  Cl  Cl508  1  0.85865652  0.47770781  0.75186838  1
  Cl  Cl509  1  0.86094442  0.81254915  0.75284174  1
  Cl  Cl510  1  0.14224507  0.18855622  0.25514509  1
  Cl  Cl511  1  0.13651158  0.52164484  0.25650101  1
  Cl  Cl512  1  0.14531234  0.85483347  0.25255171  1
  Cl  Cl513  1  0.63947644  0.18960182  0.25364853  1
  Cl  Cl514  1  0.64190479  0.52216233  0.25424887  1
  Cl  Cl515  1  0.63640535  0.85555474  0.25331226  1
  Cl  Cl516  1  0.14047618  0.14644546  0.74835633  1
  Cl  Cl517  1  0.13863972  0.47859067  0.74351479  1
  Cl  Cl518  1  0.13754786  0.81054249  0.74803757  1
  Cl  Cl519  1  0.63640946  0.14407898  0.74608534  1
  Cl  Cl520  1  0.64126418  0.47812755  0.74471414  1
  Cl  Cl521  1  0.63603892  0.81324824  0.74670167  1
  Cl  Cl522  1  0.36068845  0.18678764  0.25048170  1
  Cl  Cl523  1  0.35974246  0.51933516  0.24994154  1
  Cl  Cl524  1  0.36315574  0.85446184  0.24734879  1
  Cl  Cl525  1  0.85983449  0.18799853  0.25006334  1
  Cl  Cl526  1  0.86096991  0.52263368  0.24629288  1
  Cl  Cl527  1  0.86120968  0.85282439  0.24875988  1
  Cl  Cl528  1  0.11282338  0.31309134  0.74816529  1
  Cl  Cl529  1  0.10853995  0.64312209  0.74345387  1
  Cl  Cl530  1  0.11446682  0.97794945  0.74631405  1
  Cl  Cl531  1  0.61171796  0.31411849  0.74565694  1
  Cl  Cl532  1  0.61292245  0.64479201  0.74512413  1
  Cl  Cl533  1  0.60738204  0.97636815  0.74692717  1
  Cl  Cl534  1  0.39564833  0.01998375  0.25234828  1
  Cl  Cl535  1  0.39380127  0.35453238  0.25145552  1
  Cl  Cl536  1  0.38914778  0.68526196  0.24883941  1
  Cl  Cl537  1  0.89115077  0.01966682  0.24844976  1
  Cl  Cl538  1  0.88609801  0.35644277  0.25274832  1
  Cl  Cl539  1  0.89448860  0.68814909  0.24701493  1
  Cl  Cl540  1  0.39019397  0.31333445  0.74502712  1
  Cl  Cl541  1  0.39029109  0.64362876  0.75232392  1
  Cl  Cl542  1  0.38860693  0.98089400  0.75088580  1
  Cl  Cl543  1  0.88896377  0.31317607  0.74611660  1
  Cl  Cl544  1  0.88533370  0.64497900  0.75050517  1
  Cl  Cl545  1  0.88928799  0.97966141  0.75472040  1
  Cl  Cl546  1  0.11306282  0.02130155  0.25164643  1
  Cl  Cl547  1  0.10907315  0.35509741  0.25407121  1
  Cl  Cl548  1  0.11598423  0.68862825  0.25901764  1
  Cl  Cl549  1  0.61488225  0.02332011  0.25413126  1
  Cl  Cl550  1  0.61300440  0.35519748  0.25279186  1
  Cl  Cl551  1  0.60972725  0.68707401  0.25369171  1
