# generated using pymatgen
data_H8PbC4(N3Cl2)2
_symmetry_space_group_name_H-M   'P 1'
_cell_length_a   16.62393837
_cell_length_b   22.50512738
_cell_length_c   21.58979947
_cell_angle_alpha   90.00008388
_cell_angle_beta   89.99392993
_cell_angle_gamma   90.00353624
_symmetry_Int_Tables_number   1
_chemical_formula_structural   H8PbC4(N3Cl2)2
_chemical_formula_sum   'H192 Pb24 C96 N144 Cl96'
_cell_volume   8077.25884657
_cell_formula_units_Z   24
loop_
 _symmetry_equiv_pos_site_id
 _symmetry_equiv_pos_as_xyz
  1  'x, y, z'
loop_
 _atom_site_type_symbol
 _atom_site_label
 _atom_site_symmetry_multiplicity
 _atom_site_fract_x
 _atom_site_fract_y
 _atom_site_fract_z
 _atom_site_occupancy
  H  H0  1  -0.00845605  0.03309377  0.67648581  1
  H  H1  1  0.00304005  0.36476189  0.67608582  1
  H  H2  1  -0.00386823  0.69843127  0.67931250  1
  H  H3  1  0.49532904  0.03241949  0.67794333  1
  H  H4  1  0.49100560  0.36403697  0.67976609  1
  H  H5  1  0.50668983  0.69779082  0.67887377  1
  H  H6  1  0.00981702  0.29983929  0.18020734  1
  H  H7  1  0.00341870  0.63657004  0.18126626  1
  H  H8  1  -0.00682598  0.96904086  0.18126071  1
  H  H9  1  0.49228738  0.30123962  0.18403920  1
  H  H10  1  0.49110827  0.63303607  0.18159308  1
  H  H11  1  0.50811275  0.96888009  0.17784691  1
  H  H12  1  0.00900710  0.03227082  0.81706305  1
  H  H13  1  -0.00855478  0.36629214  0.82065473  1
  H  H14  1  -0.00440627  0.69739551  0.81962339  1
  H  H15  1  0.49516301  0.03034261  0.81848611  1
  H  H16  1  0.51187100  0.36634909  0.82224442  1
  H  H17  1  0.50073067  0.69650059  0.81885988  1
  H  H18  1  -0.00371954  0.30200361  0.31996143  1
  H  H19  1  0.00455525  0.63425755  0.31984956  1
  H  H20  1  -0.00809782  0.96979873  0.32059934  1
  H  H21  1  0.50333602  0.30197690  0.32037158  1
  H  H22  1  0.50955682  0.63711917  0.32041837  1
  H  H23  1  0.50100582  0.96723646  0.31904995  1
  H  H24  1  0.24912374  0.19743888  0.68292841  1
  H  H25  1  0.25217773  0.53046666  0.68097883  1
  H  H26  1  0.25990356  0.86322602  0.67985768  1
  H  H27  1  0.75075450  0.19693002  0.67952373  1
  H  H28  1  0.74411869  0.53034759  0.67831110  1
  H  H29  1  0.73969412  0.86415482  0.68094333  1
  H  H30  1  0.25447714  0.13463088  0.17914999  1
  H  H31  1  0.24350429  0.46793686  0.17592887  1
  H  H32  1  0.26216561  0.80015598  0.18068521  1
  H  H33  1  0.74744235  0.13388179  0.18222262  1
  H  H34  1  0.75578413  0.47036799  0.17840343  1
  H  H35  1  0.73745682  0.80121197  0.18195993  1
  H  H36  1  0.25683791  0.19628937  0.81852183  1
  H  H37  1  0.25907801  0.53200159  0.81932172  1
  H  H38  1  0.24862826  0.86475936  0.82188743  1
  H  H39  1  0.74341694  0.19738829  0.82220130  1
  H  H40  1  0.74645434  0.53201715  0.81911943  1
  H  H41  1  0.75627106  0.86608955  0.81784460  1
  H  H42  1  0.25848893  0.13770801  0.31999029  1
  H  H43  1  0.25954006  0.46822768  0.32243291  1
  H  H44  1  0.25413032  0.80192085  0.32032075  1
  H  H45  1  0.75362539  0.13710261  0.32408022  1
  H  H46  1  0.74367967  0.46726179  0.32106051  1
  H  H47  1  0.74604572  0.80285310  0.32088310  1
  H  H48  1  0.12944679  0.05041079  0.62301429  1
  H  H49  1  0.12507736  0.38900906  0.60365958  1
  H  H50  1  0.12711082  0.71811814  0.61560825  1
  H  H51  1  0.63523235  0.05174076  0.62485782  1
  H  H52  1  0.62403207  0.38518685  0.61661022  1
  H  H53  1  0.62451117  0.72272854  0.60219668  1
  H  H54  1  0.37275809  0.28022632  0.10973502  1
  H  H55  1  0.38441986  0.60984423  0.09890004  1
  H  H56  1  0.37260120  0.94866284  0.12008398  1
  H  H57  1  0.87069839  0.28221683  0.12274811  1
  H  H58  1  0.87992513  0.61314373  0.11168786  1
  H  H59  1  0.87991227  0.94520051  0.10223725  1
  H  H60  1  0.37955299  0.05487282  0.89666513  1
  H  H61  1  0.37535190  0.38552843  0.88120815  1
  H  H62  1  0.37546574  0.71964644  0.88768056  1
  H  H63  1  0.87863186  0.05318107  0.88443147  1
  H  H64  1  0.87960034  0.39265076  0.90136258  1
  H  H65  1  0.87975182  0.72207391  0.89869350  1
  H  H66  1  0.12296858  0.28177664  0.38597034  1
  H  H67  1  0.11847361  0.60961668  0.40032874  1
  H  H68  1  0.12456389  0.94828121  0.38391601  1
  H  H69  1  0.62600383  0.27887590  0.39182026  1
  H  H70  1  0.61721837  0.61026848  0.40495140  1
  H  H71  1  0.62730548  0.94499408  0.38736260  1
  H  H72  1  0.37437520  0.22080082  0.61096276  1
  H  H73  1  0.37638023  0.55378368  0.60961234  1
  H  H74  1  0.36930503  0.89225443  0.59774784  1
  H  H75  1  0.87427508  0.22023254  0.60606306  1
  H  H76  1  0.88028786  0.54907055  0.61893287  1
  H  H77  1  0.87596318  0.88564075  0.62090276  1
  H  H78  1  0.12232559  0.11289245  0.11677829  1
  H  H79  1  0.12728764  0.44267064  0.09882287  1
  H  H80  1  0.12127299  0.78415044  0.12849323  1
  H  H81  1  0.62414634  0.11076463  0.10924980  1
  H  H82  1  0.62113171  0.44783541  0.11885327  1
  H  H83  1  0.62641296  0.77709497  0.09993404  1
  H  H84  1  0.12600502  0.22151947  0.88245851  1
  H  H85  1  0.11952562  0.54763216  0.87437816  1
  H  H86  1  0.12812742  0.88920584  0.89618885  1
  H  H87  1  0.63269626  0.22563415  0.90224761  1
  H  H88  1  0.62110061  0.55231854  0.88660878  1
  H  H89  1  0.62214534  0.88608073  0.88112621  1
  H  H90  1  0.36679885  0.10913416  0.40383147  1
  H  H91  1  0.36961460  0.44110550  0.40337659  1
  H  H92  1  0.37310954  0.77697468  0.39393856  1
  H  H93  1  0.86782549  0.11038776  0.40167194  1
  H  H94  1  0.87557725  0.44457526  0.38436044  1
  H  H95  1  0.87500402  0.78108266  0.38711125  1
  H  H96  1  0.37674412  0.28238654  0.38670104  1
  H  H97  1  0.37205529  0.61501754  0.37713409  1
  H  H98  1  0.37880956  0.94557707  0.39202754  1
  H  H99  1  0.87366871  0.27981102  0.39185935  1
  H  H100  1  0.87123129  0.61428821  0.38491014  1
  H  H101  1  0.87671336  0.94546453  0.39870692  1
  H  H102  1  0.12669792  0.05679719  0.89506927  1
  H  H103  1  0.12729524  0.38680353  0.87965498  1
  H  H104  1  0.12748024  0.71840936  0.88280660  1
  H  H105  1  0.62815207  0.05275569  0.88195800  1
  H  H106  1  0.62207858  0.39297649  0.90371183  1
  H  H107  1  0.62557028  0.72134747  0.88973608  1
  H  H108  1  0.11694247  0.27530544  0.09645760  1
  H  H109  1  0.12924532  0.61384671  0.11362633  1
  H  H110  1  0.12828854  0.94818058  0.12064258  1
  H  H111  1  0.62202600  0.28205756  0.11918155  1
  H  H112  1  0.63104564  0.61587236  0.12762756  1
  H  H113  1  0.61899880  0.94196320  0.09621176  1
  H  H114  1  0.38963965  0.06177363  0.59435568  1
  H  H115  1  0.37600524  0.38990260  0.60220785  1
  H  H116  1  0.37611696  0.72015106  0.61535162  1
  H  H117  1  0.88397288  0.05714676  0.59326053  1
  H  H118  1  0.87612520  0.38716597  0.60899804  1
  H  H119  1  0.87837831  0.72126541  0.60544378  1
  H  H120  1  0.12122262  0.11727020  0.37765144  1
  H  H121  1  0.12289781  0.44738330  0.38026084  1
  H  H122  1  0.12365191  0.78136619  0.38667458  1
  H  H123  1  0.62013972  0.11466164  0.38546494  1
  H  H124  1  0.62641436  0.44212607  0.39676433  1
  H  H125  1  0.62615985  0.77762495  0.39538586  1
  H  H126  1  0.37519295  0.22202750  0.89276609  1
  H  H127  1  0.36610171  0.55589069  0.90114588  1
  H  H128  1  0.37604088  0.88758734  0.89000314  1
  H  H129  1  0.87903666  0.21717398  0.88146199  1
  H  H130  1  0.87016720  0.55311012  0.88992989  1
  H  H131  1  0.87036606  0.88935678  0.89700252  1
  H  H132  1  0.37090399  0.10834592  0.10240496  1
  H  H133  1  0.37564148  0.44719432  0.11278220  1
  H  H134  1  0.36675458  0.77619352  0.09674665  1
  H  H135  1  0.87338087  0.11235893  0.11268040  1
  H  H136  1  0.86910687  0.44362581  0.09878546  1
  H  H137  1  0.87406201  0.78183983  0.12164389  1
  H  H138  1  0.12574862  0.21992063  0.60928319  1
  H  H139  1  0.12734954  0.55348028  0.60971054  1
  H  H140  1  0.12260970  0.88463212  0.62488992  1
  H  H141  1  0.62571288  0.22192149  0.60836237  1
  H  H142  1  0.63336569  0.55972291  0.59835362  1
  H  H143  1  0.62846782  0.88730453  0.59884691  1
  H  H144  1  0.94271034  0.91941233  -0.00573065  1
  H  H145  1  0.45440019  0.58182582  -0.00720961  1
  H  H146  1  0.29660955  0.58376056  1.00786474  1
  H  H147  1  0.70431607  0.57761466  0.49578958  1
  H  H148  1  0.69841743  0.91101208  0.49261070  1
  H  H149  1  0.70353307  0.23756842  1.00529613  1
  H  H150  1  0.29900943  0.91406819  0.49627614  1
  H  H151  1  0.94866322  0.41814708  1.00363632  1
  H  H152  1  0.33952705  0.41853690  0.00525572  1
  H  H153  1  0.80633245  0.91488975  1.00393911  1
  H  H154  1  0.80128826  0.41983656  -0.00443561  1
  H  H155  1  0.15960464  0.74991217  0.49141658  1
  H  H156  1  0.09205977  0.58366422  0.00297447  1
  H  H157  1  0.04384653  0.24834696  -0.00784203  1
  H  H158  1  0.30733914  0.08137637  -0.00166872  1
  H  H159  1  0.82654843  0.08294902  0.00324915  1
  H  H160  1  0.33361424  0.91473109  0.99604256  1
  H  H161  1  0.46400038  0.08638633  0.49412744  1
  H  H162  1  0.14503312  0.91633367  0.51210789  1
  H  H163  1  0.57706096  0.93477095  0.49507938  1
  H  H164  1  0.29218888  0.09033875  0.50539366  1
  H  H165  1  0.44328220  0.08171104  1.00366892  1
  H  H166  1  0.65895274  0.58267711  0.99875760  1
  H  H167  1  0.07476154  0.41631378  0.49961630  1
  H  H168  1  0.32136068  0.74695640  0.50221425  1
  H  H169  1  0.92388057  0.58510617  0.00136695  1
  H  H170  1  0.69706696  0.75146336  -0.00580766  1
  H  H171  1  0.85104399  0.58756544  0.51482774  1
  H  H172  1  0.68180358  0.41077006  0.50334830  1
  H  H173  1  0.31694414  0.24266152  1.00445550  1
  H  H174  1  0.09593036  0.74826951  0.99473442  1
  H  H175  1  0.57462908  0.74198640  0.99670853  1
  H  H176  1  0.84162629  0.41671534  0.49108442  1
  H  H177  1  0.16608888  0.24334186  0.99095012  1
  H  H178  1  0.85038700  0.25082116  0.98780802  1
  H  H179  1  0.42159321  0.74604022  0.99959950  1
  H  H180  1  0.43597944  0.90244344  0.48872533  1
  H  H181  1  0.41740846  0.25342700  0.49994748  1
  H  H182  1  0.09769460  0.92032058  0.01355342  1
  H  H183  1  0.11055357  0.07829189  0.50747348  1
  H  H184  1  0.65090766  0.08674347  0.49499660  1
  H  H185  1  0.32708572  0.58148683  0.50102316  1
  H  H186  1  0.42646604  0.26144932  -0.00286419  1
  H  H187  1  0.29352403  0.75046006  -0.00924455  1
  H  H188  1  0.08255106  0.25089557  0.49867687  1
  H  H189  1  0.93024479  0.75064817  0.49618567  1
  H  H190  1  0.54186195  0.58600918  0.50476319  1
  H  H191  1  0.58521887  0.26017339  0.00478519  1
  Pb  Pb192  1  0.25439459  0.04860627  0.75170400  1
  Pb  Pb193  1  0.25017817  0.37872438  0.74860137  1
  Pb  Pb194  1  0.24960006  0.71679653  0.74818158  1
  Pb  Pb195  1  0.75717266  0.04700295  0.74634204  1
  Pb  Pb196  1  0.74829250  0.38404288  0.75345317  1
  Pb  Pb197  1  0.75084193  0.71268822  0.75136993  1
  Pb  Pb198  1  0.25274808  0.28516051  0.24305282  1
  Pb  Pb199  1  0.24904619  0.62067381  0.24934818  1
  Pb  Pb200  1  0.25097790  0.95251284  0.25435936  1
  Pb  Pb201  1  0.74842631  0.28694874  0.24467493  1
  Pb  Pb202  1  0.75412394  0.61835022  0.25824125  1
  Pb  Pb203  1  0.75429622  0.95327325  0.24743390  1
  Pb  Pb204  1  -0.00189028  0.21573658  0.74765731  1
  Pb  Pb205  1  0.00141833  0.54663579  0.75003472  1
  Pb  Pb206  1  -0.00127062  0.88066277  0.75782847  1
  Pb  Pb207  1  0.50562695  0.21484484  0.75309895  1
  Pb  Pb208  1  0.49523047  0.54827276  0.74602241  1
  Pb  Pb209  1  0.50571611  0.88156177  0.73901303  1
  Pb  Pb210  1  -0.00136279  0.12144500  0.25178703  1
  Pb  Pb211  1  0.00367786  0.45121990  0.24409390  1
  Pb  Pb212  1  -0.00120305  0.78844400  0.25325804  1
  Pb  Pb213  1  0.50225696  0.11776882  0.25172673  1
  Pb  Pb214  1  0.49900359  0.45495913  0.25478355  1
  Pb  Pb215  1  0.50385010  0.78495702  0.24370780  1
  C  C216  1  0.00260809  0.04663504  0.62913608  1
  C  C217  1  0.00180978  0.37988291  0.62841600  1
  C  C218  1  0.00030928  0.71263690  0.63152574  1
  C  C219  1  0.50668442  0.04723258  0.63088676  1
  C  C220  1  0.49738528  0.37915170  0.63251145  1
  C  C221  1  0.50255497  0.71351120  0.63169185  1
  C  C222  1  -0.00132608  0.28603374  0.13274890  1
  C  C223  1  0.00424895  0.62079613  0.13367627  1
  C  C224  1  0.00103445  0.95393628  0.13380233  1
  C  C225  1  0.49583374  0.28730544  0.13598493  1
  C  C226  1  0.50201706  0.61982998  0.13402152  1
  C  C227  1  0.50008335  0.95325710  0.13087018  1
  C  C228  1  0.00483727  0.04675296  0.86492818  1
  C  C229  1  -0.00074837  0.38077044  0.86808526  1
  C  C230  1  0.00083133  0.71264734  0.86709054  1
  C  C231  1  0.50113369  0.04578240  0.86585254  1
  C  C232  1  0.50282561  0.38121467  0.86929439  1
  C  C233  1  0.50117251  0.71216322  0.86654145  1
  C  C234  1  -0.00178732  0.28779695  0.36780465  1
  C  C235  1  -0.00218552  0.62006353  0.36765330  1
  C  C236  1  -0.00185640  0.95488786  0.36789200  1
  C  C237  1  0.50147239  0.28723633  0.36806333  1
  C  C238  1  0.49996386  0.62186669  0.36749711  1
  C  C239  1  0.50238181  0.95236511  0.36700806  1
  C  C240  1  0.24981598  0.21246875  0.63520556  1
  C  C241  1  0.25201047  0.54619416  0.63355313  1
  C  C242  1  0.25091674  0.87895543  0.63266393  1
  C  C243  1  0.75022856  0.21263811  0.63206073  1
  C  C244  1  0.75283377  0.54616031  0.63111101  1
  C  C245  1  0.74809405  0.87913685  0.63359581  1
  C  C246  1  0.24952995  0.11957763  0.13171491  1
  C  C247  1  0.24918329  0.45276169  0.12848142  1
  C  C248  1  0.25018173  0.78693606  0.13323831  1
  C  C249  1  0.74815373  0.11914515  0.13441684  1
  C  C250  1  0.74897230  0.45513614  0.13113590  1
  C  C251  1  0.74605999  0.78679745  0.13444162  1
  C  C252  1  0.25215990  0.21271258  0.86572453  1
  C  C253  1  0.24841237  0.54545406  0.86681209  1
  C  C254  1  0.25110856  0.88068065  0.86930109  1
  C  C255  1  0.75189646  0.21307406  0.86939330  1
  C  C256  1  0.74540953  0.54631475  0.86704515  1
  C  C257  1  0.74939102  0.88058013  0.86544373  1
  C  C258  1  0.24921017  0.12197308  0.36694500  1
  C  C259  1  0.25031721  0.45283962  0.36932152  1
  C  C260  1  0.24972110  0.78633251  0.36790149  1
  C  C261  1  0.74650295  0.12137464  0.37113950  1
  C  C262  1  0.74907607  0.45198918  0.36870367  1
  C  C263  1  0.74890525  0.78684255  0.36801737  1
  C  C264  1  0.28531184  0.23881217  0.96059799  1
  C  C265  1  0.06231390  0.06948941  0.54041737  1
  C  C266  1  0.78488081  0.57256083  0.96065497  1
  C  C267  1  0.95625895  0.40687522  0.53569112  1
  C  C268  1  0.18473111  0.76406399  0.04728149  1
  C  C269  1  0.04854838  0.73814233  0.95774604  1
  C  C270  1  0.04747465  0.59439671  0.04032096  1
  C  C271  1  0.56514717  0.59638454  0.04731100  1
  C  C272  1  0.05048248  0.73763165  0.54044734  1
  C  C273  1  0.54012406  0.26108270  0.46194966  1
  C  C274  1  0.79244294  0.75831950  0.45874562  1
  C  C275  1  0.28362452  0.75791389  0.46212584  1
  C  C276  1  0.77383886  0.90524339  0.96133365  1
  C  C277  1  0.26613762  0.57210595  0.96494583  1
  C  C278  1  0.96890533  0.73951693  0.53557577  1
  C  C279  1  0.21752603  0.42423593  0.03269044  1
  C  C280  1  0.19686070  0.09030673  0.04205836  1
  C  C281  1  0.98172677  0.07176811  0.53168452  1
  C  C282  1  0.27089094  0.42210988  0.46414675  1
  C  C283  1  0.69296145  0.42612240  0.04262231  1
  C  C284  1  0.45911419  0.73880764  0.95906548  1
  C  C285  1  0.47578649  0.07209509  0.96107047  1
  C  C286  1  0.71766516  0.42303617  0.46316313  1
  C  C287  1  0.04136646  0.26165716  0.46128555  1
  C  C288  1  0.52391031  0.41027574  0.96502937  1
  C  C289  1  0.26470160  0.76123351  0.03456149  1
  C  C290  1  0.48486340  0.59365471  0.03566481  1
  C  C291  1  0.05672362  0.40839285  0.95653399  1
  C  C292  1  0.18577968  0.56870733  0.95381866  1
  C  C293  1  0.77528080  0.09031740  0.46624280  1
  C  C294  1  0.44627011  0.92572400  0.04281662  1
  C  C295  1  0.54347117  0.26672400  0.04285302  1
  C  C296  1  0.01563422  0.26048177  0.03599216  1
  C  C297  1  0.97419826  0.92819020  0.03750663  1
  C  C298  1  0.19166753  0.90723588  0.54643560  1
  C  C299  1  0.78682187  0.09360040  0.04179672  1
  C  C300  1  0.95971428  0.26182924  0.46184606  1
  C  C301  1  0.70330661  0.57241257  0.96112155  1
  C  C302  1  0.96524921  0.59455731  0.03948267  1
  C  C303  1  0.46158882  0.26667241  0.03926797  1
  C  C304  1  0.72616029  0.76120747  0.03817937  1
  C  C305  1  0.45853197  0.26221313  0.46191743  1
  C  C306  1  0.28821526  0.57197793  0.54027817  1
  C  C307  1  0.72774447  0.90368487  0.53698606  1
  C  C308  1  0.57000925  0.07443811  0.54525410  1
  C  C309  1  0.45628340  0.74160866  0.54162359  1
  C  C310  1  0.97105707  0.92633173  0.46264423  1
  C  C311  1  0.47084195  0.40826182  0.53798857  1
  N  N312  1  0.03563600  0.40735900  0.53527233  1
  N  N313  1  0.49197613  0.07737118  0.53584422  1
  N  N314  1  0.54526519  0.92224733  0.45657476  1
  N  N315  1  0.53872262  0.74099531  0.95826263  1
  N  N316  1  0.18959589  0.09687034  0.45354586  1
  N  N317  1  0.46536086  0.93238185  0.46098703  1
  N  N318  1  0.20905500  0.57317640  0.54012950  1
  N  N319  1  0.43913702  0.59389247  0.45341685  1
  N  N320  1  0.27064969  0.91021124  0.53842287  1
  N  N321  1  0.51644861  0.59215693  0.46145115  1
  N  N322  1  0.72880553  0.24525816  0.96254357  1
  N  N323  1  0.80669638  0.23399814  0.95767224  1
  N  N324  1  0.71114079  0.24143810  0.53922842  1
  N  N325  1  0.70745665  0.09401329  0.03987848  1
  N  N326  1  0.72982307  0.58106193  0.53926067  1
  N  N327  1  0.96961993  0.73934040  0.96341191  1
  N  N328  1  0.19371075  0.42457545  0.45826667  1
  N  N329  1  0.80615359  0.90484578  0.54479844  1
  N  N330  1  0.95888253  0.07214336  0.95699694  1
  N  N331  1  0.21229449  0.23782031  0.54093559  1
  N  N332  1  0.29213839  0.90608345  0.96039211  1
  N  N333  1  0.29621665  0.42640423  0.03840015  1
  N  N334  1  0.93731408  0.26412206  0.04446431  1
  N  N335  1  0.52325350  0.92308257  0.03404490  1
  N  N336  1  0.53362999  0.74274286  0.53616522  1
  N  N337  1  0.71505687  0.75703749  0.46280429  1
  N  N338  1  0.20400518  0.75969904  0.45827651  1
  N  N339  1  0.20613341  0.24120843  0.95511407  1
  N  N340  1  0.69685746  0.09362667  0.46019428  1
  N  N341  1  0.02420320  0.59484497  0.46424923  1
  N  N342  1  0.80468705  0.76187647  0.04567960  1
  N  N343  1  0.03545156  0.07363512  0.96022858  1
  N  N344  1  0.05318186  0.92823629  0.04544018  1
  N  N345  1  0.94821016  0.59774538  0.45948441  1
  N  N346  1  0.21331613  0.90695755  0.96347127  1
  N  N347  1  0.97823789  0.40922185  0.96291306  1
  N  N348  1  0.54826762  0.40661997  0.54129310  1
  N  N349  1  0.04824803  0.92710066  0.45901445  1
  N  N350  1  0.44687830  0.40751901  0.95901023  1
  N  N351  1  0.28907239  0.23815124  0.54147032  1
  N  N352  1  0.80766866  0.56908298  0.54351750  1
  N  N353  1  0.78726219  0.24096556  0.53858124  1
  N  N354  1  0.69502083  0.90444854  0.95620963  1
  N  N355  1  0.79721457  0.42468714  0.45810241  1
  N  N356  1  0.26654102  0.09539371  0.46190119  1
  N  N357  1  0.27566023  0.08999088  0.03806117  1
  N  N358  1  0.55466089  0.07255740  0.95609643  1
  N  N359  1  0.77153190  0.42593789  0.03681695  1
  N  N360  1  0.07404858  0.05384703  0.60196584  1
  N  N361  1  0.06413886  0.39002588  0.59226689  1
  N  N362  1  0.06875313  0.72161401  0.59869733  1
  N  N363  1  0.57935086  0.05667710  0.60455818  1
  N  N364  1  0.56478503  0.38803546  0.60160334  1
  N  N365  1  0.56272113  0.72508555  0.59358721  1
  N  N366  1  0.43311277  0.27902737  0.09765412  1
  N  N367  1  0.44636534  0.60878656  0.09110934  1
  N  N368  1  0.42976850  0.94353218  0.10183083  1
  N  N369  1  0.92844894  0.27928910  0.10509663  1
  N  N370  1  0.93995688  0.61073758  0.09792187  1
  N  N371  1  0.94138753  0.94368478  0.09252641  1
  N  N372  1  0.44109839  0.05631901  0.90592126  1
  N  N373  1  0.43372272  0.38939113  0.89802433  1
  N  N374  1  0.43547199  0.72266534  0.90169007  1
  N  N375  1  0.93881846  0.05553065  0.89795742  1
  N  N376  1  0.94157958  0.39072599  0.90904137  1
  N  N377  1  0.94153172  0.72335117  0.90650304  1
  N  N378  1  0.06405734  0.27810658  0.40163462  1
  N  N379  1  0.05644527  0.60869227  0.40762870  1
  N  N380  1  0.06544983  0.94518901  0.39867165  1
  N  N381  1  0.56580461  0.27591261  0.40527399  1
  N  N382  1  0.55493076  0.61162714  0.41037198  1
  N  N383  1  0.56742002  0.94660131  0.40180706  1
  N  N384  1  0.31341282  0.22310565  0.59991668  1
  N  N385  1  0.31629173  0.55593405  0.59747228  1
  N  N386  1  0.30719929  0.88955183  0.59079500  1
  N  N387  1  0.81319139  0.22276625  0.59589453  1
  N  N388  1  0.82211138  0.55670348  0.60314785  1
  N  N389  1  0.81699089  0.88944192  0.60470822  1
  N  N390  1  0.18050309  0.10821581  0.10011045  1
  N  N391  1  0.18803871  0.44046423  0.08854889  1
  N  N392  1  0.17677426  0.77941629  0.10700609  1
  N  N393  1  0.68506580  0.10959215  0.09813902  1
  N  N394  1  0.67890729  0.44341411  0.10125725  1
  N  N395  1  0.68832388  0.77610835  0.09240519  1
  N  N396  1  0.18568037  0.22234772  0.89754650  1
  N  N397  1  0.17572323  0.55295997  0.89444686  1
  N  N398  1  0.18900408  0.89133788  0.90647215  1
  N  N399  1  0.69437702  0.22242104  0.91075841  1
  N  N400  1  0.68013567  0.55593360  0.90149024  1
  N  N401  1  0.68148689  0.88944197  0.89631326  1
  N  N402  1  0.30457166  0.11202247  0.40974103  1
  N  N403  1  0.30799251  0.43924687  0.41111283  1
  N  N404  1  0.31230573  0.77444691  0.40581904  1
  N  N405  1  0.80637560  0.10757401  0.41140206  1
  N  N406  1  0.81619168  0.44351693  0.40018138  1
  N  N407  1  0.81584982  0.77622462  0.40148067  1
  N  N408  1  0.43567593  0.27828485  0.40215531  1
  N  N409  1  0.42965577  0.61059126  0.39441134  1
  N  N410  1  0.43959424  0.93884627  0.40186736  1
  N  N411  1  0.93384819  0.27724416  0.40540241  1
  N  N412  1  0.93042186  0.61317564  0.39944317  1
  N  N413  1  0.93787232  0.94310748  0.40804153  1
  N  N414  1  0.06516404  0.05800836  0.90336692  1
  N  N415  1  0.06985256  0.39113444  0.89774469  1
  N  N416  1  0.06893016  0.72206753  0.89873108  1
  N  N417  1  0.56870935  0.05605479  0.89670852  1
  N  N418  1  0.56053374  0.39425769  0.91123191  1
  N  N419  1  0.56461778  0.72139576  0.90207296  1
  N  N420  1  0.05479210  0.27431579  0.08968121  1
  N  N421  1  0.06987193  0.61060151  0.09937245  1
  N  N422  1  0.06942922  0.94397799  0.10465613  1
  N  N423  1  0.56326743  0.27921937  0.10316785  1
  N  N424  1  0.57492012  0.61193788  0.10677418  1
  N  N425  1  0.55693523  0.94070105  0.09021907  1
  N  N426  1  0.45215562  0.05815852  0.58797716  1
  N  N427  1  0.43716614  0.39187571  0.59264998  1
  N  N428  1  0.43465998  0.72420349  0.59944572  1
  N  N429  1  0.94586489  0.05812547  0.58520516  1
  N  N430  1  0.93533496  0.39021262  0.59353239  1
  N  N431  1  0.93891559  0.72374697  0.59356415  1
  N  N432  1  0.17899654  0.11224752  0.39449132  1
  N  N433  1  0.18103042  0.44421391  0.39761952  1
  N  N434  1  0.18358940  0.77687740  0.40025741  1
  N  N435  1  0.67848829  0.11352336  0.40153073  1
  N  N436  1  0.68749295  0.43989853  0.40755575  1
  N  N437  1  0.68760340  0.77499103  0.40498112  1
  N  N438  1  0.31458265  0.22308478  0.90455789  1
  N  N439  1  0.30430434  0.55718225  0.90933960  1
  N  N440  1  0.31584668  0.89038022  0.90335357  1
  N  N441  1  0.82100775  0.22382932  0.89760689  1
  N  N442  1  0.81011067  0.55688227  0.90385962  1
  N  N443  1  0.80904087  0.89085060  0.90596784  1
  N  N444  1  0.30937203  0.10975237  0.09265157  1
  N  N445  1  0.31635709  0.44408895  0.09731078  1
  N  N446  1  0.30488587  0.77581654  0.08960518  1
  N  N447  1  0.81334897  0.10899602  0.09942654  1
  N  N448  1  0.80724003  0.44588209  0.09049493  1
  N  N449  1  0.81521807  0.77751525  0.10553789  1
  N  N450  1  0.18685485  0.22178888  0.59879843  1
  N  N451  1  0.18827829  0.55720604  0.59852688  1
  N  N452  1  0.17946494  0.88949956  0.60530720  1
  N  N453  1  0.68650744  0.22431454  0.59724150  1
  N  N454  1  0.69538432  0.55676144  0.59000262  1
  N  N455  1  0.69013046  0.88885621  0.59143487  1
  Cl  Cl456  1  0.26938291  0.06235379  0.60732329  1
  Cl  Cl457  1  0.24932221  0.38863393  0.61666131  1
  Cl  Cl458  1  0.25219858  0.72290704  0.61377993  1
  Cl  Cl459  1  0.76239702  0.05635526  0.61116077  1
  Cl  Cl460  1  0.75201510  0.39100633  0.61842493  1
  Cl  Cl461  1  0.74944385  0.71723175  0.61997227  1
  Cl  Cl462  1  0.24283559  0.27545413  0.10386274  1
  Cl  Cl463  1  0.25854656  0.61145130  0.11591820  1
  Cl  Cl464  1  0.25036705  0.94982598  0.12037190  1
  Cl  Cl465  1  0.74465517  0.27601404  0.10743954  1
  Cl  Cl466  1  0.75677248  0.61347282  0.12787125  1
  Cl  Cl467  1  0.75245452  0.94452993  0.11373508  1
  Cl  Cl468  1  0.25541971  0.05737449  0.89346665  1
  Cl  Cl469  1  0.25138970  0.38657724  0.88413458  1
  Cl  Cl470  1  0.25398679  0.72032521  0.88121449  1
  Cl  Cl471  1  0.75556537  0.05388725  0.87941797  1
  Cl  Cl472  1  0.75529843  0.39222746  0.89650324  1
  Cl  Cl473  1  0.74943135  0.72181889  0.88778639  1
  Cl  Cl474  1  0.24997730  0.28420408  0.37113632  1
  Cl  Cl475  1  0.24376421  0.61375104  0.38318512  1
  Cl  Cl476  1  0.25688006  0.94264169  0.39460577  1
  Cl  Cl477  1  0.74970482  0.28306073  0.37479981  1
  Cl  Cl478  1  0.74018447  0.60494355  0.39782993  1
  Cl  Cl479  1  0.74948227  0.94625867  0.38438174  1
  Cl  Cl480  1  0.00074438  0.22086262  0.61511820  1
  Cl  Cl481  1  0.00349540  0.54689520  0.61884045  1
  Cl  Cl482  1  -0.00081842  0.88375231  0.62789949  1
  Cl  Cl483  1  0.49868219  0.21861322  0.61848799  1
  Cl  Cl484  1  0.51130871  0.56038276  0.60490198  1
  Cl  Cl485  1  0.49656188  0.89394633  0.59811900  1
  Cl  Cl486  1  -0.00219068  0.11574004  0.12136657  1
  Cl  Cl487  1  -0.00662458  0.43990393  0.10465663  1
  Cl  Cl488  1  -0.00264403  0.78472477  0.12318749  1
  Cl  Cl489  1  0.49385697  0.10888894  0.11794564  1
  Cl  Cl490  1  0.49764348  0.44879448  0.12156455  1
  Cl  Cl491  1  0.49963235  0.77388545  0.10431178  1
  Cl  Cl492  1  0.00343030  0.22361122  0.88530874  1
  Cl  Cl493  1  -0.00685069  0.54878554  0.88256335  1
  Cl  Cl494  1  0.00037143  0.89089921  0.89423165  1
  Cl  Cl495  1  0.50629427  0.22632192  0.88846848  1
  Cl  Cl496  1  0.49105356  0.55327601  0.87946772  1
  Cl  Cl497  1  0.49557476  0.88240492  0.87103047  1
  Cl  Cl498  1  -0.00875411  0.11532269  0.38572052  1
  Cl  Cl499  1  -0.00153678  0.44263716  0.37920934  1
  Cl  Cl500  1  -0.00002594  0.78349296  0.38594046  1
  Cl  Cl501  1  0.48717663  0.10536921  0.39693404  1
  Cl  Cl502  1  0.49850927  0.44568144  0.38686789  1
  Cl  Cl503  1  0.49920817  0.78340844  0.37674094  1
  Cl  Cl504  1  0.35961435  0.14453738  0.75428490  1
  Cl  Cl505  1  0.36068782  0.47976226  0.75036816  1
  Cl  Cl506  1  0.35860976  0.81111685  0.74857236  1
  Cl  Cl507  1  0.86140584  0.14642225  0.75641272  1
  Cl  Cl508  1  0.86253640  0.47849479  0.74785091  1
  Cl  Cl509  1  0.86188891  0.81401733  0.74884402  1
  Cl  Cl510  1  0.13564456  0.18749218  0.24982465  1
  Cl  Cl511  1  0.13673112  0.51974331  0.24937509  1
  Cl  Cl512  1  0.13512296  0.85515963  0.24858213  1
  Cl  Cl513  1  0.63497037  0.18692500  0.25101448  1
  Cl  Cl514  1  0.63592057  0.52164363  0.24818255  1
  Cl  Cl515  1  0.63767308  0.85520232  0.25345892  1
  Cl  Cl516  1  0.14026714  0.14354567  0.75247243  1
  Cl  Cl517  1  0.13741109  0.47840062  0.75400250  1
  Cl  Cl518  1  0.14184544  0.81013225  0.74948872  1
  Cl  Cl519  1  0.63845170  0.14372399  0.74964295  1
  Cl  Cl520  1  0.64326485  0.47750461  0.74729415  1
  Cl  Cl521  1  0.63743543  0.81254698  0.75395817  1
  Cl  Cl522  1  0.35385696  0.18817523  0.24836740  1
  Cl  Cl523  1  0.35976132  0.52010809  0.25151303  1
  Cl  Cl524  1  0.35515322  0.85389736  0.25157003  1
  Cl  Cl525  1  0.85919084  0.18707492  0.24846912  1
  Cl  Cl526  1  0.85640277  0.52206415  0.25703660  1
  Cl  Cl527  1  0.85908532  0.85508169  0.24769806  1
  Cl  Cl528  1  0.11385397  0.31174900  0.75451353  1
  Cl  Cl529  1  0.11077083  0.64489292  0.74933196  1
  Cl  Cl530  1  0.11729076  0.97699166  0.74551772  1
  Cl  Cl531  1  0.61202273  0.31298142  0.74825681  1
  Cl  Cl532  1  0.61367096  0.64470558  0.75135081  1
  Cl  Cl533  1  0.60935808  0.97708378  0.74743966  1
  Cl  Cl534  1  0.38573220  0.02001114  0.25122338  1
  Cl  Cl535  1  0.38870732  0.35280749  0.24731120  1
  Cl  Cl536  1  0.38624414  0.68792565  0.25479812  1
  Cl  Cl537  1  0.89175898  0.01831224  0.24889980  1
  Cl  Cl538  1  0.88396149  0.35495426  0.24554251  1
  Cl  Cl539  1  0.88744295  0.68774300  0.25335130  1
  Cl  Cl540  1  0.38776124  0.31187850  0.75538709  1
  Cl  Cl541  1  0.39266556  0.64403249  0.74597419  1
  Cl  Cl542  1  0.38849960  0.97897533  0.74615166  1
  Cl  Cl543  1  0.89367395  0.31136686  0.75094455  1
  Cl  Cl544  1  0.88833558  0.64471184  0.75060919  1
  Cl  Cl545  1  0.89241195  0.97950844  0.74943578  1
  Cl  Cl546  1  0.11413647  0.02269838  0.25273873  1
  Cl  Cl547  1  0.10561629  0.35588086  0.24796791  1
  Cl  Cl548  1  0.11088416  0.68949970  0.24754767  1
  Cl  Cl549  1  0.60477547  0.02306654  0.25277724  1
  Cl  Cl550  1  0.61277383  0.35557520  0.24725472  1
  Cl  Cl551  1  0.60800823  0.68931333  0.24805990  1
