# generated using pymatgen
data_H8PbC4(N3Cl2)2
_symmetry_space_group_name_H-M   'P 1'
_cell_length_a   16.62971623
_cell_length_b   22.51707907
_cell_length_c   21.59539230
_cell_angle_alpha   89.99843342
_cell_angle_beta   89.99137742
_cell_angle_gamma   90.00280652
_symmetry_Int_Tables_number   1
_chemical_formula_structural   H8PbC4(N3Cl2)2
_chemical_formula_sum   'H192 Pb24 C96 N144 Cl96'
_cell_volume   8086.45145398
_cell_formula_units_Z   24
loop_
 _symmetry_equiv_pos_site_id
 _symmetry_equiv_pos_as_xyz
  1  'x, y, z'
loop_
 _atom_site_type_symbol
 _atom_site_label
 _atom_site_symmetry_multiplicity
 _atom_site_fract_x
 _atom_site_fract_y
 _atom_site_fract_z
 _atom_site_occupancy
  H  H0  1  -0.00710094  0.02422326  0.67516510  1
  H  H1  1  0.00827355  0.36290974  0.67390618  1
  H  H2  1  0.01468738  0.69271897  0.67770504  1
  H  H3  1  0.49998930  0.02999565  0.68319902  1
  H  H4  1  0.49147424  0.36523645  0.68109666  1
  H  H5  1  0.49515972  0.69793102  0.67859811  1
  H  H6  1  -0.00896823  0.30367070  0.18127504  1
  H  H7  1  -0.00846901  0.63982230  0.17957131  1
  H  H8  1  0.00411701  0.97161541  0.17515547  1
  H  H9  1  0.51149262  0.30490046  0.18085112  1
  H  H10  1  0.51313381  0.63513354  0.17622727  1
  H  H11  1  0.49126302  0.97164973  0.17584166  1
  H  H12  1  0.01235474  0.02572000  0.82474015  1
  H  H13  1  -0.01304126  0.36456320  0.82068112  1
  H  H14  1  0.01280162  0.69708521  0.82400084  1
  H  H15  1  0.49033566  0.02524309  0.81932166  1
  H  H16  1  0.51378959  0.36056057  0.82417589  1
  H  H17  1  0.49067515  0.69586387  0.82123573  1
  H  H18  1  0.00507599  0.30134866  0.32668052  1
  H  H19  1  0.01653646  0.63520315  0.32020752  1
  H  H20  1  -0.00225594  0.97069156  0.32161019  1
  H  H21  1  0.50559705  0.30090647  0.31923041  1
  H  H22  1  0.49164327  0.64058775  0.32292254  1
  H  H23  1  0.49606394  0.96880258  0.31408136  1
  H  H24  1  0.24597753  0.19321641  0.68187597  1
  H  H25  1  0.26424677  0.53501787  0.68067231  1
  H  H26  1  0.26466210  0.86388027  0.67676056  1
  H  H27  1  0.74282797  0.19658252  0.67632888  1
  H  H28  1  0.73180220  0.53270421  0.67462133  1
  H  H29  1  0.73523690  0.85995036  0.67679636  1
  H  H30  1  0.23543944  0.13968886  0.17598480  1
  H  H31  1  0.25117654  0.47633471  0.17550437  1
  H  H32  1  0.24653653  0.80312557  0.17785694  1
  H  H33  1  0.76874601  0.13421316  0.17305423  1
  H  H34  1  0.74953147  0.46964923  0.18499268  1
  H  H35  1  0.75342079  0.80674750  0.17931342  1
  H  H36  1  0.25520311  0.19758166  0.82014911  1
  H  H37  1  0.24583247  0.52343024  0.82225015  1
  H  H38  1  0.24472825  0.86301377  0.82844021  1
  H  H39  1  0.76028789  0.19259445  0.82270661  1
  H  H40  1  0.74154322  0.53336118  0.81868922  1
  H  H41  1  0.75998055  0.85981976  0.82863998  1
  H  H42  1  0.24993222  0.13707984  0.31996381  1
  H  H43  1  0.26320142  0.46661265  0.31547296  1
  H  H44  1  0.23463895  0.80470792  0.32105062  1
  H  H45  1  0.75501704  0.13567693  0.31971816  1
  H  H46  1  0.73978260  0.47179292  0.32723236  1
  H  H47  1  0.75423531  0.80350901  0.32242349  1
  H  H48  1  0.13284840  0.04808726  0.62584566  1
  H  H49  1  0.11295894  0.39074029  0.58894173  1
  H  H50  1  0.11747675  0.72676656  0.59368506  1
  H  H51  1  0.63015889  0.05307439  0.61496734  1
  H  H52  1  0.61811008  0.39259681  0.61472715  1
  H  H53  1  0.62681460  0.71780158  0.61321583  1
  H  H54  1  0.38100640  0.28338691  0.11499673  1
  H  H55  1  0.37381447  0.61768689  0.12579838  1
  H  H56  1  0.38464328  0.93958600  0.09361657  1
  H  H57  1  0.88435616  0.27329208  0.10011724  1
  H  H58  1  0.87124362  0.61520504  0.10664365  1
  H  H59  1  0.88157188  0.94407967  0.10532442  1
  H  H60  1  0.37347111  0.05365262  0.89730809  1
  H  H61  1  0.37432555  0.38498264  0.87711089  1
  H  H62  1  0.38669039  0.72411955  0.90395888  1
  H  H63  1  0.87380775  0.04855837  0.87776929  1
  H  H64  1  0.88155536  0.39209813  0.90649022  1
  H  H65  1  0.88657341  0.72042738  0.89330452  1
  H  H66  1  0.11352272  0.27366300  0.40713247  1
  H  H67  1  0.12589309  0.60713636  0.40394174  1
  H  H68  1  0.12299376  0.94546864  0.39275131  1
  H  H69  1  0.61074783  0.27458979  0.40242041  1
  H  H70  1  0.62988618  0.61407467  0.37497813  1
  H  H71  1  0.62289832  0.94700856  0.38148269  1
  H  H72  1  0.37775702  0.21772710  0.61611812  1
  H  H73  1  0.36916779  0.55972812  0.59328365  1
  H  H74  1  0.37048849  0.89300648  0.59295631  1
  H  H75  1  0.88169032  0.21830004  0.62228952  1
  H  H76  1  0.87128328  0.54773415  0.62434368  1
  H  H77  1  0.87529977  0.88351766  0.62448687  1
  H  H78  1  0.12952331  0.10716295  0.09446382  1
  H  H79  1  0.12560763  0.44727581  0.10802885  1
  H  H80  1  0.11332021  0.78500539  0.11571566  1
  H  H81  1  0.62728971  0.11896722  0.12555384  1
  H  H82  1  0.62450084  0.44959966  0.11578673  1
  H  H83  1  0.62138127  0.77980206  0.11577945  1
  H  H84  1  0.11927860  0.21604187  0.87952402  1
  H  H85  1  0.12603720  0.55307981  0.89443634  1
  H  H86  1  0.12409953  0.88704190  0.90016834  1
  H  H87  1  0.62135388  0.21653845  0.87648234  1
  H  H88  1  0.62763483  0.55836884  0.89718093  1
  H  H89  1  0.62072269  0.88320916  0.88103423  1
  H  H90  1  0.36137521  0.11144094  0.39845408  1
  H  H91  1  0.38250940  0.44638161  0.39064760  1
  H  H92  1  0.37459290  0.78266362  0.37172415  1
  H  H93  1  0.85978622  0.10812263  0.40255470  1
  H  H94  1  0.88136521  0.45019174  0.37574869  1
  H  H95  1  0.87102527  0.77487759  0.39849593  1
  H  H96  1  0.36531168  0.28435463  0.37083979  1
  H  H97  1  0.38409576  0.60977121  0.40530786  1
  H  H98  1  0.37352645  0.94785481  0.38542452  1
  H  H99  1  0.86828819  0.28242607  0.37970697  1
  H  H100  1  0.87943334  0.61432757  0.37995911  1
  H  H101  1  0.87455896  0.94223824  0.39376896  1
  H  H102  1  0.11913470  0.05504340  0.90806033  1
  H  H103  1  0.12624686  0.38335803  0.87638114  1
  H  H104  1  0.13553799  0.72389845  0.89457037  1
  H  H105  1  0.62125079  0.05020857  0.88410986  1
  H  H106  1  0.61884887  0.39300620  0.90799309  1
  H  H107  1  0.63126498  0.71217169  0.87198336  1
  H  H108  1  0.13003051  0.28855465  0.12762446  1
  H  H109  1  0.12054472  0.61596753  0.11595959  1
  H  H110  1  0.13057322  0.94386887  0.10674182  1
  H  H111  1  0.62971816  0.27512221  0.10655310  1
  H  H112  1  0.61827237  0.60826532  0.09223318  1
  H  H113  1  0.63028388  0.95209402  0.12128570  1
  H  H114  1  0.38196978  0.05493673  0.60695272  1
  H  H115  1  0.37129705  0.38324864  0.60571238  1
  H  H116  1  0.37958167  0.72587963  0.60128454  1
  H  H117  1  0.88845956  0.05777655  0.59210688  1
  H  H118  1  0.86868477  0.38360475  0.62015943  1
  H  H119  1  0.87347850  0.71323583  0.62830886  1
  H  H120  1  0.11367430  0.11773523  0.37797180  1
  H  H121  1  0.13350173  0.44208917  0.38168771  1
  H  H122  1  0.12973266  0.77416707  0.40571178  1
  H  H123  1  0.61467451  0.11871278  0.37084799  1
  H  H124  1  0.63780962  0.44020908  0.41238753  1
  H  H125  1  0.62338869  0.77806974  0.38429111  1
  H  H126  1  0.36732657  0.22357517  0.89779087  1
  H  H127  1  0.37466629  0.55149626  0.88661286  1
  H  H128  1  0.37281096  0.88674207  0.89123742  1
  H  H129  1  0.86555255  0.22060949  0.90752609  1
  H  H130  1  0.87536958  0.55232057  0.88195326  1
  H  H131  1  0.86621071  0.89166920  0.91003978  1
  H  H132  1  0.37469018  0.11848001  0.12178505  1
  H  H133  1  0.37412414  0.44614223  0.10675139  1
  H  H134  1  0.36180233  0.77986017  0.10187705  1
  H  H135  1  0.86962203  0.10311982  0.08741565  1
  H  H136  1  0.87422083  0.44842011  0.11524348  1
  H  H137  1  0.86919381  0.77871143  0.10092371  1
  H  H138  1  0.12986742  0.22204030  0.60430739  1
  H  H139  1  0.12444366  0.54915482  0.62463980  1
  H  H140  1  0.12533353  0.88657109  0.62482876  1
  H  H141  1  0.63566025  0.22648924  0.59393367  1
  H  H142  1  0.62747590  0.56085533  0.58996442  1
  H  H143  1  0.63133327  0.89014908  0.59111175  1
  H  H144  1  0.85776970  0.58178859  0.50970917  1
  H  H145  1  0.08570119  0.58714190  0.00399285  1
  H  H146  1  0.04343548  0.08053236  1.00815255  1
  H  H147  1  0.11962814  0.08382895  0.51219681  1
  H  H148  1  0.78894621  0.07965428  0.50687463  1
  H  H149  1  0.30286490  0.75309412  -0.00839392  1
  H  H150  1  0.11532113  0.25577738  0.01377818  1
  H  H151  1  0.29710066  0.08203944  0.50614486  1
  H  H152  1  0.96359479  0.08270466  0.49337582  1
  H  H153  1  0.20582146  0.08892619  -0.00537162  1
  H  H154  1  0.29038962  0.58754068  0.49605457  1
  H  H155  1  0.45842026  0.58065878  0.50426146  1
  H  H156  1  0.58973924  0.74513607  0.50686814  1
  H  H157  1  0.88747031  0.74956251  0.51717311  1
  H  H158  1  0.71731256  0.41593976  0.51191424  1
  H  H159  1  0.70979634  0.25047609  0.49253056  1
  H  H160  1  0.82916858  0.42644840  0.00243639  1
  H  H161  1  0.35818743  0.74945617  0.48396330  1
  H  H162  1  0.58156094  0.92482195  0.49488025  1
  H  H163  1  0.38867663  0.58694255  1.01047970  1
  H  H164  1  0.29430874  0.92063033  0.49384439  1
  H  H165  1  0.42148263  0.92512457  0.49781007  1
  H  H166  1  0.88817855  0.41587607  0.50980086  1
  H  H167  1  0.61774194  0.74216375  -0.01416873  1
  H  H168  1  0.45793548  0.75232673  1.00841135  1
  H  H169  1  0.53902789  0.24576710  0.50701166  1
  H  H170  1  0.30494524  0.25529911  1.00511676  1
  H  H171  1  0.34760603  0.06829509  0.02475015  1
  H  H172  1  0.57202228  0.24532084  0.00047134  1
  H  H173  1  0.04042998  0.74894027  0.49450478  1
  H  H174  1  0.66896911  0.42723402  0.00253332  1
  H  H175  1  0.56232321  0.44115570  0.52063257  1
  H  H176  1  0.53970041  0.42096980  1.00582932  1
  H  H177  1  0.71222486  0.91450040  0.49307166  1
  H  H178  1  0.95405484  0.24661615  -0.00521506  1
  H  H179  1  0.32763706  0.42945363  0.50226984  1
  H  H180  1  0.64108086  0.91579179  0.99115914  1
  H  H181  1  0.88573451  0.25146419  0.49567682  1
  H  H182  1  0.92002308  0.58647835  -0.00166943  1
  H  H183  1  0.37976323  0.25118003  0.48335725  1
  H  H184  1  0.03423770  0.40577303  0.48835169  1
  H  H185  1  0.63688726  0.08667324  1.01054666  1
  H  H186  1  0.95950215  0.41660608  1.00509248  1
  H  H187  1  0.43597280  0.38138630  0.50132876  1
  H  H188  1  0.78766967  0.24506221  1.00678921  1
  H  H189  1  0.20528892  0.75297859  0.50549514  1
  H  H190  1  0.62883012  0.08769942  0.48423664  1
  H  H191  1  0.17539932  0.43006543  0.49171614  1
  Pb  Pb192  1  0.25216532  0.04711497  0.75699955  1
  Pb  Pb193  1  0.24919024  0.38001989  0.73558954  1
  Pb  Pb194  1  0.24932785  0.72018633  0.74893384  1
  Pb  Pb195  1  0.75240810  0.04747584  0.74640923  1
  Pb  Pb196  1  0.74907651  0.38462827  0.75873035  1
  Pb  Pb197  1  0.75351623  0.71365397  0.75188893  1
  Pb  Pb198  1  0.24596007  0.28543987  0.25351640  1
  Pb  Pb199  1  0.24690151  0.61871356  0.26034184  1
  Pb  Pb200  1  0.24511437  0.94879766  0.25020190  1
  Pb  Pb201  1  0.74135386  0.28111140  0.25104958  1
  Pb  Pb202  1  0.74884375  0.61843549  0.24237991  1
  Pb  Pb203  1  0.74763976  0.95256398  0.25338463  1
  Pb  Pb204  1  -0.00098287  0.21552222  0.75125910  1
  Pb  Pb205  1  0.00269447  0.54724709  0.75535885  1
  Pb  Pb206  1  -0.00151317  0.88096228  0.76068419  1
  Pb  Pb207  1  0.50136163  0.21498357  0.74798809  1
  Pb  Pb208  1  0.49654514  0.55085074  0.74326357  1
  Pb  Pb209  1  0.50460555  0.88096717  0.73801202  1
  Pb  Pb210  1  -0.00742127  0.11537003  0.24815722  1
  Pb  Pb211  1  -0.00181481  0.45023893  0.24802227  1
  Pb  Pb212  1  -0.00703191  0.78415405  0.25619751  1
  Pb  Pb213  1  0.49113360  0.11666520  0.25248758  1
  Pb  Pb214  1  0.49950077  0.45334056  0.25569415  1
  Pb  Pb215  1  0.49878155  0.78457197  0.24998824  1
  C  C216  1  0.00474441  0.04214599  0.62932059  1
  C  C217  1  -0.00360155  0.37827659  0.62696358  1
  C  C218  1  0.00186490  0.70931282  0.63147835  1
  C  C219  1  0.50441658  0.04576324  0.63577314  1
  C  C220  1  0.49356249  0.38003707  0.63323854  1
  C  C221  1  0.50059231  0.71330494  0.63120569  1
  C  C222  1  0.00238943  0.28866769  0.13423221  1
  C  C223  1  -0.00546679  0.62374385  0.13216021  1
  C  C224  1  0.00567981  0.95359627  0.12877173  1
  C  C225  1  0.50746708  0.28872905  0.13367570  1
  C  C226  1  0.50074281  0.62044649  0.12940958  1
  C  C227  1  0.50198479  0.95505475  0.12958630  1
  C  C228  1  0.00202543  0.04192148  0.87123937  1
  C  C229  1  -0.00229592  0.37886921  0.86796901  1
  C  C230  1  0.01153655  0.71361034  0.87098713  1
  C  C231  1  0.49473367  0.04234050  0.86615177  1
  C  C232  1  0.50295319  0.37828092  0.87017135  1
  C  C233  1  0.50354245  0.71066639  0.86810528  1
  C  C234  1  -0.00527655  0.28536824  0.37330052  1
  C  C235  1  0.00770278  0.61919805  0.36711752  1
  C  C236  1  -0.00161285  0.95395009  0.36871715  1
  C  C237  1  0.49321105  0.28697057  0.36646358  1
  C  C238  1  0.50165376  0.62281498  0.36879409  1
  C  C239  1  0.49769390  0.95513810  0.36228451  1
  C  C240  1  0.25138156  0.21026127  0.63501725  1
  C  C241  1  0.25300540  0.54895727  0.63337761  1
  C  C242  1  0.25375508  0.87990264  0.63028645  1
  C  C243  1  0.75298171  0.21241023  0.62951056  1
  C  C244  1  0.74443165  0.54757177  0.62794019  1
  C  C245  1  0.74683925  0.87681008  0.63058701  1
  C  C246  1  0.24680630  0.12243130  0.12970974  1
  C  C247  1  0.25007562  0.45753319  0.12953221  1
  C  C248  1  0.24075568  0.78965947  0.12990833  1
  C  C249  1  0.75428095  0.11914860  0.12678545  1
  C  C250  1  0.74947143  0.45581126  0.13681378  1
  C  C251  1  0.74787484  0.78960550  0.13250559  1
  C  C252  1  0.24759490  0.21236477  0.86756662  1
  C  C253  1  0.24914998  0.54218126  0.86815828  1
  C  C254  1  0.24739234  0.87920693  0.87588722  1
  C  C255  1  0.74928696  0.20894001  0.86920438  1
  C  C256  1  0.74856921  0.54763908  0.86618177  1
  C  C257  1  0.74833025  0.87718341  0.87457636  1
  C  C258  1  0.24181168  0.12236928  0.36733384  1
  C  C259  1  0.25895820  0.45318747  0.36369577  1
  C  C260  1  0.24634113  0.78883190  0.36784471  1
  C  C261  1  0.74244101  0.12093728  0.36664025  1
  C  C262  1  0.75295561  0.45570316  0.37357475  1
  C  C263  1  0.74980298  0.78640258  0.36894938  1
  C  C264  1  0.81959567  0.42941087  0.45817698  1
  C  C265  1  0.76793055  0.08956582  0.02967444  1
  C  C266  1  0.98383376  0.25961910  0.03754172  1
  C  C267  1  0.18378876  0.09759287  0.45595696  1
  C  C268  1  0.68790494  0.09455520  0.04129890  1
  C  C269  1  0.06879817  0.07372115  0.54621635  1
  C  C270  1  0.70806727  0.43445812  0.04207359  1
  C  C271  1  0.54131660  0.93298932  0.45620093  1
  C  C272  1  0.93533330  0.25919485  0.46148912  1
  C  C273  1  0.48721230  0.73920959  0.96547042  1
  C  C274  1  0.67858517  0.09610450  0.45257891  1
  C  C275  1  0.51861432  0.59141776  0.03281936  1
  C  C276  1  0.55912180  0.92762666  0.04312604  1
  C  C277  1  0.95919138  0.59663468  0.03736634  1
  C  C278  1  0.53650078  0.25851023  0.04040363  1
  C  C279  1  0.56777588  0.73459615  0.95410478  1
  C  C280  1  0.04140554  0.59696944  0.04022375  1
  C  C281  1  0.79013691  0.43400518  0.04199459  1
  C  C282  1  0.45921395  0.93331940  0.45762913  1
  C  C283  1  0.72304334  0.57622321  0.96111523  1
  C  C284  1  0.42941993  0.26072126  0.45196013  1
  C  C285  1  0.21256680  0.90879376  0.96784090  1
  C  C286  1  0.80790620  0.57365015  0.54156918  1
  C  C287  1  0.04721546  0.74443095  0.96301097  1
  C  C288  1  0.19030328  0.91209733  0.54612889  1
  C  C289  1  0.81489588  0.24085328  0.54366522  1
  C  C290  1  0.76806232  0.91279080  0.96927385  1
  C  C291  1  0.93947424  0.07373664  0.95591671  1
  C  C292  1  0.93672007  0.74027434  0.54895616  1
  C  C293  1  0.97005153  0.91983786  0.03805729  1
  C  C294  1  0.06476655  0.26458846  0.04716331  1
  C  C295  1  0.26469825  0.09429154  0.46418505  1
  C  C296  1  0.29276749  0.90864843  0.96508717  1
  C  C297  1  0.29388566  0.43199090  0.45939008  1
  C  C298  1  0.30975974  0.75912012  0.45154574  1
  C  C299  1  0.19092604  0.23885279  0.95581290  1
  C  C300  1  0.26857041  0.76373939  0.03301681  1
  C  C301  1  0.21638128  0.57647200  0.95983926  1
  C  C302  1  0.56334390  0.58813173  0.45255659  1
  C  C303  1  0.27171656  0.24207728  0.96397731  1
  C  C304  1  0.75931392  0.09226901  0.46386111  1
  C  C305  1  0.01617552  0.25574551  0.46916960  1
  C  C306  1  0.70237291  0.75618683  0.45851724  1
  C  C307  1  0.18741075  0.76607579  0.03937080  1
  C  C308  1  0.28586520  0.42228130  0.03953642  1
  C  C309  1  0.72742512  0.57799526  0.53139240  1
  C  C310  1  0.43824465  0.59491092  0.04255435  1
  C  C311  1  0.51020052  0.25804191  0.46356715  1
  N  N312  1  0.54155847  0.07235078  0.95602581  1
  N  N313  1  0.46851197  0.74017236  0.53607693  1
  N  N314  1  0.20853201  0.42271700  0.03854552  1
  N  N315  1  0.77595286  0.75824131  0.03849550  1
  N  N316  1  0.78002575  0.75533462  0.46424645  1
  N  N317  1  0.69044709  0.90836843  0.95911037  1
  N  N318  1  0.80031746  0.57402882  0.95737441  1
  N  N319  1  0.21446929  0.42916571  0.45504153  1
  N  N320  1  0.18910976  0.57050761  0.54674606  1
  N  N321  1  0.51654875  0.41354508  0.96226141  1
  N  N322  1  0.26612298  0.57368458  0.53788134  1
  N  N323  1  0.30657009  0.09643245  0.04472071  1
  N  N324  1  0.47245662  0.07376233  0.54120909  1
  N  N325  1  0.54854134  0.07298578  0.54426783  1
  N  N326  1  0.93555761  0.40140340  0.54183661  1
  N  N327  1  0.96157834  0.92413806  0.46170810  1
  N  N328  1  0.01280971  0.41057580  0.53312496  1
  N  N329  1  0.22233919  0.24050843  0.54067154  1
  N  N330  1  0.68646895  0.23814716  0.95376329  1
  N  N331  1  0.23127930  0.75636814  0.46218361  1
  N  N332  1  0.46537619  0.07216764  0.96077939  1
  N  N333  1  0.26818001  0.91278965  0.53621370  1
  N  N334  1  0.81133653  0.90721028  0.54727128  1
  N  N335  1  0.99017675  0.07719323  0.53616396  1
  N  N336  1  0.95296326  0.59129284  0.45503600  1
  N  N337  1  0.06080877  0.40339645  0.95397838  1
  N  N338  1  0.29408745  0.57601013  0.95832080  1
  N  N339  1  0.70037087  0.75802885  0.04370450  1
  N  N340  1  0.73667852  0.24405649  0.53510243  1
  N  N341  1  0.73443063  0.90923255  0.53737040  1
  N  N342  1  0.45568935  0.40483034  0.53937039  1
  N  N343  1  0.48260743  0.92245058  0.03333501  1
  N  N344  1  0.76372184  0.24036430  0.96276251  1
  N  N345  1  0.53876457  0.40394266  0.54140917  1
  N  N346  1  0.74179564  0.42490449  0.46858164  1
  N  N347  1  0.54676625  0.73809396  0.54150719  1
  N  N348  1  0.43957059  0.41067493  0.95313381  1
  N  N349  1  0.01494559  0.74483343  0.53800765  1
  N  N350  1  0.01743911  0.07449538  0.96517011  1
  N  N351  1  0.03779094  0.92500308  0.46134922  1
  N  N352  1  0.98392634  0.40635724  0.96280351  1
  N  N353  1  0.45734446  0.26127578  0.04266523  1
  N  N354  1  0.04719527  0.91978267  0.03743294  1
  N  N355  1  0.48536144  0.58841849  0.46190883  1
  N  N356  1  0.96989865  0.74337028  0.96382589  1
  N  N357  1  0.22814585  0.08348399  0.03877539  1
  N  N358  1  0.29815550  0.23820977  0.54438701  1
  N  N359  1  0.02830838  0.58883798  0.46287772  1
  N  N360  1  0.07743139  0.05396168  0.60494104  1
  N  N361  1  0.05088399  0.38708196  0.58300643  1
  N  N362  1  0.05537757  0.72196059  0.58798575  1
  N  N363  1  0.56997133  0.05600341  0.60271647  1
  N  N364  1  0.55773312  0.39729515  0.60216105  1
  N  N365  1  0.56703624  0.72063894  0.59864086  1
  N  N366  1  0.44116859  0.27989748  0.10097311  1
  N  N367  1  0.42866432  0.61280443  0.10374661  1
  N  N368  1  0.44708521  0.94002346  0.08840703  1
  N  N369  1  0.94622978  0.27455325  0.09218469  1
  N  N370  1  0.93168722  0.61300933  0.09483540  1
  N  N371  1  0.94162260  0.94031514  0.09295557  1
  N  N372  1  0.43498363  0.05351005  0.90511032  1
  N  N373  1  0.43173064  0.39024124  0.89528795  1
  N  N374  1  0.44859710  0.72403904  0.91141463  1
  N  N375  1  0.92979740  0.05457821  0.89742694  1
  N  N376  1  0.94354612  0.38990224  0.91136978  1
  N  N377  1  0.94731475  0.72394105  0.90534045  1
  N  N378  1  0.05178095  0.27144455  0.41607971  1
  N  N379  1  0.06390732  0.60595562  0.40842233  1
  N  N380  1  0.06218354  0.94351471  0.40386748  1
  N  N381  1  0.54859101  0.27479585  0.40994882  1
  N  N382  1  0.57353642  0.60869866  0.39464413  1
  N  N383  1  0.56376743  0.94637748  0.39664931  1
  N  N384  1  0.31793052  0.21942322  0.60270927  1
  N  N385  1  0.30675405  0.56196136  0.59032385  1
  N  N386  1  0.30854217  0.89083413  0.58727836  1
  N  N387  1  0.82519038  0.22280831  0.60261222  1
  N  N388  1  0.81669964  0.55484008  0.60251269  1
  N  N389  1  0.81831902  0.88889191  0.60590896  1
  N  N390  1  0.19158985  0.11117580  0.08700025  1
  N  N391  1  0.18598343  0.44503540  0.09586383  1
  N  N392  1  0.17127538  0.78149296  0.09803781  1
  N  N393  1  0.68123130  0.11260647  0.10259786  1
  N  N394  1  0.68419957  0.44773672  0.10137732  1
  N  N395  1  0.68110577  0.77694687  0.10192365  1
  N  N396  1  0.17651713  0.22111286  0.89748679  1
  N  N397  1  0.18687252  0.55645094  0.90519898  1
  N  N398  1  0.18394541  0.89113632  0.91333903  1
  N  N399  1  0.67846634  0.22102274  0.89470663  1
  N  N400  1  0.68886845  0.56018350  0.90660025  1
  N  N401  1  0.67764948  0.88566424  0.90081741  1
  N  N402  1  0.29982007  0.10989698  0.40776186  1
  N  N403  1  0.32196384  0.44485839  0.40234685  1
  N  N404  1  0.31901557  0.77768706  0.39267956  1
  N  N405  1  0.79763354  0.10792133  0.40985868  1
  N  N406  1  0.82688468  0.44686844  0.39840022  1
  N  N407  1  0.80963279  0.77473645  0.40722612  1
  N  N408  1  0.42058455  0.27871079  0.39177743  1
  N  N409  1  0.44628927  0.61164636  0.41124404  1
  N  N410  1  0.43352559  0.94701245  0.39897376  1
  N  N411  1  0.92361992  0.27715909  0.40039125  1
  N  N412  1  0.93843869  0.60970368  0.39578150  1
  N  N413  1  0.93559127  0.94204974  0.40435910  1
  N  N414  1  0.05703524  0.05261681  0.91401017  1
  N  N415  1  0.06890725  0.38719103  0.89481506  1
  N  N416  1  0.07559165  0.72654774  0.90693786  1
  N  N417  1  0.56121229  0.05442702  0.89752674  1
  N  N418  1  0.55693981  0.39140230  0.91306893  1
  N  N419  1  0.57630852  0.71739196  0.89359584  1
  N  N420  1  0.07433369  0.28226866  0.10736039  1
  N  N421  1  0.06168960  0.61369865  0.09959533  1
  N  N422  1  0.06984166  0.94089307  0.09520543  1
  N  N423  1  0.56889731  0.27535884  0.09588271  1
  N  N424  1  0.55624197  0.60689787  0.08507642  1
  N  N425  1  0.57360315  0.94700260  0.10211066  1
  N  N426  1  0.44372616  0.05705272  0.59776681  1
  N  N427  1  0.43177318  0.38125279  0.59466927  1
  N  N428  1  0.44072674  0.72576144  0.59243475  1
  N  N429  1  0.95069247  0.05458504  0.58629141  1
  N  N430  1  0.92541900  0.38951531  0.60176035  1
  N  N431  1  0.92870248  0.71986407  0.60734030  1
  N  N432  1  0.17051780  0.11430760  0.39692192  1
  N  N433  1  0.19295296  0.44600049  0.39682468  1
  N  N434  1  0.19218077  0.77808824  0.41136921  1
  N  N435  1  0.66982487  0.11355628  0.39221082  1
  N  N436  1  0.70005125  0.44346504  0.41724538  1
  N  N437  1  0.68203375  0.77459934  0.40056858  1
  N  N438  1  0.30598790  0.22497232  0.90770272  1
  N  N439  1  0.31469499  0.55442706  0.90018781  1
  N  N440  1  0.31477442  0.89076098  0.90899400  1
  N  N441  1  0.80319157  0.21969514  0.91273915  1
  N  N442  1  0.81624493  0.55600700  0.89685801  1
  N  N443  1  0.80427303  0.89339763  0.91721043  1
  N  N444  1  0.31728819  0.10917515  0.10518536  1
  N  N445  1  0.31422367  0.44327946  0.09424060  1
  N  N446  1  0.30094742  0.77854938  0.09067004  1
  N  N447  1  0.80791709  0.10432611  0.08131244  1
  N  N448  1  0.81442767  0.44697775  0.10125421  1
  N  N449  1  0.80715424  0.77833077  0.09310646  1
  N  N450  1  0.19184242  0.22340885  0.59649448  1
  N  N451  1  0.18153015  0.55520863  0.60639959  1
  N  N452  1  0.18131973  0.89228714  0.60443554  1
  N  N453  1  0.69776207  0.22373501  0.58727813  1
  N  N454  1  0.68926488  0.56211416  0.58357812  1
  N  N455  1  0.69346071  0.88837013  0.58676656  1
  Cl  Cl456  1  0.26269535  0.05020912  0.62235926  1
  Cl  Cl457  1  0.23906593  0.39622630  0.59742674  1
  Cl  Cl458  1  0.24462082  0.73055560  0.60137005  1
  Cl  Cl459  1  0.76326899  0.05640415  0.61094554  1
  Cl  Cl460  1  0.73906700  0.39196511  0.60650917  1
  Cl  Cl461  1  0.74563801  0.71891993  0.61854543  1
  Cl  Cl462  1  0.25873562  0.28388376  0.12083688  1
  Cl  Cl463  1  0.24329554  0.61237746  0.13307352  1
  Cl  Cl464  1  0.25825375  0.94542704  0.11702624  1
  Cl  Cl465  1  0.75955980  0.26876950  0.10867621  1
  Cl  Cl466  1  0.74283134  0.61003531  0.11073377  1
  Cl  Cl467  1  0.75686832  0.94596931  0.12141109  1
  Cl  Cl468  1  0.24428175  0.06062370  0.89696684  1
  Cl  Cl469  1  0.25072009  0.38437451  0.86549772  1
  Cl  Cl470  1  0.26381353  0.72353775  0.88233640  1
  Cl  Cl471  1  0.74522838  0.04764625  0.87850964  1
  Cl  Cl472  1  0.75121662  0.39207000  0.89461480  1
  Cl  Cl473  1  0.76342331  0.71751248  0.87876474  1
  Cl  Cl474  1  0.23366290  0.28137580  0.38337691  1
  Cl  Cl475  1  0.25939305  0.60868554  0.40109271  1
  Cl  Cl476  1  0.24925694  0.94096548  0.39005568  1
  Cl  Cl477  1  0.73229637  0.27331860  0.39076304  1
  Cl  Cl478  1  0.75515029  0.61429269  0.37548708  1
  Cl  Cl479  1  0.74829125  0.93727283  0.39101456  1
  Cl  Cl480  1  0.00770601  0.22087096  0.61758361  1
  Cl  Cl481  1  0.00108787  0.54350841  0.62839956  1
  Cl  Cl482  1  0.00054893  0.88203456  0.62911587  1
  Cl  Cl483  1  0.51086693  0.22600063  0.61226198  1
  Cl  Cl484  1  0.49345498  0.55592872  0.59724110  1
  Cl  Cl485  1  0.50236628  0.89173562  0.60094978  1
  Cl  Cl486  1  0.00676157  0.10040334  0.10416109  1
  Cl  Cl487  1  -0.00251823  0.44134557  0.11187581  1
  Cl  Cl488  1  -0.01234381  0.77969926  0.12453736  1
  Cl  Cl489  1  0.49679368  0.11647380  0.12161270  1
  Cl  Cl490  1  0.50140745  0.44306419  0.11752370  1
  Cl  Cl491  1  0.49067279  0.77756757  0.11692100  1
  Cl  Cl492  1  -0.01408417  0.21940710  0.88699267  1
  Cl  Cl493  1  0.00276607  0.55298811  0.89025284  1
  Cl  Cl494  1  -0.00864268  0.88962497  0.89276755  1
  Cl  Cl495  1  0.49394221  0.22214892  0.87994624  1
  Cl  Cl496  1  0.50257898  0.55297981  0.87507765  1
  Cl  Cl497  1  0.49754398  0.88625564  0.86792743  1
  Cl  Cl498  1  -0.01885375  0.10689328  0.38710477  1
  Cl  Cl499  1  0.01139981  0.43157550  0.38931619  1
  Cl  Cl500  1  0.00596400  0.76950485  0.39807433  1
  Cl  Cl501  1  0.48451494  0.11428742  0.38002794  1
  Cl  Cl502  1  0.51160797  0.44212073  0.39661706  1
  Cl  Cl503  1  0.50195209  0.77476324  0.38254012  1
  Cl  Cl504  1  0.36038514  0.15016825  0.74796234  1
  Cl  Cl505  1  0.36268997  0.48067440  0.74617879  1
  Cl  Cl506  1  0.35730867  0.81509564  0.74640550  1
  Cl  Cl507  1  0.86185716  0.14921297  0.74750490  1
  Cl  Cl508  1  0.86245645  0.47927424  0.74767907  1
  Cl  Cl509  1  0.85895524  0.81763076  0.74765646  1
  Cl  Cl510  1  0.13980085  0.18501631  0.24710021  1
  Cl  Cl511  1  0.13617186  0.51740609  0.25686949  1
  Cl  Cl512  1  0.14232798  0.85277325  0.24709503  1
  Cl  Cl513  1  0.63833282  0.18681539  0.24496194  1
  Cl  Cl514  1  0.64253615  0.51529452  0.25436267  1
  Cl  Cl515  1  0.63516125  0.85399609  0.24866012  1
  Cl  Cl516  1  0.13947003  0.14771569  0.75258598  1
  Cl  Cl517  1  0.14179994  0.48258735  0.74856645  1
  Cl  Cl518  1  0.14183312  0.81136993  0.74904119  1
  Cl  Cl519  1  0.64230130  0.14944795  0.75024696  1
  Cl  Cl520  1  0.64284054  0.47935234  0.74121150  1
  Cl  Cl521  1  0.63949389  0.81337233  0.75530785  1
  Cl  Cl522  1  0.36109674  0.18747503  0.24614584  1
  Cl  Cl523  1  0.36264777  0.52093892  0.25050996  1
  Cl  Cl524  1  0.36499534  0.85363823  0.26057094  1
  Cl  Cl525  1  0.85664577  0.18235122  0.24996686  1
  Cl  Cl526  1  0.86473685  0.51986482  0.25639446  1
  Cl  Cl527  1  0.85620036  0.84990604  0.25422244  1
  Cl  Cl528  1  0.10538818  0.31926447  0.75277312  1
  Cl  Cl529  1  0.11195066  0.64773016  0.74843756  1
  Cl  Cl530  1  0.11585927  0.97913301  0.74601983  1
  Cl  Cl531  1  0.61340574  0.31617241  0.75019266  1
  Cl  Cl532  1  0.61571811  0.64666390  0.75206010  1
  Cl  Cl533  1  0.61431076  0.98126862  0.74374036  1
  Cl  Cl534  1  0.39314259  0.01900508  0.24567460  1
  Cl  Cl535  1  0.38148184  0.35743031  0.26070637  1
  Cl  Cl536  1  0.38507500  0.68535893  0.25286035  1
  Cl  Cl537  1  0.89443287  0.01730500  0.24733014  1
  Cl  Cl538  1  0.88760857  0.35194518  0.25863718  1
  Cl  Cl539  1  0.89149385  0.68598369  0.25529241  1
  Cl  Cl540  1  0.39113102  0.31697548  0.74583089  1
  Cl  Cl541  1  0.39600046  0.64804642  0.74444485  1
  Cl  Cl542  1  0.39249170  0.98235621  0.74751679  1
  Cl  Cl543  1  0.88312764  0.31326386  0.73655353  1
  Cl  Cl544  1  0.89018507  0.64715689  0.74849440  1
  Cl  Cl545  1  0.89376090  0.98375808  0.75101750  1
  Cl  Cl546  1  0.11372828  0.02087219  0.25465819  1
  Cl  Cl547  1  0.10882495  0.35064052  0.24759326  1
  Cl  Cl548  1  0.11187772  0.68760510  0.25182227  1
  Cl  Cl549  1  0.61557070  0.02347140  0.25054304  1
  Cl  Cl550  1  0.60735449  0.35021116  0.25141845  1
  Cl  Cl551  1  0.60870577  0.68260299  0.24888620  1
