# generated using pymatgen
data_H8PbC4(N3Cl2)2
_symmetry_space_group_name_H-M   'P 1'
_cell_length_a   16.63611361
_cell_length_b   22.52665798
_cell_length_c   21.59920476
_cell_angle_alpha   90.00074893
_cell_angle_beta   89.99742639
_cell_angle_gamma   90.00326439
_symmetry_Int_Tables_number   1
_chemical_formula_structural   H8PbC4(N3Cl2)2
_chemical_formula_sum   'H192 Pb24 C96 N144 Cl96'
_cell_volume   8094.43244883
_cell_formula_units_Z   24
loop_
 _symmetry_equiv_pos_site_id
 _symmetry_equiv_pos_as_xyz
  1  'x, y, z'
loop_
 _atom_site_type_symbol
 _atom_site_label
 _atom_site_symmetry_multiplicity
 _atom_site_fract_x
 _atom_site_fract_y
 _atom_site_fract_z
 _atom_site_occupancy
  H  H0  1  0.02323220  0.03155326  0.67511997  1
  H  H1  1  -0.00276621  0.35397106  0.67205687  1
  H  H2  1  -0.02049311  0.69749433  0.67648651  1
  H  H3  1  0.47932987  0.03166185  0.67513003  1
  H  H4  1  0.50023818  0.36404745  0.67784053  1
  H  H5  1  0.51832092  0.68920529  0.67239074  1
  H  H6  1  -0.01300214  0.29708582  0.18660675  1
  H  H7  1  -0.00536754  0.64264633  0.17851128  1
  H  H8  1  0.01206267  0.97253110  0.17425181  1
  H  H9  1  0.51246392  0.30312997  0.18056383  1
  H  H10  1  0.49125746  0.63815459  0.18509791  1
  H  H11  1  0.48927332  0.97788426  0.17630454  1
  H  H12  1  -0.01141300  0.03010790  0.81612252  1
  H  H13  1  -0.02344091  0.36677254  0.81627004  1
  H  H14  1  -0.00524860  0.69194645  0.82514945  1
  H  H15  1  0.49264834  0.02728370  0.81711484  1
  H  H16  1  0.48206883  0.36413072  0.84826847  1
  H  H17  1  0.50933283  0.69823859  0.81479065  1
  H  H18  1  -0.00066649  0.31179208  0.32773409  1
  H  H19  1  0.01281635  0.63362163  0.31986653  1
  H  H20  1  -0.00780274  0.97638426  0.32808422  1
  H  H21  1  0.49979669  0.30598794  0.32562341  1
  H  H22  1  0.47868879  0.63898673  0.32689525  1
  H  H23  1  0.50842117  0.96936174  0.32006953  1
  H  H24  1  0.25885071  0.19739169  0.66832064  1
  H  H25  1  0.24693335  0.52829163  0.68165923  1
  H  H26  1  0.25665458  0.86125993  0.67644518  1
  H  H27  1  0.74122930  0.19116615  0.67146222  1
  H  H28  1  0.75361692  0.52412662  0.67209480  1
  H  H29  1  0.74752329  0.86597276  0.68358838  1
  H  H30  1  0.26301276  0.13697075  0.17508655  1
  H  H31  1  0.26681962  0.46756190  0.15801772  1
  H  H32  1  0.26646375  0.80288493  0.17495366  1
  H  H33  1  0.75119932  0.13612295  0.18111464  1
  H  H34  1  0.77763033  0.46408237  0.18545424  1
  H  H35  1  0.73235727  0.80415181  0.17937736  1
  H  H36  1  0.23584111  0.19508411  0.81972616  1
  H  H37  1  0.25955854  0.53202615  0.82130189  1
  H  H38  1  0.24279569  0.86277451  0.82095473  1
  H  H39  1  0.76154185  0.20249274  0.81445183  1
  H  H40  1  0.73786371  0.53062289  0.81954320  1
  H  H41  1  0.76448864  0.85781141  0.82414405  1
  H  H42  1  0.25038484  0.14302420  0.32451526  1
  H  H43  1  0.25985394  0.46988472  0.32326072  1
  H  H44  1  0.25908078  0.80591576  0.32932500  1
  H  H45  1  0.73453363  0.13645358  0.32383857  1
  H  H46  1  0.74629347  0.47635694  0.32727089  1
  H  H47  1  0.74352966  0.80882128  0.31699483  1
  H  H48  1  0.12505577  0.06061017  0.59025941  1
  H  H49  1  0.11753498  0.38334174  0.60055362  1
  H  H50  1  0.12447909  0.71668604  0.63137534  1
  H  H51  1  0.61808846  0.05206748  0.61835149  1
  H  H52  1  0.61469084  0.39152167  0.60283294  1
  H  H53  1  0.61935383  0.72303069  0.58620904  1
  H  H54  1  0.37330442  0.28194310  0.12424800  1
  H  H55  1  0.37486606  0.61185049  0.10907660  1
  H  H56  1  0.36970296  0.94654995  0.10282375  1
  H  H57  1  0.86957777  0.28040862  0.10928278  1
  H  H58  1  0.87483117  0.61438049  0.10615500  1
  H  H59  1  0.86725841  0.95257638  0.12837761  1
  H  H60  1  0.37695100  0.05552591  0.89564195  1
  H  H61  1  0.34219502  0.38769977  0.89692484  1
  H  H62  1  0.38229273  0.71751418  0.88225769  1
  H  H63  1  0.87674920  0.05588234  0.89635456  1
  H  H64  1  0.86310748  0.38795840  0.89675422  1
  H  H65  1  0.88117872  0.72603976  0.90124202  1
  H  H66  1  0.11427303  0.27939234  0.40396177  1
  H  H67  1  0.11597558  0.60605900  0.40527483  1
  H  H68  1  0.12624608  0.95351267  0.38682369  1
  H  H69  1  0.60797680  0.27396500  0.40756145  1
  H  H70  1  0.61827960  0.61603890  0.37920317  1
  H  H71  1  0.62144449  0.94502513  0.39870040  1
  H  H72  1  0.38143257  0.22026433  0.59856046  1
  H  H73  1  0.38208744  0.55022554  0.62036366  1
  H  H74  1  0.37520012  0.88863236  0.60271897  1
  H  H75  1  0.88628718  0.21437552  0.62860588  1
  H  H76  1  0.87910558  0.55329481  0.60403949  1
  H  H77  1  0.87354697  0.88995037  0.61294045  1
  H  H78  1  0.12522400  0.11790442  0.12305416  1
  H  H79  1  0.16042013  0.44059053  0.07623115  1
  H  H80  1  0.12175088  0.78377336  0.13162612  1
  H  H81  1  0.61670272  0.11598213  0.12433311  1
  H  H82  1  0.64222767  0.44590892  0.12931548  1
  H  H83  1  0.62501449  0.77768321  0.09624068  1
  H  H84  1  0.13200104  0.22145220  0.90537606  1
  H  H85  1  0.12351191  0.54953597  0.87680387  1
  H  H86  1  0.13734687  0.89435020  0.90507016  1
  H  H87  1  0.63002826  0.22113368  0.87677173  1
  H  H88  1  0.62088180  0.55414330  0.89528049  1
  H  H89  1  0.63729579  0.88630648  0.89014053  1
  H  H90  1  0.37317561  0.11451489  0.39650193  1
  H  H91  1  0.37941913  0.44400550  0.39735736  1
  H  H92  1  0.37262959  0.77172068  0.40437928  1
  H  H93  1  0.86975550  0.11221907  0.38249572  1
  H  H94  1  0.88107770  0.44397619  0.37967819  1
  H  H95  1  0.87156464  0.78272115  0.38122693  1
  H  H96  1  0.36233962  0.28432200  0.38356965  1
  H  H97  1  0.37327465  0.60616226  0.40921121  1
  H  H98  1  0.37373137  0.95072901  0.37845603  1
  H  H99  1  0.86742458  0.28023083  0.38811219  1
  H  H100  1  0.87145341  0.61437277  0.37242100  1
  H  H101  1  0.87955649  0.94313399  0.40491498  1
  H  H102  1  0.12455883  0.05106438  0.87669806  1
  H  H103  1  0.11135356  0.38672364  0.87680973  1
  H  H104  1  0.12784902  0.71662249  0.88742554  1
  H  H105  1  0.62486197  0.05077612  0.88173056  1
  H  H106  1  0.58533747  0.40218775  0.92849617  1
  H  H107  1  0.63136176  0.72054591  0.88588125  1
  H  H108  1  0.11833311  0.27920514  0.12343970  1
  H  H109  1  0.12324149  0.61423853  0.11402010  1
  H  H110  1  0.10771884  0.93818063  0.08552736  1
  H  H111  1  0.61947737  0.27399704  0.09841528  1
  H  H112  1  0.62319276  0.61470049  0.12065919  1
  H  H113  1  0.61818862  0.95054502  0.11221769  1
  H  H114  1  0.37130805  0.06091349  0.59369980  1
  H  H115  1  0.36636540  0.37884684  0.61489495  1
  H  H116  1  0.37655933  0.71674085  0.62441684  1
  H  H117  1  0.88226385  0.04942445  0.62784172  1
  H  H118  1  0.86911566  0.38866925  0.60988584  1
  H  H119  1  0.88552374  0.73035189  0.58618978  1
  H  H120  1  0.12468679  0.11392560  0.39353921  1
  H  H121  1  0.13083520  0.44538173  0.38902421  1
  H  H122  1  0.12569486  0.78270135  0.39009374  1
  H  H123  1  0.62366593  0.10791129  0.40517047  1
  H  H124  1  0.63478704  0.44373444  0.40550129  1
  H  H125  1  0.62307977  0.77867594  0.38998585  1
  H  H126  1  0.37705603  0.21656581  0.87285680  1
  H  H127  1  0.36994310  0.55749597  0.90207299  1
  H  H128  1  0.38171149  0.88436449  0.87596994  1
  H  H129  1  0.87845696  0.21434174  0.89381826  1
  H  H130  1  0.86968827  0.55260305  0.88077372  1
  H  H131  1  0.88522452  0.88976293  0.89612598  1
  H  H132  1  0.37000799  0.10783236  0.09435259  1
  H  H133  1  0.40513967  0.44616391  0.10687976  1
  H  H134  1  0.36196380  0.77040855  0.08630408  1
  H  H135  1  0.86418065  0.10905735  0.10240174  1
  H  H136  1  0.88825023  0.44992154  0.10192465  1
  H  H137  1  0.87111088  0.78184955  0.12418351  1
  H  H138  1  0.13336942  0.21925222  0.60296800  1
  H  H139  1  0.13451732  0.55294543  0.60142940  1
  H  H140  1  0.12730892  0.88800916  0.61221094  1
  H  H141  1  0.64477191  0.22872386  0.58547337  1
  H  H142  1  0.62980935  0.55338242  0.60504266  1
  H  H143  1  0.62550032  0.88951259  0.60942865  1
  H  H144  1  0.83221763  0.75158879  0.49219228  1
  H  H145  1  0.15957094  0.75075441  0.49754207  1
  H  H146  1  0.69280200  0.08058686  0.50470163  1
  H  H147  1  0.66274843  0.23771121  0.99334799  1
  H  H148  1  0.53371508  0.24718993  0.50768724  1
  H  H149  1  0.70007437  0.75206568  -0.00841023  1
  H  H150  1  0.57589072  0.91419858  0.00410254  1
  H  H151  1  0.43507189  0.57953989  0.00336633  1
  H  H152  1  0.94666345  0.92820985  0.50751778  1
  H  H153  1  0.42235291  0.74188121  0.99513552  1
  H  H154  1  0.54490338  0.24680155  -0.00596314  1
  H  H155  1  0.21480257  0.92229879  1.00321603  1
  H  H156  1  0.92545949  0.26566730  -0.00241423  1
  H  H157  1  0.51122540  0.42198184  1.03106816  1
  H  H158  1  0.02108976  0.91264774  -0.00898463  1
  H  H159  1  0.68012727  0.76313687  0.49682490  1
  H  H160  1  0.67446143  0.58614300  0.49611028  1
  H  H161  1  0.20098522  0.58118470  0.49607947  1
  H  H162  1  0.09564452  0.91652184  0.49098933  1
  H  H163  1  0.83123361  0.91815810  0.99875420  1
  H  H164  1  0.53375454  0.74824964  0.48941768  1
  H  H165  1  0.82089146  0.22224557  1.00553087  1
  H  H166  1  0.09321490  0.74636044  0.99484275  1
  H  H167  1  0.89273628  0.08091341  0.51232202  1
  H  H168  1  0.22588629  0.41301215  -0.02931236  1
  H  H169  1  0.72919536  0.25374053  0.48875393  1
  H  H170  1  0.20981995  0.24790253  1.00783147  1
  H  H171  1  0.27617232  0.74632222  -0.00981380  1
  H  H172  1  0.83395921  0.58208277  0.49956270  1
  H  H173  1  0.67473924  0.58613098  1.00196077  1
  H  H174  1  0.82234098  0.43567912  -0.00725077  1
  H  H175  1  0.66497038  0.42416243  0.01266549  1
  H  H176  1  0.90086732  0.25131546  0.49723323  1
  H  H177  1  0.58258379  0.74190935  0.99898983  1
  H  H178  1  0.39740274  0.92180477  0.49168866  1
  H  H179  1  0.83940764  0.58386903  0.99271519  1
  H  H180  1  0.64168003  0.08417196  1.01056489  1
  H  H181  1  0.14275508  0.08425537  1.00869592  1
  H  H182  1  0.07949772  0.41204705  0.98562636  1
  H  H183  1  0.14560081  0.58075348  -0.00884219  1
  H  H184  1  0.70493903  0.41130991  0.50550475  1
  H  H185  1  0.94391828  0.08645229  1.00087048  1
  H  H186  1  0.97415765  0.75429868  0.49174755  1
  H  H187  1  0.55470790  0.42358345  0.49440675  1
  H  H188  1  0.03956161  0.57337133  0.50527072  1
  H  H189  1  0.56103008  0.91872789  0.50617590  1
  H  H190  1  0.08494965  0.25514800  0.00921335  1
  H  H191  1  0.92853185  0.40526750  1.00603001  1
  Pb  Pb192  1  0.25482094  0.05007274  0.74572446  1
  Pb  Pb193  1  0.24786202  0.38010825  0.74089900  1
  Pb  Pb194  1  0.25117425  0.71443055  0.75660868  1
  Pb  Pb195  1  0.74681323  0.05158516  0.74830741  1
  Pb  Pb196  1  0.74637299  0.38188307  0.75699710  1
  Pb  Pb197  1  0.75286569  0.71502938  0.74123864  1
  Pb  Pb198  1  0.24428989  0.28735338  0.25091839  1
  Pb  Pb199  1  0.24641717  0.61579355  0.25626116  1
  Pb  Pb200  1  0.24989235  0.94849033  0.23895493  1
  Pb  Pb201  1  0.74868622  0.28269454  0.24951499  1
  Pb  Pb202  1  0.75199276  0.61598830  0.24698295  1
  Pb  Pb203  1  0.74542926  0.95256530  0.25439542  1
  Pb  Pb204  1  0.00387662  0.21488723  0.75969664  1
  Pb  Pb205  1  0.00137692  0.54700351  0.74447221  1
  Pb  Pb206  1  0.00099817  0.88545524  0.74984851  1
  Pb  Pb207  1  0.50088220  0.21880972  0.73931200  1
  Pb  Pb208  1  0.50082428  0.54741506  0.75606219  1
  Pb  Pb209  1  0.50449140  0.88021397  0.74781942  1
  Pb  Pb210  1  0.00034992  0.11600885  0.24669173  1
  Pb  Pb211  1  0.00535935  0.45120539  0.23492688  1
  Pb  Pb212  1  -0.00251776  0.78570458  0.25813551  1
  Pb  Pb213  1  0.49343168  0.11867727  0.25499247  1
  Pb  Pb214  1  0.49922166  0.45194608  0.25943123  1
  Pb  Pb215  1  0.50127663  0.78074668  0.24319955  1
  C  C216  1  0.00896067  0.04693865  0.62884040  1
  C  C217  1  -0.00568636  0.37506095  0.62718809  1
  C  C218  1  -0.00383122  0.71364192  0.63090690  1
  C  C219  1  0.48995542  0.04781101  0.62871673  1
  C  C220  1  0.49394309  0.37832321  0.63022033  1
  C  C221  1  0.50521087  0.70827803  0.62737263  1
  C  C222  1  -0.00811451  0.28584971  0.13783535  1
  C  C223  1  -0.00206791  0.62407927  0.13249849  1
  C  C224  1  -0.00415153  0.95537673  0.12901847  1
  C  C225  1  0.50151429  0.28692884  0.13399980  1
  C  C226  1  0.49678483  0.62174318  0.13801942  1
  C  C227  1  0.49209846  0.95870146  0.13035740  1
  C  C228  1  -0.00310241  0.04549796  0.86336792  1
  C  C229  1  -0.01574559  0.38136959  0.86393547  1
  C  C230  1  0.00171927  0.70999248  0.87136724  1
  C  C231  1  0.49811417  0.04367809  0.86419479  1
  C  C232  1  0.47023774  0.38306867  0.89380313  1
  C  C233  1  0.50748718  0.71139902  0.86314913  1
  C  C234  1  -0.00714015  0.29189066  0.37322144  1
  C  C235  1  -0.00041357  0.61839848  0.36650414  1
  C  C236  1  -0.00078479  0.95860461  0.37458940  1
  C  C237  1  0.49031098  0.28923413  0.37217374  1
  C  C238  1  0.49043117  0.62052590  0.37213719  1
  C  C239  1  0.50092556  0.95496334  0.36775133  1
  C  C240  1  0.25791987  0.21195214  0.62048353  1
  C  C241  1  0.25468685  0.54317263  0.63426679  1
  C  C242  1  0.25264922  0.87824506  0.62980324  1
  C  C243  1  0.75748901  0.20961929  0.62666257  1
  C  C244  1  0.75471409  0.54304696  0.62577380  1
  C  C245  1  0.74895875  0.88085731  0.63578446  1
  C  C246  1  0.25161532  0.12097341  0.12856275  1
  C  C247  1  0.27816675  0.45241893  0.11088558  1
  C  C248  1  0.25026292  0.78711620  0.12911567  1
  C  C249  1  0.74315221  0.12079691  0.13398324  1
  C  C250  1  0.76895836  0.45324473  0.13684663  1
  C  C251  1  0.74293296  0.78846855  0.13260715  1
  C  C252  1  0.24854587  0.20992994  0.86647771  1
  C  C253  1  0.25011853  0.54693041  0.86844712  1
  C  C254  1  0.25377275  0.87937698  0.86732641  1
  C  C255  1  0.75654472  0.21265363  0.86348163  1
  C  C256  1  0.74303279  0.54620981  0.86704584  1
  C  C257  1  0.76289181  0.87725942  0.87003307  1
  C  C258  1  0.24936993  0.12522197  0.37115964  1
  C  C259  1  0.25657327  0.45385136  0.37032823  1
  C  C260  1  0.25191214  0.78839611  0.37566042  1
  C  C261  1  0.74236944  0.11955638  0.37049123  1
  C  C262  1  0.75382938  0.45633393  0.37245463  1
  C  C263  1  0.74551847  0.79192966  0.36407281  1
  C  C264  1  0.47496998  0.58541348  0.46587144  1
  C  C265  1  0.70566488  0.22874725  0.95658775  1
  C  C266  1  0.52706862  0.92893952  0.46452999  1
  C  C267  1  0.27398188  0.57556727  0.96463709  1
  C  C268  1  0.44024532  0.40410776  0.54089258  1
  C  C269  1  0.51759243  0.25812332  0.03828026  1
  C  C270  1  0.28415050  0.90916498  0.53642015  1
  C  C271  1  0.46942101  0.59209303  0.04428432  1
  C  C272  1  0.23218076  0.57079012  0.53905746  1
  C  C273  1  0.72708730  0.76116613  0.03647151  1
  C  C274  1  0.04180031  0.26587856  0.04532560  1
  C  C275  1  0.97500294  0.07384570  0.95843723  1
  C  C276  1  0.96034837  0.26871303  0.03993718  1
  C  C277  1  0.44532906  0.93070485  0.45748136  1
  C  C278  1  0.29659974  0.23805700  0.52748299  1
  C  C279  1  0.82894533  0.24029995  0.54615823  1
  C  C280  1  0.76951534  0.09135665  0.03872396  1
  C  C281  1  0.46333888  0.73298571  0.95703847  1
  C  C282  1  0.01212724  0.58763266  0.46185392  1
  C  C283  1  0.78679397  0.22356133  0.96263914  1
  C  C284  1  0.94332767  0.07331677  0.54350184  1
  C  C285  1  0.53470645  0.92578935  0.04134591  1
  C  C286  1  0.27200149  0.08988060  0.03303669  1
  C  C287  1  0.34015611  0.42777816  0.02215200  1
  C  C288  1  0.71172545  0.57473712  0.96222352  1
  C  C289  1  0.02338482  0.07721307  0.53227267  1
  C  C290  1  0.71430581  0.57526064  0.53459190  1
  C  C291  1  0.28112199  0.75304031  0.46913488  1
  C  C292  1  0.81129057  0.41671456  0.45561436  1
  C  C293  1  0.40553629  0.41487483  0.97793687  1
  C  C294  1  0.79177382  0.43769387  0.03712506  1
  C  C295  1  0.17771153  0.75904224  0.04837454  1
  C  C296  1  0.47151907  0.07930893  0.53407101  1
  C  C297  1  0.95796619  0.40296269  0.96113715  1
  C  C298  1  0.21520414  0.23716625  0.52907973  1
  C  C299  1  0.19136292  0.09308397  0.04142451  1
  C  C300  1  0.71105904  0.43410187  0.04675142  1
  C  C301  1  0.23597622  0.23724524  0.96292882  1
  C  C302  1  0.52119992  0.40919058  0.53497379  1
  C  C303  1  0.28811526  0.42248859  0.46294652  1
  C  C304  1  0.54525802  0.73365254  0.95855977  1
  C  C305  1  0.25808079  0.42453930  0.01295741  1
  C  C306  1  0.02718275  0.41393419  0.53802879  1
  C  C307  1  0.79364724  0.57399568  0.95744864  1
  C  C308  1  0.19309608  0.57242976  0.95762051  1
  C  C309  1  0.79210769  0.76234108  0.45410906  1
  C  C310  1  0.96501450  0.59137546  0.04023690  1
  C  C311  1  0.68847868  0.09351281  0.04459933  1
  N  N312  1  0.71667224  0.90861652  0.96007190  1
  N  N313  1  0.99306439  0.74616570  0.53699699  1
  N  N314  1  0.75183674  0.24594348  0.53345766  1
  N  N315  1  0.92457609  0.92661123  0.04858482  1
  N  N316  1  0.54831258  0.07600553  0.54068079  1
  N  N317  1  0.20621874  0.90832995  0.53809159  1
  N  N318  1  0.93414040  0.59096122  0.45146970  1
  N  N319  1  0.54635059  0.07306745  0.95382805  1
  N  N320  1  0.04276859  0.59116215  0.04165370  1
  N  N321  1  0.94573760  0.25865507  0.45992612  1
  N  N322  1  0.97431964  0.92159424  0.46552910  1
  N  N323  1  0.43949010  0.26013506  0.04740030  1
  N  N324  1  0.21095868  0.42332538  0.46188425  1
  N  N325  1  0.51449229  0.74360057  0.53503251  1
  N  N326  1  0.02325769  0.25706599  0.46550356  1
  N  N327  1  0.73311207  0.41859095  0.46374956  1
  N  N328  1  0.79500045  0.91027178  0.96033476  1
  N  N329  1  0.05364557  0.07147711  0.95211516  1
  N  N330  1  0.20984858  0.09084004  0.46168086  1
  N  N331  1  0.78955189  0.90718315  0.54255656  1
  N  N332  1  0.20273516  0.75818756  0.46374737  1
  N  N333  1  0.28575818  0.09078017  0.46244902  1
  N  N334  1  0.06869966  0.74071184  0.55048375  1
  N  N335  1  0.97236354  0.74373850  0.96452003  1
  N  N336  1  0.55163187  0.58884345  0.45780903  1
  N  N337  1  0.31084550  0.57072156  0.54542213  1
  N  N338  1  0.03638368  0.40615278  0.95243094  1
  N  N339  1  0.71283994  0.90706559  0.54141839  1
  N  N340  1  0.31372644  0.23609339  0.95188921  1
  N  N341  1  0.23927302  0.91341840  0.95970633  1
  N  N342  1  0.72197293  0.08773433  0.46326261  1
  N  N343  1  0.79410126  0.57635045  0.53593062  1
  N  N344  1  0.48550066  0.42001545  0.98695776  1
  N  N345  1  0.94984628  0.41592873  0.53972788  1
  N  N346  1  0.47050006  0.07474375  0.95850376  1
  N  N347  1  0.71250097  0.76178802  0.45649621  1
  N  N348  1  0.43814152  0.74231127  0.54704374  1
  N  N349  1  0.80513985  0.76098050  0.04626937  1
  N  N350  1  0.54851816  0.59302950  0.04810254  1
  N  N351  1  0.31623010  0.91020982  0.95140553  1
  N  N352  1  0.45573172  0.92339442  0.03825743  1
  N  N353  1  0.05226311  0.93497882  0.46269347  1
  N  N354  1  0.25446819  0.75454288  0.03440207  1
  N  N355  1  0.00052105  0.92043610  0.03613501  1
  N  N356  1  0.43038007  0.25948331  0.45776390  1
  N  N357  1  0.79957755  0.09025077  0.45723872  1
  N  N358  1  0.05000140  0.74001526  0.95865365  1
  N  N359  1  0.50765424  0.25591993  0.46466623  1
  N  N360  1  0.06292479  0.06138628  0.58358545  1
  N  N361  1  0.05714107  0.38926178  0.59043918  1
  N  N362  1  0.06996931  0.72253314  0.60950984  1
  N  N363  1  0.55975127  0.05599030  0.60106478  1
  N  N364  1  0.55368400  0.39260288  0.59165168  1
  N  N365  1  0.55703016  0.72052923  0.58253442  1
  N  N366  1  0.43118061  0.27785298  0.10684518  1
  N  N367  1  0.43610056  0.60925454  0.09920804  1
  N  N368  1  0.43074732  0.94423995  0.09411756  1
  N  N369  1  0.93035591  0.28088149  0.09794314  1
  N  N370  1  0.93551518  0.61100702  0.09509195  1
  N  N371  1  0.92233255  0.94591712  0.10733872  1
  N  N372  1  0.43897672  0.05642515  0.90312029  1
  N  N373  1  0.39768007  0.39443324  0.91846860  1
  N  N374  1  0.44124201  0.71903929  0.89751712  1
  N  N375  1  0.93861636  0.05789825  0.90436262  1
  N  N376  1  0.92481716  0.38863122  0.90598137  1
  N  N377  1  0.94268428  0.72569353  0.90979913  1
  N  N378  1  0.05232308  0.27724868  0.41170295  1
  N  N379  1  0.05360085  0.60488046  0.41043776  1
  N  N380  1  0.06781782  0.94841512  0.40356283  1
  N  N381  1  0.54581382  0.27606690  0.41387200  1
  N  N382  1  0.56109437  0.61046659  0.39774090  1
  N  N383  1  0.56024894  0.94381537  0.40827477  1
  N  N384  1  0.32245332  0.22279657  0.58390896  1
  N  N385  1  0.32308512  0.55327982  0.60461349  1
  N  N386  1  0.31447613  0.89112256  0.59178941  1
  N  N387  1  0.83251345  0.21974044  0.60497141  1
  N  N388  1  0.81866144  0.55474706  0.59160120  1
  N  N389  1  0.81301063  0.89068238  0.60090330  1
  N  N390  1  0.18023851  0.11224762  0.10205246  1
  N  N391  1  0.22198080  0.43990362  0.06827984  1
  N  N392  1  0.17497234  0.77767735  0.10762518  1
  N  N393  1  0.67345565  0.11184029  0.10505739  1
  N  N394  1  0.69842951  0.44397995  0.10873990  1
  N  N395  1  0.68688586  0.77766729  0.08922429  1
  N  N396  1  0.19418088  0.22158928  0.91083514  1
  N  N397  1  0.17969594  0.55468527  0.89676042  1
  N  N398  1  0.19952553  0.89255589  0.90997043  1
  N  N399  1  0.68811071  0.22198316  0.89478242  1
  N  N400  1  0.68168802  0.55766114  0.90561697  1
  N  N401  1  0.69749901  0.88962001  0.90315599  1
  N  N402  1  0.31206923  0.11216066  0.40651744  1
  N  N403  1  0.31901362  0.44096134  0.40794763  1
  N  N404  1  0.31180023  0.77138114  0.41476051  1
  N  N405  1  0.81164775  0.10800713  0.39892839  1
  N  N406  1  0.82432067  0.43948055  0.39899445  1
  N  N407  1  0.81268736  0.77923957  0.39642735  1
  N  N408  1  0.42014379  0.27888872  0.39976660  1
  N  N409  1  0.43506081  0.60444426  0.41489824  1
  N  N410  1  0.43093169  0.94660149  0.39709837  1
  N  N411  1  0.92587585  0.28036513  0.40375005  1
  N  N412  1  0.92821314  0.60983623  0.39173142  1
  N  N413  1  0.94085470  0.94660852  0.41435756  1
  N  N414  1  0.06570218  0.05446216  0.89262353  1
  N  N415  1  0.05256422  0.39328138  0.89250054  1
  N  N416  1  0.06905423  0.71826077  0.90263113  1
  N  N417  1  0.56510878  0.05405937  0.89546242  1
  N  N418  1  0.52475816  0.39586727  0.93653395  1
  N  N419  1  0.57151634  0.72023116  0.89989262  1
  N  N420  1  0.06009433  0.27672609  0.10628940  1
  N  N421  1  0.06327702  0.61135112  0.10055447  1
  N  N422  1  0.04523782  0.94106621  0.08341428  1
  N  N423  1  0.55757719  0.27436280  0.09113386  1
  N  N424  1  0.56368661  0.61122852  0.10667060  1
  N  N425  1  0.55866064  0.94652469  0.09778414  1
  N  N426  1  0.43321036  0.06254131  0.58654816  1
  N  N427  1  0.42439519  0.38570885  0.59848893  1
  N  N428  1  0.43309150  0.72217401  0.60510031  1
  N  N429  1  0.93594257  0.05474387  0.60479077  1
  N  N430  1  0.92920674  0.39150630  0.59673228  1
  N  N431  1  0.94739874  0.72691709  0.58453574  1
  N  N432  1  0.18548913  0.11259260  0.40534252  1
  N  N433  1  0.19096496  0.44332452  0.40294929  1
  N  N434  1  0.18405384  0.78122157  0.40636536  1
  N  N435  1  0.68571370  0.10794959  0.41164811  1
  N  N436  1  0.69661899  0.44482959  0.41327214  1
  N  N437  1  0.68383882  0.78347340  0.40168692  1
  N  N438  1  0.31986816  0.21896246  0.89208868  1
  N  N439  1  0.30823673  0.56024824  0.91084280  1
  N  N440  1  0.32477688  0.89020741  0.89334998  1
  N  N441  1  0.81743884  0.21422778  0.90418273  1
  N  N442  1  0.81143402  0.55648223  0.89787826  1
  N  N443  1  0.82447115  0.88990184  0.90642410  1
  N  N444  1  0.30827248  0.10667958  0.08537230  1
  N  N445  1  0.34991226  0.44559605  0.08413047  1
  N  N446  1  0.30000568  0.77490196  0.08324382  1
  N  N447  1  0.80240825  0.10781064  0.09256853  1
  N  N448  1  0.82689805  0.44901461  0.09372386  1
  N  N449  1  0.81328106  0.77795287  0.10602506  1
  N  N450  1  0.19175485  0.22175711  0.58546047  1
  N  N451  1  0.19606462  0.55428173  0.59318890  1
  N  N452  1  0.18684319  0.88885614  0.59776638  1
  N  N453  1  0.70713106  0.22394526  0.58189386  1
  N  N454  1  0.68979455  0.55607179  0.59089155  1
  N  N455  1  0.68664669  0.89112311  0.59913680  1
  Cl  Cl456  1  0.24882398  0.05566148  0.61420219  1
  Cl  Cl457  1  0.24136290  0.37732324  0.61350717  1
  Cl  Cl458  1  0.25150065  0.71970592  0.62536171  1
  Cl  Cl459  1  0.74194800  0.06073856  0.61288702  1
  Cl  Cl460  1  0.74016595  0.39192947  0.61173594  1
  Cl  Cl461  1  0.74715324  0.72868747  0.59576054  1
  Cl  Cl462  1  0.24447962  0.27973301  0.11715006  1
  Cl  Cl463  1  0.25016531  0.61670582  0.12297942  1
  Cl  Cl464  1  0.23026421  0.93928032  0.09802144  1
  Cl  Cl465  1  0.74383611  0.27299960  0.11659489  1
  Cl  Cl466  1  0.75112563  0.61386195  0.11427738  1
  Cl  Cl467  1  0.74151131  0.94893827  0.12088256  1
  Cl  Cl468  1  0.25359696  0.05560832  0.88071722  1
  Cl  Cl469  1  0.22992205  0.37925682  0.87592185  1
  Cl  Cl470  1  0.25533491  0.72586020  0.89531487  1
  Cl  Cl471  1  0.75296830  0.05197590  0.88050161  1
  Cl  Cl472  1  0.73587476  0.39454065  0.89003632  1
  Cl  Cl473  1  0.75731915  0.72735732  0.87620041  1
  Cl  Cl474  1  0.23568403  0.28261018  0.38357449  1
  Cl  Cl475  1  0.24173173  0.61029989  0.39302451  1
  Cl  Cl476  1  0.24642238  0.94724313  0.37011493  1
  Cl  Cl477  1  0.73113812  0.27296601  0.39719902  1
  Cl  Cl478  1  0.74421072  0.61305000  0.38164290  1
  Cl  Cl479  1  0.75360136  0.94218887  0.38571715  1
  Cl  Cl480  1  0.01105444  0.22382515  0.62890816  1
  Cl  Cl481  1  0.00724363  0.55647749  0.60820928  1
  Cl  Cl482  1  -0.00125142  0.89392422  0.61128461  1
  Cl  Cl483  1  0.52252100  0.22810808  0.60061678  1
  Cl  Cl484  1  0.50797003  0.55360404  0.62468533  1
  Cl  Cl485  1  0.50118889  0.88818943  0.61258797  1
  Cl  Cl486  1  -0.01452435  0.10834839  0.11242462  1
  Cl  Cl487  1  0.02330389  0.44232398  0.09822754  1
  Cl  Cl488  1  -0.00399346  0.78104767  0.12870605  1
  Cl  Cl489  1  0.48847126  0.11046877  0.12408976  1
  Cl  Cl490  1  0.52048416  0.43585014  0.12332665  1
  Cl  Cl491  1  0.49348096  0.77206722  0.10812420  1
  Cl  Cl492  1  0.00559857  0.22367077  0.89516250  1
  Cl  Cl493  1  -0.00586556  0.55144205  0.87369183  1
  Cl  Cl494  1  0.01408437  0.89436648  0.89762008  1
  Cl  Cl495  1  0.50588290  0.22535671  0.87233686  1
  Cl  Cl496  1  0.49304394  0.55095893  0.89155476  1
  Cl  Cl497  1  0.51379269  0.88482665  0.87964035  1
  Cl  Cl498  1  0.00037272  0.10956742  0.38021297  1
  Cl  Cl499  1  0.00841951  0.44613392  0.36772003  1
  Cl  Cl500  1  -0.00423241  0.77721094  0.39825967  1
  Cl  Cl501  1  0.50045806  0.11151025  0.39039102  1
  Cl  Cl502  1  0.51003271  0.44402054  0.39189261  1
  Cl  Cl503  1  0.50165535  0.76688322  0.39236296  1
  Cl  Cl504  1  0.36641936  0.15121422  0.74772700  1
  Cl  Cl505  1  0.35955148  0.48118176  0.75027796  1
  Cl  Cl506  1  0.36435000  0.81422191  0.75645999  1
  Cl  Cl507  1  0.87106185  0.14382183  0.74249129  1
  Cl  Cl508  1  0.86438822  0.47901473  0.74771803  1
  Cl  Cl509  1  0.86873883  0.81362563  0.74629093  1
  Cl  Cl510  1  0.13371480  0.18563514  0.23825726  1
  Cl  Cl511  1  0.14802392  0.50874576  0.24041412  1
  Cl  Cl512  1  0.13357228  0.85064677  0.25037141  1
  Cl  Cl513  1  0.63535260  0.18351308  0.25057242  1
  Cl  Cl514  1  0.63551529  0.51877409  0.24256573  1
  Cl  Cl515  1  0.63291344  0.85136196  0.25147772  1
  Cl  Cl516  1  0.14380911  0.15128698  0.74727991  1
  Cl  Cl517  1  0.14014763  0.48262098  0.75605389  1
  Cl  Cl518  1  0.14050837  0.81554113  0.74597858  1
  Cl  Cl519  1  0.64834998  0.15208743  0.75084764  1
  Cl  Cl520  1  0.64401239  0.48642957  0.74484881  1
  Cl  Cl521  1  0.64597488  0.81729615  0.75376671  1
  Cl  Cl522  1  0.35388839  0.18553197  0.25300815  1
  Cl  Cl523  1  0.36492353  0.51943426  0.23974137  1
  Cl  Cl524  1  0.35238695  0.85020207  0.25074922  1
  Cl  Cl525  1  0.85697176  0.18970274  0.26297787  1
  Cl  Cl526  1  0.85921470  0.52192583  0.25820199  1
  Cl  Cl527  1  0.85894677  0.85252766  0.24517701  1
  Cl  Cl528  1  0.10431526  0.32072905  0.75504361  1
  Cl  Cl529  1  0.11147735  0.64963190  0.75138768  1
  Cl  Cl530  1  0.11108762  0.98472042  0.75491618  1
  Cl  Cl531  1  0.60675440  0.32245581  0.75275814  1
  Cl  Cl532  1  0.61403517  0.64887466  0.75085507  1
  Cl  Cl533  1  0.61284838  0.98320951  0.74329866  1
  Cl  Cl534  1  0.38548038  0.01490359  0.25253438  1
  Cl  Cl535  1  0.38648728  0.35206497  0.24758903  1
  Cl  Cl536  1  0.38291508  0.68519039  0.25545635  1
  Cl  Cl537  1  0.88217197  0.01934376  0.25061588  1
  Cl  Cl538  1  0.87809479  0.35849921  0.25344432  1
  Cl  Cl539  1  0.88426848  0.68609284  0.25906243  1
  Cl  Cl540  1  0.38942632  0.31739736  0.75635688  1
  Cl  Cl541  1  0.38966949  0.64859388  0.74572214  1
  Cl  Cl542  1  0.39041382  0.97962492  0.74809761  1
  Cl  Cl543  1  0.88170123  0.30947869  0.74877712  1
  Cl  Cl544  1  0.89064551  0.64843505  0.74898115  1
  Cl  Cl545  1  0.89080183  0.97789488  0.74163037  1
  Cl  Cl546  1  0.10238215  0.01895362  0.24665306  1
  Cl  Cl547  1  0.09871059  0.34698214  0.24777881  1
  Cl  Cl548  1  0.10726715  0.68357082  0.24830578  1
  Cl  Cl549  1  0.60679433  0.01871869  0.24955384  1
  Cl  Cl550  1  0.60817812  0.34979189  0.25590741  1
  Cl  Cl551  1  0.60504927  0.68725597  0.25588529  1
