# generated using pymatgen
data_H8PbC4(N3Cl2)2
_symmetry_space_group_name_H-M   'P 1'
_cell_length_a   16.62327371
_cell_length_b   22.51306875
_cell_length_c   21.59333595
_cell_angle_alpha   89.99936756
_cell_angle_beta   89.98288002
_cell_angle_gamma   89.99889417
_symmetry_Int_Tables_number   1
_chemical_formula_structural   H8PbC4(N3Cl2)2
_chemical_formula_sum   'H192 Pb24 C96 N144 Cl96'
_cell_volume   8081.10920026
_cell_formula_units_Z   24
loop_
 _symmetry_equiv_pos_site_id
 _symmetry_equiv_pos_as_xyz
  1  'x, y, z'
loop_
 _atom_site_type_symbol
 _atom_site_label
 _atom_site_symmetry_multiplicity
 _atom_site_fract_x
 _atom_site_fract_y
 _atom_site_fract_z
 _atom_site_occupancy
  H  H0  1  0.00210922  0.03072471  0.67945285  1
  H  H1  1  -0.00558173  0.36189100  0.67729090  1
  H  H2  1  0.00020914  0.69735267  0.68040974  1
  H  H3  1  0.50052758  0.03010148  0.67526697  1
  H  H4  1  0.49637703  0.36445040  0.68074678  1
  H  H5  1  0.50515670  0.69460363  0.67684474  1
  H  H6  1  0.00058351  0.30378553  0.18028060  1
  H  H7  1  -0.00825927  0.63350380  0.17711967  1
  H  H8  1  -0.00237549  0.97117001  0.18208966  1
  H  H9  1  0.49781718  0.30374842  0.17705920  1
  H  H10  1  0.51500173  0.63879851  0.17963732  1
  H  H11  1  0.49061932  0.97194947  0.17842252  1
  H  H12  1  -0.00708494  0.02972383  0.81821956  1
  H  H13  1  -0.00612888  0.36112241  0.81785776  1
  H  H14  1  0.00133847  0.69592193  0.82105491  1
  H  H15  1  0.49786923  0.03129005  0.82400059  1
  H  H16  1  0.49954865  0.36377033  0.82706214  1
  H  H17  1  0.48238782  0.69947766  0.82577431  1
  H  H18  1  0.00771515  0.30246030  0.31941863  1
  H  H19  1  0.00628907  0.63648256  0.31833824  1
  H  H20  1  0.00663895  0.97233122  0.31930422  1
  H  H21  1  0.49180046  0.30307477  0.32597643  1
  H  H22  1  0.49478320  0.63600873  0.32064379  1
  H  H23  1  0.49399452  0.96730975  0.32172881  1
  H  H24  1  0.23603096  0.19924489  0.68010177  1
  H  H25  1  0.25756635  0.53117908  0.68102674  1
  H  H26  1  0.25941723  0.86131616  0.67753203  1
  H  H27  1  0.76292697  0.19639444  0.67445219  1
  H  H28  1  0.75213511  0.52990209  0.67992149  1
  H  H29  1  0.75311803  0.86408175  0.67897523  1
  H  H30  1  0.26258092  0.13734178  0.17410646  1
  H  H31  1  0.25617502  0.47047321  0.17717232  1
  H  H32  1  0.25176522  0.80223287  0.17911007  1
  H  H33  1  0.75032676  0.13687670  0.17813793  1
  H  H34  1  0.74162854  0.46928335  0.18025111  1
  H  H35  1  0.75043937  0.80474914  0.17749825  1
  H  H36  1  0.23686102  0.19932909  0.82368809  1
  H  H37  1  0.25503230  0.52970050  0.82710585  1
  H  H38  1  0.25655314  0.85951494  0.82183674  1
  H  H39  1  0.75804456  0.19805523  0.82105892  1
  H  H40  1  0.75675934  0.52671059  0.82107964  1
  H  H41  1  0.74247551  0.86214432  0.82153404  1
  H  H42  1  0.25707539  0.13431725  0.32299649  1
  H  H43  1  0.25623117  0.46746999  0.31775883  1
  H  H44  1  0.24978856  0.80120547  0.32140020  1
  H  H45  1  0.74101785  0.13559957  0.32274977  1
  H  H46  1  0.75328523  0.46895799  0.32006949  1
  H  H47  1  0.74582628  0.80400449  0.32063136  1
  H  H48  1  0.13481910  0.05157335  0.61685234  1
  H  H49  1  0.13167155  0.38448387  0.62315373  1
  H  H50  1  0.11887993  0.72179118  0.60532518  1
  H  H51  1  0.63702508  0.05438753  0.61942066  1
  H  H52  1  0.63260487  0.38284657  0.62385238  1
  H  H53  1  0.61305404  0.72518148  0.59512869  1
  H  H54  1  0.38269800  0.27833695  0.10166928  1
  H  H55  1  0.38283684  0.61452685  0.11622174  1
  H  H56  1  0.38500683  0.94231747  0.09551419  1
  H  H57  1  0.88530999  0.27703679  0.10310597  1
  H  H58  1  0.89065378  0.60840929  0.09108116  1
  H  H59  1  0.87990559  0.94539310  0.10641397  1
  H  H60  1  0.38187572  0.05849924  0.89970864  1
  H  H61  1  0.37433138  0.38433702  0.89494612  1
  H  H62  1  0.38304851  0.72531418  0.91190584  1
  H  H63  1  0.87981529  0.05552703  0.89773595  1
  H  H64  1  0.87407775  0.38690301  0.89139937  1
  H  H65  1  0.87579340  0.72105621  0.88844574  1
  H  H66  1  0.11900768  0.27645265  0.40007731  1
  H  H67  1  0.12293816  0.61221319  0.39504221  1
  H  H68  1  0.12820713  0.94404845  0.39102173  1
  H  H69  1  0.62616362  0.28013887  0.38457759  1
  H  H70  1  0.62164216  0.61251970  0.38562175  1
  H  H71  1  0.63247772  0.94946839  0.37787149  1
  H  H72  1  0.37476940  0.21577457  0.62508370  1
  H  H73  1  0.37514254  0.55595890  0.60311560  1
  H  H74  1  0.36523614  0.89152151  0.59296002  1
  H  H75  1  0.86623141  0.22546201  0.58803833  1
  H  H76  1  0.87786220  0.55406786  0.60960734  1
  H  H77  1  0.86570325  0.89322372  0.59860942  1
  H  H78  1  0.12280996  0.12022081  0.12422021  1
  H  H79  1  0.12875575  0.44726998  0.11296938  1
  H  H80  1  0.12298555  0.77773781  0.11180934  1
  H  H81  1  0.61475757  0.11537763  0.11804188  1
  H  H82  1  0.62574487  0.44321712  0.10154385  1
  H  H83  1  0.62333671  0.77955477  0.11153609  1
  H  H84  1  0.12229845  0.22140235  0.90050276  1
  H  H85  1  0.11929215  0.55014069  0.88718900  1
  H  H86  1  0.12218409  0.88326141  0.87952491  1
  H  H87  1  0.61690518  0.21638543  0.87417338  1
  H  H88  1  0.62039984  0.55007797  0.87905329  1
  H  H89  1  0.61798450  0.88803756  0.89224922  1
  H  H90  1  0.36062045  0.10433114  0.40777785  1
  H  H91  1  0.36254430  0.44572544  0.40111649  1
  H  H92  1  0.38164350  0.77932889  0.38562488  1
  H  H93  1  0.86598960  0.11499593  0.39010262  1
  H  H94  1  0.86011271  0.44192503  0.40149935  1
  H  H95  1  0.88328494  0.78178500  0.37758734  1
  H  H96  1  0.37900252  0.27465798  0.40387458  1
  H  H97  1  0.37248901  0.61354675  0.39273734  1
  H  H98  1  0.38660268  0.94192688  0.40566349  1
  H  H99  1  0.87155268  0.28153231  0.37951466  1
  H  H100  1  0.87440448  0.61300098  0.38136414  1
  H  H101  1  0.87925353  0.94841771  0.38763749  1
  H  H102  1  0.12797213  0.05342903  0.87863809  1
  H  H103  1  0.12322368  0.38340452  0.88530828  1
  H  H104  1  0.12472119  0.72094081  0.89340153  1
  H  H105  1  0.63016486  0.05346322  0.88677619  1
  H  H106  1  0.62325085  0.38677040  0.89519975  1
  H  H107  1  0.62506840  0.71459044  0.87254667  1
  H  H108  1  0.13430694  0.28014009  0.11687130  1
  H  H109  1  0.13420127  0.61864245  0.12861245  1
  H  H110  1  0.12860349  0.94740950  0.11685800  1
  H  H111  1  0.63139183  0.28347069  0.11576917  1
  H  H112  1  0.63117811  0.61168050  0.10231954  1
  H  H113  1  0.63083786  0.95095772  0.12405707  1
  H  H114  1  0.39047811  0.05952813  0.59505875  1
  H  H115  1  0.38530842  0.38908442  0.60136661  1
  H  H116  1  0.36714798  0.71396148  0.62034172  1
  H  H117  1  0.88685645  0.05715617  0.60175181  1
  H  H118  1  0.88531338  0.39031548  0.59513669  1
  H  H119  1  0.87013962  0.72122938  0.61464007  1
  H  H120  1  0.11580004  0.11770077  0.37632570  1
  H  H121  1  0.11647037  0.45037851  0.37165600  1
  H  H122  1  0.13353727  0.77561838  0.39769290  1
  H  H123  1  0.61703984  0.11158517  0.39330773  1
  H  H124  1  0.61358384  0.45230109  0.37445588  1
  H  H125  1  0.63615083  0.77709486  0.40168012  1
  H  H126  1  0.36969997  0.21537168  0.88390024  1
  H  H127  1  0.36593798  0.55869371  0.90627030  1
  H  H128  1  0.36976799  0.89000409  0.89992445  1
  H  H129  1  0.86252748  0.22360665  0.90555165  1
  H  H130  1  0.86624741  0.55664331  0.90278563  1
  H  H131  1  0.86653714  0.88780659  0.89230460  1
  H  H132  1  0.36663406  0.10995414  0.09051287  1
  H  H133  1  0.37782695  0.44477695  0.10522285  1
  H  H134  1  0.37151651  0.77729610  0.10469432  1
  H  H135  1  0.86223900  0.10823025  0.09945781  1
  H  H136  1  0.87379406  0.44743947  0.11504157  1
  H  H137  1  0.87282753  0.77737379  0.10583259  1
  H  H138  1  0.12833686  0.22605540  0.59615451  1
  H  H139  1  0.12704733  0.55308654  0.61361719  1
  H  H140  1  0.12075811  0.88488270  0.62370525  1
  H  H141  1  0.62238915  0.21433262  0.62238357  1
  H  H142  1  0.62972753  0.55495430  0.60764248  1
  H  H143  1  0.61874457  0.88704806  0.61716567  1
  H  H144  1  0.53884459  0.74121977  0.49325105  1
  H  H145  1  0.44990147  0.42049065  0.49517463  1
  H  H146  1  0.28131878  0.08759883  0.50791017  1
  H  H147  1  0.14991094  0.91925698  0.99029346  1
  H  H148  1  0.79334659  0.58174722  1.00347936  1
  H  H149  1  0.93793399  0.91487191  0.00026962  1
  H  H150  1  0.92935975  0.41878406  0.99818853  1
  H  H151  1  0.13350438  0.08332616  0.48480912  1
  H  H152  1  0.82316730  0.08324000  0.50196533  1
  H  H153  1  0.78845263  0.25291658  1.00895113  1
  H  H154  1  0.95611347  0.41309016  0.49408870  1
  H  H155  1  0.29117513  0.42160136  0.50823550  1
  H  H156  1  0.57041360  0.58062945  -0.00239157  1
  H  H157  1  0.70340497  0.74978053  0.50741924  1
  H  H158  1  0.96750969  0.58309095  -0.01264114  1
  H  H159  1  0.20098817  0.25262694  0.49626230  1
  H  H160  1  0.30389634  0.91457027  1.00261740  1
  H  H161  1  0.11245088  0.41869447  0.50937398  1
  H  H162  1  0.85797499  0.75562966  0.48627170  1
  H  H163  1  0.29644765  0.57677311  1.00898497  1
  H  H164  1  0.39215119  0.74881468  0.51421844  1
  H  H165  1  0.46042609  0.08543302  0.49316042  1
  H  H166  1  0.06339003  0.58142223  0.50086934  1
  H  H167  1  0.13704849  0.08982922  1.00840831  1
  H  H168  1  0.46214967  0.90684532  0.50125025  1
  H  H169  1  0.06252425  0.75171865  0.49835885  1
  H  H170  1  0.78957969  0.41344681  0.50770016  1
  H  H171  1  0.82241945  0.75196191  0.00144787  1
  H  H172  1  0.94535267  0.08649817  1.00250344  1
  H  H173  1  0.45927734  0.91066652  -0.00624816  1
  H  H174  1  0.16836197  0.74993979  0.00643605  1
  H  H175  1  0.05092827  0.24735369  0.50470023  1
  H  H176  1  0.14222255  0.58499353  0.99703015  1
  H  H177  1  0.65902455  0.74766693  0.00107838  1
  H  H178  1  0.59830807  0.24863952  0.49316444  1
  H  H179  1  0.07519271  0.91367240  0.49820447  1
  H  H180  1  0.43891180  0.24915481  -0.00661055  1
  H  H181  1  0.35661736  0.24693183  0.51264050  1
  H  H182  1  0.61264482  0.41471531  0.50967324  1
  H  H183  1  0.63224630  0.24886720  0.98381391  1
  H  H184  1  0.82968216  0.58071548  0.50479819  1
  H  H185  1  0.28722412  0.91773897  0.49411800  1
  H  H186  1  0.59470350  0.08287510  0.99395410  1
  H  H187  1  0.94850615  0.24780619  -0.00333279  1
  H  H188  1  0.16749712  0.41305199  0.00124767  1
  H  H189  1  0.66752324  0.91598588  0.99664343  1
  H  H190  1  0.58118730  0.57917744  0.49735298  1
  H  H191  1  0.60825454  0.92742120  0.48797026  1
  Pb  Pb192  1  0.24827843  0.04991758  0.74587132  1
  Pb  Pb193  1  0.25133729  0.37955191  0.75055058  1
  Pb  Pb194  1  0.24479760  0.71542085  0.75507588  1
  Pb  Pb195  1  0.75272537  0.04675103  0.75202160  1
  Pb  Pb196  1  0.74726216  0.38241437  0.74845849  1
  Pb  Pb197  1  0.74806869  0.71410741  0.74717323  1
  Pb  Pb198  1  0.25034642  0.28600226  0.25853492  1
  Pb  Pb199  1  0.25116180  0.61974620  0.25042274  1
  Pb  Pb200  1  0.25694412  0.94977897  0.24788322  1
  Pb  Pb201  1  0.74923591  0.28624232  0.24650371  1
  Pb  Pb202  1  0.75491358  0.61774123  0.24341402  1
  Pb  Pb203  1  0.75362503  0.95479157  0.24588620  1
  Pb  Pb204  1  -0.00488595  0.21563500  0.74860794  1
  Pb  Pb205  1  -0.00104894  0.54697555  0.75015732  1
  Pb  Pb206  1  -0.00364642  0.88046793  0.75014281  1
  Pb  Pb207  1  0.50041491  0.21328333  0.74561799  1
  Pb  Pb208  1  0.49428313  0.54934345  0.75047171  1
  Pb  Pb209  1  0.49469768  0.88344873  0.74829507  1
  Pb  Pb210  1  -0.00274001  0.12080201  0.24502445  1
  Pb  Pb211  1  -0.00209039  0.45254097  0.25417373  1
  Pb  Pb212  1  0.00123631  0.78709940  0.24974846  1
  Pb  Pb213  1  0.49710200  0.11964913  0.25040347  1
  Pb  Pb214  1  0.49769598  0.45265669  0.25010348  1
  Pb  Pb215  1  0.50629957  0.78454760  0.25443736  1
  C  C216  1  0.00802280  0.04585654  0.63213618  1
  C  C217  1  0.00377414  0.37774765  0.63022649  1
  C  C218  1  -0.00394575  0.71331711  0.63307441  1
  C  C219  1  0.50926207  0.04612090  0.62841494  1
  C  C220  1  0.50530936  0.37902198  0.63324131  1
  C  C221  1  0.49494370  0.71069099  0.62997085  1
  C  C222  1  0.00693771  0.28758420  0.13322304  1
  C  C223  1  0.00596198  0.62065242  0.12982977  1
  C  C224  1  0.00237139  0.95495473  0.13488061  1
  C  C225  1  0.50366709  0.28867237  0.12956486  1
  C  C226  1  0.50959690  0.62281171  0.13241832  1
  C  C227  1  0.50259504  0.95579170  0.13191714  1
  C  C228  1  0.00047149  0.04579641  0.86521850  1
  C  C229  1  -0.00274938  0.37722765  0.86514789  1
  C  C230  1  0.00091652  0.71226698  0.86806713  1
  C  C231  1  0.50376434  0.04702351  0.87121240  1
  C  C232  1  0.49911725  0.37891369  0.87493062  1
  C  C233  1  0.49737877  0.71332136  0.87234537  1
  C  C234  1  -0.00080273  0.28719819  0.36660032  1
  C  C235  1  0.00097527  0.62037231  0.36551393  1
  C  C236  1  0.00471178  0.95520123  0.36617699  1
  C  C237  1  0.49945395  0.28610370  0.37262011  1
  C  C238  1  0.49686782  0.62068392  0.36812231  1
  C  C239  1  0.50472961  0.95288641  0.36909732  1
  C  C240  1  0.24628467  0.21341825  0.63253264  1
  C  C241  1  0.25313167  0.54590163  0.63324752  1
  C  C242  1  0.24883106  0.87844464  0.63129177  1
  C  C243  1  0.75070783  0.21173098  0.62790131  1
  C  C244  1  0.75369433  0.54609612  0.63261411  1
  C  C245  1  0.74580004  0.88072009  0.63203908  1
  C  C246  1  0.24955548  0.12264742  0.12736506  1
  C  C247  1  0.25361027  0.45426578  0.13004599  1
  C  C248  1  0.24831176  0.78627559  0.13181686  1
  C  C249  1  0.74198273  0.12080801  0.13146385  1
  C  C250  1  0.74713489  0.45422131  0.13268255  1
  C  C251  1  0.74935339  0.78763551  0.13043454  1
  C  C252  1  0.24312754  0.21228141  0.87172119  1
  C  C253  1  0.24646452  0.54600264  0.87418440  1
  C  C254  1  0.24971968  0.87633644  0.86876338  1
  C  C255  1  0.74499884  0.21299739  0.86794663  1
  C  C256  1  0.74815214  0.54338890  0.86773300  1
  C  C257  1  0.74192329  0.87894467  0.86860206  1
  C  C258  1  0.24420629  0.11905959  0.36975616  1
  C  C259  1  0.24497035  0.45484579  0.36548051  1
  C  C260  1  0.25545358  0.78609555  0.36865891  1
  C  C261  1  0.74169793  0.12066095  0.37039572  1
  C  C262  1  0.74237714  0.45494051  0.36737898  1
  C  C263  1  0.75580627  0.78845504  0.36767608  1
  C  C264  1  0.47222145  0.25481926  0.46822351  1
  C  C265  1  0.20932604  0.42465181  0.03799104  1
  C  C266  1  0.26667756  0.09486393  0.03043485  1
  C  C267  1  0.97327786  0.92642527  0.04099830  1
  C  C268  1  0.29093386  0.42440929  0.03694706  1
  C  C269  1  0.56316021  0.40474306  0.54475583  1
  C  C270  1  0.30787500  0.23849026  0.54618009  1
  C  C271  1  0.18644097  0.09784394  0.04066815  1
  C  C272  1  0.19461636  0.90864512  0.95510042  1
  C  C273  1  0.22671888  0.75801895  0.46345530  1
  C  C274  1  0.29550506  0.23531756  0.96138076  1
  C  C275  1  0.02008926  0.25926538  0.46196585  1
  C  C276  1  0.68976114  0.23666370  0.54194896  1
  C  C277  1  0.76120986  0.24142092  0.96462209  1
  C  C278  1  0.47585288  0.26072847  0.03334650  1
  C  C279  1  0.56853336  0.07705877  0.54143069  1
  C  C280  1  0.67945710  0.43053781  0.45408002  1
  C  C281  1  0.54004137  0.59163532  0.46055603  1
  C  C282  1  0.98114110  0.25910750  0.03881398  1
  C  C283  1  0.96587370  0.40679980  0.95821677  1
  C  C284  1  0.07540433  0.59917295  0.04463018  1
  C  C285  1  0.02646855  0.74089255  0.53902575  1
  C  C286  1  0.56529818  0.73693962  0.95595728  1
  C  C287  1  0.48694861  0.74064527  0.96899541  1
  C  C288  1  0.45806196  0.40639454  0.96625291  1
  C  C289  1  0.76529274  0.08875875  0.03723858  1
  C  C290  1  0.18142505  0.43354492  0.45290423  1
  C  C291  1  0.47243427  0.07801259  0.96602382  1
  C  C292  1  0.45844466  0.59263134  0.46149980  1
  C  C293  1  0.05608425  0.07022516  0.54137559  1
  C  C294  1  0.02829598  0.59250078  0.45986566  1
  C  C295  1  0.48759547  0.92417118  0.03702546  1
  C  C296  1  0.21485181  0.23745158  0.96682654  1
  C  C297  1  0.73318889  0.76036286  0.46389626  1
  C  C298  1  0.96046219  0.74204652  0.95963277  1
  C  C299  1  0.55694140  0.26337290  0.03963927  1
  C  C300  1  0.99511906  0.59520294  0.03140168  1
  C  C301  1  0.75984095  0.42648895  0.46477605  1
  C  C302  1  0.53848277  0.40734291  0.96627321  1
  C  C303  1  0.70044871  0.09311983  0.46394275  1
  C  C304  1  0.97688483  0.07520439  0.95977916  1
  C  C305  1  0.53613317  0.59302072  0.03837066  1
  C  C306  1  0.26169229  0.43138219  0.46438900  1
  C  C307  1  0.70411392  0.75839240  0.03913613  1
  C  C308  1  0.06362042  0.40800393  0.54465571  1
  C  C309  1  0.78252728  0.09367075  0.46408934  1
  C  C310  1  0.03779371  0.92529903  0.45876864  1
  C  C311  1  0.48171258  0.40747530  0.53703345  1
  N  N312  1  0.20729300  0.75817325  0.04223088  1
  N  N313  1  0.78401291  0.75730812  0.03848792  1
  N  N314  1  0.27396371  0.91094172  0.96113393  1
  N  N315  1  0.79120671  0.57208295  0.54115263  1
  N  N316  1  0.26309951  0.91079292  0.53799938  1
  N  N317  1  0.48978978  0.07778097  0.53456564  1
  N  N318  1  0.06014474  0.25981891  0.04347652  1
  N  N319  1  0.28369681  0.57252812  0.53783660  1
  N  N320  1  0.71864959  0.42620175  0.03748127  1
  N  N321  1  0.98451472  0.40962310  0.53637536  1
  N  N322  1  0.76670490  0.57509254  0.96066589  1
  N  N323  1  0.55076254  0.25682519  0.46047867  1
  N  N324  1  0.81186282  0.76168474  0.45443506  1
  N  N325  1  0.78383765  0.90709256  0.96097259  1
  N  N326  1  0.26967879  0.58094132  0.96620648  1
  N  N327  1  0.19189427  0.56989808  0.96214082  1
  N  N328  1  0.76568485  0.24094719  0.52972824  1
  N  N329  1  0.03842728  0.74206057  0.96215230  1
  N  N330  1  0.05549283  0.07525014  0.95311006  1
  N  N331  1  0.56347442  0.92611059  0.45399850  1
  N  N332  1  0.68917689  0.57211010  0.95408235  1
  N  N333  1  0.68324007  0.24043246  0.95229333  1
  N  N334  1  0.94886582  0.59245368  0.45587934  1
  N  N335  1  0.79514890  0.42786774  0.04161630  1
  N  N336  1  0.18211234  0.09809071  0.45493950  1
  N  N337  1  0.69416567  0.91176612  0.54397535  1
  N  N338  1  0.94144477  0.26131766  0.45546456  1
  N  N339  1  0.68808243  0.09214757  0.04211566  1
  N  N340  1  0.94712501  0.74098601  0.54171233  1
  N  N341  1  0.55103871  0.07535347  0.96039493  1
  N  N342  1  0.71281559  0.57265064  0.53929655  1
  N  N343  1  0.22910419  0.24141315  0.53706795  1
  N  N344  1  0.56582931  0.92659053  0.04650808  1
  N  N345  1  0.97875158  0.07283684  0.53535749  1
  N  N346  1  0.04526422  0.40577690  0.95642608  1
  N  N347  1  0.20733280  0.57208414  0.54136079  1
  N  N348  1  0.70540293  0.90755476  0.95949362  1
  N  N349  1  0.43722948  0.73172820  0.54298261  1
  N  N350  1  0.77027738  0.91305934  0.53757257  1
  N  N351  1  0.48584587  0.93254636  0.46603371  1
  N  N352  1  0.30420694  0.76012001  0.46064704  1
  N  N353  1  0.05245771  0.92765669  0.04379866  1
  N  N354  1  0.95861870  0.92654127  0.45813001  1
  N  N355  1  0.25886271  0.08493812  0.46297412  1
  N  N356  1  0.45721366  0.59413727  0.04250944  1
  N  N357  1  0.51452935  0.74443135  0.53715340  1
  N  N358  1  0.28536269  0.75835175  0.03801637  1
  N  N359  1  0.18593519  0.90809658  0.54690063  1
  N  N360  1  0.07672452  0.05452401  0.60050175  1
  N  N361  1  0.07524931  0.38976682  0.60363288  1
  N  N362  1  0.05768634  0.72414362  0.59463935  1
  N  N363  1  0.58039381  0.05843900  0.60013574  1
  N  N364  1  0.57595904  0.38718966  0.60481690  1
  N  N365  1  0.55099848  0.72145726  0.58769281  1
  N  N366  1  0.44371209  0.27677684  0.09070305  1
  N  N367  1  0.44253423  0.61296881  0.10109598  1
  N  N368  1  0.44741164  0.94226214  0.08886403  1
  N  N369  1  0.94680896  0.27580098  0.09355891  1
  N  N370  1  0.95295175  0.60885129  0.08529827  1
  N  N371  1  0.94124137  0.94273669  0.09647989  1
  N  N372  1  0.44272894  0.06041266  0.91084399  1
  N  N373  1  0.43333088  0.38907766  0.91043129  1
  N  N374  1  0.44494670  0.72630839  0.91818317  1
  N  N375  1  0.94161351  0.05740169  0.90605237  1
  N  N376  1  0.93504822  0.38979635  0.90243602  1
  N  N377  1  0.93551136  0.72410480  0.90278116  1
  N  N378  1  0.05731933  0.27521856  0.40791918  1
  N  N379  1  0.06154046  0.60919790  0.40478381  1
  N  N380  1  0.06783548  0.94231391  0.40243631  1
  N  N381  1  0.56778133  0.27606611  0.40160081  1
  N  N382  1  0.56277728  0.60932436  0.40133374  1
  N  N383  1  0.57519369  0.94780515  0.39698851  1
  N  N384  1  0.31839884  0.22163422  0.60558186  1
  N  N385  1  0.31349150  0.55623503  0.59446213  1
  N  N386  1  0.30281688  0.89073477  0.58823052  1
  N  N387  1  0.80399871  0.22468112  0.58459379  1
  N  N388  1  0.81736438  0.55604711  0.59757483  1
  N  N389  1  0.80359608  0.89406194  0.59201523  1
  N  N390  1  0.17721095  0.11494348  0.10201564  1
  N  N391  1  0.18736841  0.44341112  0.09706652  1
  N  N392  1  0.18308435  0.77590779  0.09852538  1
  N  N393  1  0.67341716  0.11230873  0.10202889  1
  N  N394  1  0.68770375  0.44249016  0.09358195  1
  N  N395  1  0.68282789  0.77598199  0.09679885  1
  N  N396  1  0.18274971  0.22339977  0.91220599  1
  N  N397  1  0.17741573  0.55631638  0.90282072  1
  N  N398  1  0.17953343  0.88890373  0.89727313  1
  N  N399  1  0.67381909  0.22318670  0.89285204  1
  N  N400  1  0.67836098  0.55419765  0.89561466  1
  N  N401  1  0.67855724  0.88929767  0.90406412  1
  N  N402  1  0.29805068  0.10779904  0.41363635  1
  N  N403  1  0.30039225  0.44478601  0.40871123  1
  N  N404  1  0.32236203  0.77741257  0.40017630  1
  N  N405  1  0.80675330  0.11097043  0.40511418  1
  N  N406  1  0.79809581  0.44221117  0.40965946  1
  N  N407  1  0.82545522  0.78010041  0.39556417  1
  N  N408  1  0.44010111  0.27255250  0.41353095  1
  N  N409  1  0.43264009  0.60997064  0.40570274  1
  N  N410  1  0.44922205  0.93850213  0.41057020  1
  N  N411  1  0.93028667  0.27824604  0.39593626  1
  N  N412  1  0.93391181  0.60950746  0.39640025  1
  N  N413  1  0.93977862  0.94521533  0.40025174  1
  N  N414  1  0.06892159  0.05680396  0.89421177  1
  N  N415  1  0.06289969  0.38731159  0.89819060  1
  N  N416  1  0.06352981  0.72322041  0.90398965  1
  N  N417  1  0.57108812  0.05574259  0.90217929  1
  N  N418  1  0.56415023  0.39072363  0.91062264  1
  N  N419  1  0.57167840  0.72056218  0.89618439  1
  N  N420  1  0.07444297  0.27750925  0.10230713  1
  N  N421  1  0.08035534  0.61462283  0.10511230  1
  N  N422  1  0.06904268  0.94545755  0.10282236  1
  N  N423  1  0.57341774  0.27989099  0.09832482  1
  N  N424  1  0.57000851  0.61037479  0.09325017  1
  N  N425  1  0.57336581  0.94614887  0.10604519  1
  N  N426  1  0.45232249  0.05631515  0.58705368  1
  N  N427  1  0.44692627  0.39123148  0.59233486  1
  N  N428  1  0.42474069  0.72045850  0.60304015  1
  N  N429  1  0.94896011  0.05720058  0.59317952  1
  N  N430  1  0.94780281  0.38791942  0.58805464  1
  N  N431  1  0.92979773  0.72382663  0.60100568  1
  N  N432  1  0.17262886  0.10984866  0.39473855  1
  N  N433  1  0.17188927  0.44752099  0.39274315  1
  N  N434  1  0.19465740  0.77404304  0.40821409  1
  N  N435  1  0.67659128  0.10926236  0.40680559  1
  N  N436  1  0.66942050  0.44756413  0.39496623  1
  N  N437  1  0.69809125  0.77624283  0.40992050  1
  N  N438  1  0.31249443  0.22016379  0.90304516  1
  N  N439  1  0.30400084  0.55735879  0.91488536  1
  N  N440  1  0.30789859  0.88739687  0.90892004  1
  N  N441  1  0.80020369  0.22449988  0.91233428  1
  N  N442  1  0.80419239  0.55530141  0.90935591  1
  N  N443  1  0.80572542  0.89037544  0.90388827  1
  N  N444  1  0.30471966  0.10960198  0.08276706  1
  N  N445  1  0.31743524  0.44205247  0.09253659  1
  N  N446  1  0.31040054  0.77490443  0.09454374  1
  N  N447  1  0.80043851  0.10639861  0.09073826  1
  N  N448  1  0.81394119  0.44508818  0.10071326  1
  N  N449  1  0.81179934  0.77716686  0.09416450  1
  N  N450  1  0.19101872  0.22512930  0.59015498  1
  N  N451  1  0.18720476  0.55564074  0.60050904  1
  N  N452  1  0.17784218  0.88968079  0.60560687  1
  N  N453  1  0.67818902  0.21975360  0.60201168  1
  N  N454  1  0.69041709  0.55681100  0.59643135  1
  N  N455  1  0.67765352  0.89138824  0.60236193  1
  Cl  Cl456  1  0.26631718  0.06288635  0.60323161  1
  Cl  Cl457  1  0.26095337  0.38533850  0.61527318  1
  Cl  Cl458  1  0.24238454  0.72030928  0.62092806  1
  Cl  Cl459  1  0.76446954  0.05870089  0.61887992  1
  Cl  Cl460  1  0.76464941  0.39057209  0.61333905  1
  Cl  Cl461  1  0.73633596  0.72390626  0.60964035  1
  Cl  Cl462  1  0.25868365  0.27956411  0.12735956  1
  Cl  Cl463  1  0.26150883  0.60568278  0.11376049  1
  Cl  Cl464  1  0.26224149  0.93884047  0.10857503  1
  Cl  Cl465  1  0.76052304  0.27582215  0.11098085  1
  Cl  Cl466  1  0.76394687  0.60816691  0.10243123  1
  Cl  Cl467  1  0.75657670  0.94615640  0.11258103  1
  Cl  Cl468  1  0.25810193  0.05244955  0.87702926  1
  Cl  Cl469  1  0.24779256  0.38393242  0.88236573  1
  Cl  Cl470  1  0.25017109  0.72254976  0.88950378  1
  Cl  Cl471  1  0.75609152  0.05471583  0.88579395  1
  Cl  Cl472  1  0.75042390  0.38275922  0.87878320  1
  Cl  Cl473  1  0.75675662  0.72098133  0.88138691  1
  Cl  Cl474  1  0.24687125  0.27270666  0.39809998  1
  Cl  Cl475  1  0.24618722  0.61722376  0.37872413  1
  Cl  Cl476  1  0.26507374  0.94079965  0.39624583  1
  Cl  Cl477  1  0.74770462  0.28075779  0.37357860  1
  Cl  Cl478  1  0.75023845  0.61454499  0.37655550  1
  Cl  Cl479  1  0.75542383  0.94776684  0.37713458  1
  Cl  Cl480  1  0.00497792  0.22446425  0.61125904  1
  Cl  Cl481  1  0.00182857  0.55335200  0.61566838  1
  Cl  Cl482  1  -0.00820805  0.88863164  0.61738969  1
  Cl  Cl483  1  0.49839219  0.21870401  0.61140151  1
  Cl  Cl484  1  0.50202176  0.55880803  0.61522962  1
  Cl  Cl485  1  0.48768044  0.88819111  0.60313942  1
  Cl  Cl486  1  -0.01635838  0.11166650  0.11055008  1
  Cl  Cl487  1  -0.00276957  0.44602286  0.12298803  1
  Cl  Cl488  1  -0.00291671  0.77790694  0.11773272  1
  Cl  Cl489  1  0.48719128  0.10824846  0.11716309  1
  Cl  Cl490  1  0.50315694  0.44491628  0.11806898  1
  Cl  Cl491  1  0.49645330  0.78152023  0.12290314  1
  Cl  Cl492  1  -0.01307893  0.22266791  0.88476422  1
  Cl  Cl493  1  -0.01060386  0.55577652  0.88519881  1
  Cl  Cl494  1  -0.00950784  0.88635996  0.88459394  1
  Cl  Cl495  1  0.49332968  0.21389480  0.87712873  1
  Cl  Cl496  1  0.48942744  0.55542466  0.88401581  1
  Cl  Cl497  1  0.49285258  0.89230574  0.88546420  1
  Cl  Cl498  1  -0.00650813  0.11810706  0.37491422  1
  Cl  Cl499  1  -0.01692403  0.43919911  0.39123623  1
  Cl  Cl500  1  0.01065649  0.77630339  0.38493025  1
  Cl  Cl501  1  0.48164674  0.10547385  0.39608533  1
  Cl  Cl502  1  0.48385232  0.44543304  0.38475066  1
  Cl  Cl503  1  0.51193735  0.77501354  0.39569177  1
  Cl  Cl504  1  0.36449265  0.14737635  0.74302810  1
  Cl  Cl505  1  0.35550566  0.48462280  0.75309205  1
  Cl  Cl506  1  0.35980433  0.81507924  0.74697444  1
  Cl  Cl507  1  0.85525330  0.15265411  0.75048936  1
  Cl  Cl508  1  0.86244142  0.48084758  0.75090321  1
  Cl  Cl509  1  0.85567589  0.81716791  0.75040417  1
  Cl  Cl510  1  0.13476217  0.18796261  0.24852071  1
  Cl  Cl511  1  0.13386653  0.52163027  0.25044773  1
  Cl  Cl512  1  0.13723368  0.85502420  0.24646598  1
  Cl  Cl513  1  0.63371176  0.18716392  0.24579585  1
  Cl  Cl514  1  0.63459767  0.52218386  0.25405657  1
  Cl  Cl515  1  0.64137333  0.85360526  0.25064221  1
  Cl  Cl516  1  0.14456596  0.14540606  0.75112020  1
  Cl  Cl517  1  0.13554394  0.47845285  0.75378024  1
  Cl  Cl518  1  0.13931500  0.81484230  0.75189242  1
  Cl  Cl519  1  0.63483025  0.14417166  0.75161122  1
  Cl  Cl520  1  0.64455476  0.48060057  0.74723461  1
  Cl  Cl521  1  0.63506120  0.81302667  0.74821880  1
  Cl  Cl522  1  0.35520687  0.18095593  0.25577728  1
  Cl  Cl523  1  0.35756545  0.51709213  0.24799222  1
  Cl  Cl524  1  0.35558714  0.85230867  0.25585657  1
  Cl  Cl525  1  0.85570112  0.18352879  0.24982885  1
  Cl  Cl526  1  0.85711955  0.51952329  0.25077880  1
  Cl  Cl527  1  0.86027578  0.85070476  0.25040380  1
  Cl  Cl528  1  0.11576700  0.31150166  0.74466993  1
  Cl  Cl529  1  0.10863375  0.64860194  0.75464279  1
  Cl  Cl530  1  0.11559197  0.97843318  0.74720870  1
  Cl  Cl531  1  0.61279617  0.31301657  0.74927185  1
  Cl  Cl532  1  0.61412397  0.64570385  0.75643808  1
  Cl  Cl533  1  0.61372175  0.97932664  0.74607373  1
  Cl  Cl534  1  0.39270647  0.01479626  0.25448699  1
  Cl  Cl535  1  0.39228259  0.34804354  0.25380817  1
  Cl  Cl536  1  0.38887154  0.68684041  0.25061539  1
  Cl  Cl537  1  0.89403356  0.01607411  0.25202907  1
  Cl  Cl538  1  0.88865108  0.35104581  0.25079118  1
  Cl  Cl539  1  0.89217749  0.68421503  0.25374617  1
  Cl  Cl540  1  0.39283849  0.31556087  0.74978852  1
  Cl  Cl541  1  0.39550114  0.64924860  0.74646324  1
  Cl  Cl542  1  0.39695499  0.98178770  0.74645885  1
  Cl  Cl543  1  0.89622574  0.31399386  0.74694104  1
  Cl  Cl544  1  0.88802322  0.64858029  0.74268590  1
  Cl  Cl545  1  0.89559187  0.98626030  0.75198091  1
  Cl  Cl546  1  0.11341472  0.02311984  0.24784029  1
  Cl  Cl547  1  0.11202752  0.35458595  0.25445289  1
  Cl  Cl548  1  0.11528340  0.68831308  0.24137906  1
  Cl  Cl549  1  0.61269749  0.02109451  0.25091750  1
  Cl  Cl550  1  0.61165121  0.35337278  0.25340086  1
  Cl  Cl551  1  0.60841489  0.68875301  0.25175984  1
