# generated using pymatgen
data_H8PbC4(N3Cl2)2
_symmetry_space_group_name_H-M   'P 1'
_cell_length_a   16.62577605
_cell_length_b   22.51513340
_cell_length_c   21.59615195
_cell_angle_alpha   89.99938438
_cell_angle_beta   90.02369225
_cell_angle_gamma   89.99387799
_symmetry_Int_Tables_number   1
_chemical_formula_structural   H8PbC4(N3Cl2)2
_chemical_formula_sum   'H192 Pb24 C96 N144 Cl96'
_cell_volume   8084.12063000
_cell_formula_units_Z   24
loop_
 _symmetry_equiv_pos_site_id
 _symmetry_equiv_pos_as_xyz
  1  'x, y, z'
loop_
 _atom_site_type_symbol
 _atom_site_label
 _atom_site_symmetry_multiplicity
 _atom_site_fract_x
 _atom_site_fract_y
 _atom_site_fract_z
 _atom_site_occupancy
  H  H0  1  -0.00781856  0.02755315  0.67919885  1
  H  H1  1  -0.00521742  0.36077340  0.67684535  1
  H  H2  1  0.00883048  0.69859670  0.67440917  1
  H  H3  1  0.50312472  0.03086253  0.67783983  1
  H  H4  1  0.51594315  0.36595928  0.67626322  1
  H  H5  1  0.49193716  0.69415886  0.67893781  1
  H  H6  1  -0.00784075  0.30193781  0.18190733  1
  H  H7  1  -0.01627021  0.63737747  0.17415423  1
  H  H8  1  0.00481468  0.97029170  0.18316727  1
  H  H9  1  0.49590238  0.30299756  0.17879485  1
  H  H10  1  0.51527822  0.63367271  0.17941632  1
  H  H11  1  0.50569085  0.96882335  0.18334532  1
  H  H12  1  -0.00386070  0.02851238  0.82275601  1
  H  H13  1  -0.00981436  0.36316207  0.82267850  1
  H  H14  1  -0.01255294  0.69860276  0.81979870  1
  H  H15  1  0.50018344  0.03266995  0.82539077  1
  H  H16  1  0.49455186  0.36425266  0.82380031  1
  H  H17  1  0.50121617  0.69752078  0.81697357  1
  H  H18  1  -0.00936452  0.30269369  0.32398937  1
  H  H19  1  0.00878594  0.63795214  0.32106060  1
  H  H20  1  0.00844921  0.96931155  0.32669284  1
  H  H21  1  0.49502102  0.30612595  0.32313992  1
  H  H22  1  0.49820734  0.63982652  0.32453938  1
  H  H23  1  0.49169039  0.96957766  0.32166729  1
  H  H24  1  0.25159696  0.19763551  0.67690128  1
  H  H25  1  0.23625326  0.53034111  0.68087405  1
  H  H26  1  0.25189045  0.86063630  0.67630674  1
  H  H27  1  0.74747734  0.19806309  0.67763633  1
  H  H28  1  0.75602340  0.52413250  0.67769774  1
  H  H29  1  0.75533373  0.86107828  0.67997490  1
  H  H30  1  0.24682657  0.13863012  0.17655154  1
  H  H31  1  0.24044631  0.47104445  0.18076579  1
  H  H32  1  0.24824700  0.80281351  0.18035744  1
  H  H33  1  0.74891085  0.13628124  0.17201191  1
  H  H34  1  0.75768678  0.46760107  0.17749445  1
  H  H35  1  0.75486144  0.80108115  0.18461622  1
  H  H36  1  0.25871894  0.19281770  0.82179966  1
  H  H37  1  0.24959878  0.52986772  0.82238519  1
  H  H38  1  0.24822240  0.86854216  0.81571149  1
  H  H39  1  0.74697243  0.19203259  0.82197210  1
  H  H40  1  0.74991950  0.52686975  0.81720881  1
  H  H41  1  0.74966867  0.86954152  0.81455522  1
  H  H42  1  0.23916830  0.13520743  0.32261761  1
  H  H43  1  0.24596092  0.47076769  0.31701252  1
  H  H44  1  0.25149544  0.80614248  0.31990093  1
  H  H45  1  0.75102350  0.13903152  0.32396415  1
  H  H46  1  0.75582585  0.47229003  0.32184175  1
  H  H47  1  0.74031225  0.80410757  0.32510639  1
  H  H48  1  0.11820194  0.05115747  0.60938978  1
  H  H49  1  0.11799751  0.38842630  0.60501697  1
  H  H50  1  0.11465408  0.72450857  0.59003526  1
  H  H51  1  0.61255373  0.05860054  0.59545117  1
  H  H52  1  0.61916151  0.39254985  0.59146385  1
  H  H53  1  0.61716494  0.72086803  0.61038030  1
  H  H54  1  0.38735525  0.27311272  0.09819419  1
  H  H55  1  0.37076973  0.62071399  0.13259669  1
  H  H56  1  0.37432587  0.94972142  0.11712419  1
  H  H57  1  0.88153934  0.27726229  0.10263382  1
  H  H58  1  0.88289359  0.60433351  0.08897778  1
  H  H59  1  0.87497037  0.95291696  0.11422220  1
  H  H60  1  0.37785796  0.05583497  0.89475991  1
  H  H61  1  0.38100822  0.39088959  0.90290168  1
  H  H62  1  0.37829753  0.71962354  0.88866219  1
  H  H63  1  0.87313646  0.05743795  0.89150100  1
  H  H64  1  0.87863293  0.39099161  0.90193931  1
  H  H65  1  0.88672171  0.72396728  0.90569571  1
  H  H66  1  0.13167824  0.28272905  0.37452758  1
  H  H67  1  0.11718738  0.60881988  0.40348965  1
  H  H68  1  0.13146898  0.94631230  0.39563429  1
  H  H69  1  0.62837869  0.28214780  0.38396469  1
  H  H70  1  0.62283833  0.61102240  0.39244430  1
  H  H71  1  0.63299700  0.95295035  0.37167311  1
  H  H72  1  0.36469203  0.22523479  0.59729974  1
  H  H73  1  0.38012031  0.54597513  0.63380692  1
  H  H74  1  0.36445458  0.88961331  0.59676598  1
  H  H75  1  0.86803192  0.22205422  0.60404641  1
  H  H76  1  0.87625360  0.55499210  0.60551574  1
  H  H77  1  0.86983756  0.88836031  0.60041657  1
  H  H78  1  0.12517156  0.11084769  0.10542770  1
  H  H79  1  0.12208664  0.44318746  0.10663839  1
  H  H80  1  0.12045718  0.78141190  0.11576216  1
  H  H81  1  0.62572946  0.11247245  0.10347442  1
  H  H82  1  0.62227308  0.44715199  0.11627729  1
  H  H83  1  0.62083994  0.78233921  0.12468852  1
  H  H84  1  0.11899943  0.21476554  0.87280994  1
  H  H85  1  0.12658460  0.55547460  0.89426248  1
  H  H86  1  0.12682504  0.88839794  0.88874443  1
  H  H87  1  0.61597929  0.21665760  0.88759189  1
  H  H88  1  0.62463201  0.55263555  0.88707237  1
  H  H89  1  0.62694350  0.89060573  0.88586885  1
  H  H90  1  0.38040007  0.11814950  0.37387747  1
  H  H91  1  0.37749147  0.44770714  0.38305224  1
  H  H92  1  0.38321790  0.77998273  0.38533203  1
  H  H93  1  0.88097096  0.11426294  0.38727921  1
  H  H94  1  0.87784910  0.44289070  0.39470248  1
  H  H95  1  0.88079706  0.78808306  0.37660079  1
  H  H96  1  0.38173372  0.27644246  0.40216824  1
  H  H97  1  0.37368310  0.61260879  0.39245898  1
  H  H98  1  0.38813506  0.94257536  0.40590814  1
  H  H99  1  0.88749394  0.27304422  0.41004806  1
  H  H100  1  0.87063718  0.61540909  0.37463076  1
  H  H101  1  0.88303778  0.94711952  0.39306828  1
  H  H102  1  0.12238714  0.05393941  0.89237657  1
  H  H103  1  0.12592027  0.38409167  0.88273871  1
  H  H104  1  0.13107902  0.71470340  0.86855192  1
  H  H105  1  0.62662610  0.05402342  0.89142509  1
  H  H106  1  0.62890962  0.38557639  0.88287566  1
  H  H107  1  0.62755457  0.72000193  0.88837397  1
  H  H108  1  0.12903604  0.28326481  0.12422596  1
  H  H109  1  0.12576733  0.62004077  0.12347965  1
  H  H110  1  0.12382007  0.94549622  0.10980235  1
  H  H111  1  0.63457680  0.28031395  0.12374137  1
  H  H112  1  0.61302951  0.60752753  0.09157652  1
  H  H113  1  0.62323724  0.94890742  0.10634726  1
  H  H114  1  0.36661600  0.05153573  0.61852965  1
  H  H115  1  0.37557057  0.38274349  0.62745495  1
  H  H116  1  0.36863382  0.72006645  0.60660318  1
  H  H117  1  0.86926181  0.05252133  0.60696503  1
  H  H118  1  0.86891028  0.38771119  0.60833547  1
  H  H119  1  0.86965252  0.71969173  0.61989062  1
  H  H120  1  0.13475903  0.10743976  0.40547468  1
  H  H121  1  0.12927304  0.44334136  0.39498868  1
  H  H122  1  0.13515532  0.78077920  0.39801137  1
  H  H123  1  0.63197825  0.11084311  0.39797453  1
  H  H124  1  0.62934459  0.44650634  0.39151208  1
  H  H125  1  0.63590262  0.77457961  0.40727798  1
  H  H126  1  0.36366077  0.22273889  0.90629700  1
  H  H127  1  0.37505590  0.55385748  0.89096985  1
  H  H128  1  0.37613232  0.88529105  0.88360104  1
  H  H129  1  0.86422743  0.22060215  0.89920731  1
  H  H130  1  0.87432115  0.55266138  0.88589641  1
  H  H131  1  0.87632043  0.88554836  0.88375421  1
  H  H132  1  0.37450215  0.11314165  0.10913687  1
  H  H133  1  0.37074857  0.44826946  0.11472872  1
  H  H134  1  0.36931484  0.77840153  0.10839107  1
  H  H135  1  0.87453401  0.11534274  0.10517927  1
  H  H136  1  0.86900327  0.44087301  0.09683712  1
  H  H137  1  0.86920999  0.77834590  0.10716033  1
  H  H138  1  0.11749113  0.21884462  0.61470118  1
  H  H139  1  0.13735765  0.55742037  0.59396711  1
  H  H140  1  0.11742600  0.88424880  0.61560179  1
  H  H141  1  0.61975979  0.22372482  0.60922522  1
  H  H142  1  0.62788640  0.55009507  0.61306578  1
  H  H143  1  0.62228381  0.88503269  0.61656651  1
  H  H144  1  0.80957483  0.75080005  -0.00151565  1
  H  H145  1  0.15457031  0.74984004  0.00334200  1
  H  H146  1  0.41772163  0.95700817  0.00704757  1
  H  H147  1  0.46093619  0.91598338  0.51028749  1
  H  H148  1  0.03836449  0.76675866  0.49816360  1
  H  H149  1  0.70826444  0.74532262  0.51154349  1
  H  H150  1  0.61041024  0.24882300  0.01623779  1
  H  H151  1  0.39167093  0.08140486  0.50845420  1
  H  H152  1  0.82754889  0.57854488  0.99739066  1
  H  H153  1  0.20701108  0.07837273  0.50993354  1
  H  H154  1  0.13411197  0.24762673  0.98682391  1
  H  H155  1  0.04594413  0.58608907  0.50442531  1
  H  H156  1  0.41413057  0.57846601  0.50143369  1
  H  H157  1  0.62039123  0.92116664  0.48507638  1
  H  H158  1  0.42812390  0.74760810  0.99774160  1
  H  H159  1  0.33480213  0.58583221  1.00040620  1
  H  H160  1  0.83360577  0.89412186  0.99940945  1
  H  H161  1  0.29456445  0.91620611  0.49483696  1
  H  H162  1  0.17658518  0.89858818  1.00320397  1
  H  H163  1  0.45604467  0.24125075  -0.00575811  1
  H  H164  1  0.69156534  0.07971691  0.50095899  1
  H  H165  1  0.57634688  0.58289584  0.49782926  1
  H  H166  1  0.88662684  0.74984652  0.50817940  1
  H  H167  1  0.06106478  0.41649583  0.50084432  1
  H  H168  1  0.56649224  0.93902920  -0.00587958  1
  H  H169  1  0.67445907  0.57137539  0.99466673  1
  H  H170  1  0.94653201  0.24742160  -0.00478734  1
  H  H171  1  0.38771225  0.41366352  0.51180193  1
  H  H172  1  0.10905548  0.58131193  0.01833217  1
  H  H173  1  0.44537322  0.42085997  1.00362072  1
  H  H174  1  0.53308695  0.58406060  -0.01139055  1
  H  H175  1  0.42046091  0.75037786  0.50462356  1
  H  H176  1  0.66658683  0.25259492  0.50491763  1
  H  H177  1  0.65243400  0.41871383  0.00885013  1
  H  H178  1  0.64843440  0.75354949  0.01174002  1
  H  H179  1  0.28867475  0.24398606  1.00615939  1
  H  H180  1  0.67454130  0.90595991  0.99996175  1
  H  H181  1  0.92147407  0.95404108  0.00499250  1
  H  H182  1  0.96441523  0.58842688  -0.01007798  1
  H  H183  1  0.91874890  0.08179585  0.49925585  1
  H  H184  1  0.07065250  0.93328787  -0.00371985  1
  H  H185  1  0.17893979  0.41287615  0.00018550  1
  H  H186  1  0.14952040  0.24674199  0.50603156  1
  H  H187  1  0.21627171  0.58298232  0.49097434  1
  H  H188  1  0.96414220  0.75266181  1.00923607  1
  H  H189  1  0.33607926  0.89040879  0.99969821  1
  H  H190  1  0.44960251  0.25119042  0.50393257  1
  H  H191  1  0.89195697  0.58222305  0.48664683  1
  Pb  Pb192  1  0.24629248  0.04733470  0.75359938  1
  Pb  Pb193  1  0.24683735  0.38086592  0.75347774  1
  Pb  Pb194  1  0.25087481  0.71320905  0.74257648  1
  Pb  Pb195  1  0.74961292  0.04904704  0.74074770  1
  Pb  Pb196  1  0.75002189  0.37905579  0.74994972  1
  Pb  Pb197  1  0.74634242  0.71412617  0.75622451  1
  Pb  Pb198  1  0.25903014  0.28252566  0.24536048  1
  Pb  Pb199  1  0.25424999  0.61803679  0.25678656  1
  Pb  Pb200  1  0.25255053  0.95440785  0.25579476  1
  Pb  Pb201  1  0.75739578  0.28453956  0.25671581  1
  Pb  Pb202  1  0.75111283  0.61954776  0.23712012  1
  Pb  Pb203  1  0.75829026  0.95100526  0.24438814  1
  Pb  Pb204  1  -0.00347918  0.21288153  0.75118245  1
  Pb  Pb205  1  -0.00130952  0.54905562  0.74502357  1
  Pb  Pb206  1  -0.00199643  0.88005625  0.75207384  1
  Pb  Pb207  1  0.49536832  0.21495887  0.74838059  1
  Pb  Pb208  1  0.50154145  0.54477176  0.75046781  1
  Pb  Pb209  1  0.49775944  0.88292825  0.75178441  1
  Pb  Pb210  1  0.00291198  0.12052367  0.25365610  1
  Pb  Pb211  1  0.00264113  0.45095404  0.25156371  1
  Pb  Pb212  1  0.00682336  0.78397430  0.25294858  1
  Pb  Pb213  1  0.50887632  0.11713634  0.25106374  1
  Pb  Pb214  1  0.50702514  0.45159484  0.24594824  1
  Pb  Pb215  1  0.50125438  0.78681110  0.25416524  1
  C  C216  1  -0.00681327  0.04349204  0.63182260  1
  C  C217  1  -0.00569039  0.37826386  0.63014808  1
  C  C218  1  -0.00265114  0.71410193  0.62744152  1
  C  C219  1  0.49363304  0.04664669  0.63086132  1
  C  C220  1  0.50239676  0.38032190  0.62951365  1
  C  C221  1  0.49224281  0.71164449  0.63219715  1
  C  C222  1  0.00070987  0.28791309  0.13432272  1
  C  C223  1  -0.00246657  0.62123881  0.12782167  1
  C  C224  1  0.00025884  0.95681441  0.13491189  1
  C  C225  1  0.50662342  0.28671588  0.13207187  1
  C  C226  1  0.49971119  0.62072722  0.13252938  1
  C  C227  1  0.50008765  0.95641786  0.13488480  1
  C  C228  1  -0.00239622  0.04624270  0.86926311  1
  C  C229  1  -0.00131260  0.37914248  0.86940264  1
  C  C230  1  0.00170928  0.71278738  0.86657129  1
  C  C231  1  0.50152444  0.04772523  0.87312187  1
  C  C232  1  0.50121108  0.38007607  0.87096291  1
  C  C233  1  0.50273915  0.71295767  0.86462171  1
  C  C234  1  0.00314665  0.28682498  0.37021704  1
  C  C235  1  -0.00099796  0.62211138  0.36805454  1
  C  C236  1  0.00771905  0.95394281  0.37414940  1
  C  C237  1  0.50137183  0.28962059  0.37004661  1
  C  C238  1  0.49860359  0.62198823  0.37130553  1
  C  C239  1  0.50491880  0.95496021  0.36858504  1
  C  C240  1  0.24420331  0.21327431  0.62971473  1
  C  C241  1  0.25135053  0.54393725  0.63411826  1
  C  C242  1  0.24481219  0.87708936  0.62940867  1
  C  C243  1  0.74452870  0.21419250  0.63044602  1
  C  C244  1  0.75373973  0.54225368  0.63151729  1
  C  C245  1  0.74910531  0.87746340  0.63299726  1
  C  C246  1  0.24914011  0.12087004  0.13009144  1
  C  C247  1  0.24471971  0.45426532  0.13384060  1
  C  C248  1  0.24548081  0.78724451  0.13291370  1
  C  C249  1  0.74979333  0.12099983  0.12430282  1
  C  C250  1  0.74915116  0.45190680  0.13044032  1
  C  C251  1  0.74790762  0.78674329  0.13685379  1
  C  C252  1  0.24711120  0.20852448  0.86864069  1
  C  C253  1  0.25030212  0.54586269  0.86975733  1
  C  C254  1  0.25053411  0.87985993  0.86462615  1
  C  C255  1  0.74234872  0.20856339  0.86913521  1
  C  C256  1  0.74893157  0.54302387  0.86466608  1
  C  C257  1  0.75106423  0.88115560  0.86337955  1
  C  C258  1  0.25145312  0.12016663  0.36947571  1
  C  C259  1  0.25083823  0.45458989  0.36421807  1
  C  C260  1  0.25679308  0.78952846  0.36695614  1
  C  C261  1  0.75436920  0.12199915  0.37075361  1
  C  C262  1  0.75438660  0.45486573  0.36866376  1
  C  C263  1  0.75250923  0.78865446  0.37182741  1
  C  C264  1  0.29557063  0.89196217  0.96029247  1
  C  C265  1  0.95822012  0.07123484  0.53875745  1
  C  C266  1  0.07040610  0.73620864  0.95046286  1
  C  C267  1  0.06413206  0.25964097  0.45514096  1
  C  C268  1  0.18373592  0.23768049  0.95278486  1
  C  C269  1  0.24286180  0.57072337  0.53538148  1
  C  C270  1  0.42805349  0.59974683  0.04912449  1
  C  C271  1  0.50691192  0.59512101  0.03329849  1
  C  C272  1  0.71119807  0.09272225  0.03252627  1
  C  C273  1  0.05894839  0.26368747  0.04621323  1
  C  C274  1  0.28166425  0.75903391  0.03926959  1
  C  C275  1  0.79422511  0.89477850  0.95927662  1
  C  C276  1  0.43789096  0.40531988  0.54330386  1
  C  C277  1  0.21371984  0.89427586  0.96201408  1
  C  C278  1  0.81859521  0.76277846  0.45737144  1
  C  C279  1  0.21498273  0.42475695  0.04036403  1
  C  C280  1  0.21513064  0.08685815  0.03918607  1
  C  C281  1  0.32201179  0.56644599  0.55070738  1
  C  C282  1  0.79177003  0.09407941  0.03302471  1
  C  C283  1  0.70996126  0.57418150  0.54166703  1
  C  C284  1  0.23662090  0.09116955  0.46691964  1
  C  C285  1  0.96132485  0.07977872  0.95995459  1
  C  C286  1  0.31677212  0.09545689  0.45491673  1
  C  C287  1  0.20036098  0.75991090  0.04019692  1
  C  C288  1  0.54437118  0.07435906  0.96433451  1
  C  C289  1  0.03615851  0.93723190  0.03887546  1
  C  C290  1  0.48531387  0.25449155  0.03720590  1
  C  C291  1  0.48960552  0.92742993  0.46642417  1
  C  C292  1  0.04684661  0.92615126  0.46614029  1
  C  C293  1  0.46683971  0.73806775  0.95817588  1
  C  C294  1  0.51824184  0.40834459  0.53231518  1
  C  C295  1  0.57009466  0.93031513  0.45395313  1
  C  C296  1  0.97842636  0.26036087  0.03705072  1
  C  C297  1  0.80430479  0.09056853  0.46015291  1
  C  C298  1  0.73781890  0.75811068  0.46850015  1
  C  C299  1  0.99110630  0.74025615  0.96511895  1
  C  C300  1  0.46395288  0.07547943  0.96523444  1
  C  C301  1  0.53321846  0.94001280  0.03760791  1
  C  C302  1  0.55715922  0.40753437  0.95980150  1
  C  C303  1  0.45693947  0.59028330  0.46272440  1
  C  C304  1  0.69412091  0.76274882  0.04657184  1
  C  C305  1  0.29019166  0.57374304  0.96195460  1
  C  C306  1  0.79004039  0.57050765  0.95697379  1
  C  C307  1  0.93902082  0.59198933  0.45314263  1
  C  C308  1  0.71245529  0.89826835  0.95974560  1
  C  C309  1  0.96586778  0.92618310  0.46538099  1
  C  C310  1  0.77575157  0.76133124  0.04017797  1
  C  C311  1  0.97593754  0.41092312  0.96361319  1
  N  N312  1  0.93716186  0.74470207  0.54402058  1
  N  N313  1  0.03851640  0.07807483  0.96171370  1
  N  N314  1  0.01445014  0.73886791  0.53118802  1
  N  N315  1  0.78987499  0.42359084  0.46146868  1
  N  N316  1  0.21076236  0.57321370  0.96399710  1
  N  N317  1  0.78786157  0.57598955  0.53826959  1
  N  N318  1  0.22734484  0.76023667  0.46170720  1
  N  N319  1  0.06192314  0.59873569  0.04396265  1
  N  N320  1  0.71374675  0.42463413  0.46049170  1
  N  N321  1  0.29777732  0.42696046  0.45488641  1
  N  N322  1  0.19492819  0.23870400  0.54125074  1
  N  N323  1  0.27254730  0.24112987  0.53423857  1
  N  N324  1  0.30389077  0.76019686  0.45740362  1
  N  N325  1  0.47816833  0.40955478  0.96523655  1
  N  N326  1  0.01789418  0.58974110  0.46199089  1
  N  N327  1  0.29246398  0.08763219  0.03895352  1
  N  N328  1  0.53678204  0.58970443  0.46164057  1
  N  N329  1  0.53601520  0.74127732  0.54074498  1
  N  N330  1  0.18915021  0.90627355  0.54181530  1
  N  N331  1  0.69794800  0.42625317  0.04273678  1
  N  N332  1  0.26686660  0.90837450  0.53691397  1
  N  N333  1  0.98818524  0.25594822  0.46761274  1
  N  N334  1  0.77173953  0.23879852  0.96329326  1
  N  N335  1  0.51745528  0.07519587  0.53497922  1
  N  N336  1  0.22179336  0.42586737  0.45917647  1
  N  N337  1  0.45296498  0.93952239  0.04168058  1
  N  N338  1  0.03754949  0.07124219  0.53910678  1
  N  N339  1  0.05323872  0.40880716  0.95858289  1
  N  N340  1  0.26225132  0.24020404  0.96302399  1
  N  N341  1  0.95616291  0.93964130  0.04125964  1
  N  N342  1  0.77559020  0.90672671  0.53800454  1
  N  N343  1  0.78317624  0.24248946  0.53727202  1
  N  N344  1  0.55677766  0.26213436  0.45824296  1
  N  N345  1  0.69566527  0.23682008  0.95953515  1
  N  N346  1  0.70001270  0.90509960  0.54329946  1
  N  N347  1  0.98515323  0.58551339  0.03486880  1
  N  N348  1  0.77555760  0.42422509  0.03455565  1
  N  N349  1  0.72523431  0.08926252  0.46250876  1
  N  N350  1  0.70510266  0.24285198  0.54070563  1
  N  N351  1  0.02735615  0.40919943  0.53970287  1
  N  N352  1  0.29426984  0.42630577  0.04268446  1
  N  N353  1  0.71032549  0.57166938  0.95615378  1
  N  N354  1  0.47892164  0.25896743  0.46287116  1
  N  N355  1  0.94939528  0.40897462  0.53951752  1
  N  N356  1  0.54600698  0.73867358  0.95830026  1
  N  N357  1  0.44019806  0.07252847  0.54357076  1
  N  N358  1  0.56379165  0.25650771  0.04729202  1
  N  N359  1  0.45762552  0.74136578  0.54151099  1
  N  N360  1  0.05742114  0.05370670  0.59717475  1
  N  N361  1  0.05666023  0.38919151  0.59396577  1
  N  N362  1  0.05233610  0.72872152  0.58578291  1
  N  N363  1  0.55021966  0.05936469  0.58936120  1
  N  N364  1  0.55708840  0.39334680  0.58425210  1
  N  N365  1  0.55672930  0.72357574  0.59791500  1
  N  N366  1  0.44946336  0.27317372  0.08988106  1
  N  N367  1  0.42451114  0.61498190  0.10911226  1
  N  N368  1  0.43356273  0.95370183  0.10177492  1
  N  N369  1  0.94310924  0.27595922  0.09329456  1
  N  N370  1  0.94467272  0.60945697  0.08340385  1
  N  N371  1  0.93485053  0.95541859  0.10032476  1
  N  N372  1  0.43716775  0.05934760  0.90958311  1
  N  N373  1  0.44311532  0.39197512  0.91061352  1
  N  N374  1  0.43888412  0.72284014  0.90104926  1
  N  N375  1  0.93328385  0.06033183  0.90450677  1
  N  N376  1  0.94018155  0.39309674  0.91036669  1
  N  N377  1  0.94894852  0.72524708  0.91122698  1
  N  N378  1  0.07608606  0.27783880  0.39545477  1
  N  N379  1  0.05484800  0.61159810  0.41036196  1
  N  N380  1  0.07246065  0.94290131  0.41045487  1
  N  N381  1  0.56988793  0.27937244  0.39981295  1
  N  N382  1  0.56231945  0.61123607  0.40610773  1
  N  N383  1  0.57797471  0.94707373  0.39335764  1
  N  N384  1  0.30275000  0.22557045  0.58965543  1
  N  N385  1  0.32643577  0.55058639  0.61040853  1
  N  N386  1  0.30250770  0.88871725  0.58896091  1
  N  N387  1  0.80717158  0.22490087  0.59357109  1
  N  N388  1  0.81521750  0.55589432  0.59554527  1
  N  N389  1  0.80769880  0.88972922  0.59336066  1
  N  N390  1  0.18567246  0.10695334  0.09382286  1
  N  N391  1  0.18305770  0.44135080  0.09599429  1
  N  N392  1  0.17907407  0.77757555  0.09987322  1
  N  N393  1  0.68508938  0.10892528  0.08835826  1
  N  N394  1  0.68082105  0.44307539  0.10072744  1
  N  N395  1  0.67839971  0.77830673  0.10673995  1
  N  N396  1  0.17449503  0.21966386  0.89369787  1
  N  N397  1  0.18741861  0.55607869  0.90563237  1
  N  N398  1  0.18688844  0.88683406  0.90218534  1
  N  N399  1  0.67579718  0.21766713  0.90140146  1
  N  N400  1  0.68516907  0.55146024  0.90007460  1
  N  N401  1  0.68681942  0.88979429  0.89981545  1
  N  N402  1  0.32506899  0.11262845  0.39542805  1
  N  N403  1  0.31742792  0.44432242  0.39621297  1
  N  N404  1  0.32312619  0.77805718  0.39857237  1
  N  N405  1  0.82242085  0.11007036  0.40311164  1
  N  N406  1  0.81672736  0.44217804  0.40458160  1
  N  N407  1  0.82605561  0.78112293  0.39790902  1
  N  N408  1  0.44357732  0.27789836  0.41028371  1
  N  N409  1  0.43339494  0.60918206  0.40596807  1
  N  N410  1  0.45041712  0.94290870  0.41265681  1
  N  N411  1  0.95010172  0.27358548  0.41349090  1
  N  N412  1  0.92720678  0.61069071  0.39451436  1
  N  N413  1  0.94201783  0.94278661  0.40917776  1
  N  N414  1  0.06155595  0.05714329  0.90369258  1
  N  N415  1  0.06729691  0.38881592  0.89843187  1
  N  N416  1  0.07635060  0.72014804  0.89091219  1
  N  N417  1  0.56787751  0.05787971  0.90787969  1
  N  N418  1  0.57141074  0.38999225  0.90111718  1
  N  N419  1  0.56691281  0.72312409  0.89935938  1
  N  N420  1  0.07237536  0.27999193  0.10511089  1
  N  N421  1  0.06958464  0.61162930  0.10413475  1
  N  N422  1  0.06327264  0.94524703  0.09707486  1
  N  N423  1  0.57674210  0.27757061  0.10514953  1
  N  N424  1  0.55100722  0.60856837  0.08680992  1
  N  N425  1  0.56213973  0.94771934  0.09528919  1
  N  N426  1  0.42471801  0.05521520  0.60178349  1
  N  N427  1  0.42973153  0.38812318  0.60481801  1
  N  N428  1  0.42955127  0.72282140  0.59632731  1
  N  N429  1  0.92957105  0.05472596  0.59555119  1
  N  N430  1  0.92924944  0.39076009  0.59650638  1
  N  N431  1  0.92649212  0.72167520  0.60052465  1
  N  N432  1  0.19681879  0.10679708  0.41236881  1
  N  N433  1  0.19119491  0.44303099  0.40304520  1
  N  N434  1  0.19708399  0.77831511  0.40592648  1
  N  N435  1  0.69349455  0.10988898  0.40783275  1
  N  N436  1  0.69009150  0.44395990  0.40305689  1
  N  N437  1  0.69787054  0.77437642  0.41431567  1
  N  N438  1  0.30137528  0.21900281  0.91213970  1
  N  N439  1  0.31527449  0.55697115  0.90447196  1
  N  N440  1  0.31719466  0.88364856  0.89935098  1
  N  N441  1  0.80207688  0.22155722  0.90747524  1
  N  N442  1  0.81429974  0.55461061  0.89975793  1
  N  N443  1  0.81706078  0.88457957  0.89890803  1
  N  N444  1  0.31395614  0.10887274  0.09705292  1
  N  N445  1  0.31083106  0.44458194  0.10127592  1
  N  N446  1  0.30889558  0.77551585  0.09515468  1
  N  N447  1  0.81571487  0.11101099  0.08911288  1
  N  N448  1  0.80707557  0.43983330  0.08955941  1
  N  N449  1  0.80793588  0.77625914  0.09683989  1
  N  N450  1  0.17644596  0.22148132  0.59892140  1
  N  N451  1  0.19965457  0.55626508  0.58873153  1
  N  N452  1  0.17603838  0.88824978  0.60011976  1
  N  N453  1  0.67984807  0.22514426  0.59678924  1
  N  N454  1  0.68726545  0.55412520  0.59815264  1
  N  N455  1  0.68162278  0.88719292  0.60198319  1
  Cl  Cl456  1  0.24223425  0.05202084  0.61715642  1
  Cl  Cl457  1  0.23827002  0.38635248  0.62274245  1
  Cl  Cl458  1  0.24081682  0.71959455  0.60997817  1
  Cl  Cl459  1  0.73561568  0.05845812  0.60321517  1
  Cl  Cl460  1  0.74224295  0.38916864  0.61820401  1
  Cl  Cl461  1  0.74127195  0.71881414  0.62136788  1
  Cl  Cl462  1  0.26504376  0.26892389  0.10656693  1
  Cl  Cl463  1  0.24599100  0.61865144  0.12537779  1
  Cl  Cl464  1  0.24865021  0.94267209  0.12083462  1
  Cl  Cl465  1  0.75845295  0.28062586  0.12392407  1
  Cl  Cl466  1  0.75102876  0.60194862  0.09722729  1
  Cl  Cl467  1  0.74909141  0.94465197  0.10860471  1
  Cl  Cl468  1  0.24788585  0.05339519  0.88129225  1
  Cl  Cl469  1  0.25703128  0.38617112  0.88826534  1
  Cl  Cl470  1  0.25787620  0.71685985  0.87426914  1
  Cl  Cl471  1  0.75093476  0.05302201  0.87131574  1
  Cl  Cl472  1  0.75380189  0.38819026  0.88295485  1
  Cl  Cl473  1  0.75874095  0.71934194  0.89023221  1
  Cl  Cl474  1  0.26095744  0.27728373  0.37758796  1
  Cl  Cl475  1  0.24121074  0.61039200  0.39111071  1
  Cl  Cl476  1  0.26710381  0.94021304  0.39387610  1
  Cl  Cl477  1  0.75648064  0.27238313  0.39009498  1
  Cl  Cl478  1  0.74262831  0.61265196  0.36849401  1
  Cl  Cl479  1  0.76060384  0.95370402  0.37341702  1
  Cl  Cl480  1  -0.00595866  0.22024768  0.62048761  1
  Cl  Cl481  1  0.01002874  0.56188442  0.60482954  1
  Cl  Cl482  1  -0.00936543  0.88384647  0.61929627  1
  Cl  Cl483  1  0.48934202  0.22614734  0.60854232  1
  Cl  Cl484  1  0.50933179  0.55566178  0.61641173  1
  Cl  Cl485  1  0.48750855  0.88830339  0.61627246  1
  Cl  Cl486  1  0.00150414  0.11456756  0.12229082  1
  Cl  Cl487  1  -0.00574712  0.44608128  0.11843281  1
  Cl  Cl488  1  -0.00810942  0.78076210  0.11959984  1
  Cl  Cl489  1  0.49891438  0.11585921  0.11947445  1
  Cl  Cl490  1  0.49653902  0.44451451  0.10794363  1
  Cl  Cl491  1  0.49235069  0.78206574  0.12195878  1
  Cl  Cl492  1  -0.01395772  0.22014048  0.88609785  1
  Cl  Cl493  1  -0.00212394  0.56089133  0.88945765  1
  Cl  Cl494  1  0.00140741  0.89832698  0.88679537  1
  Cl  Cl495  1  0.48729391  0.22597061  0.88681179  1
  Cl  Cl496  1  0.50137791  0.55207912  0.88474917  1
  Cl  Cl497  1  0.50140299  0.89733876  0.88559256  1
  Cl  Cl498  1  0.00717603  0.11057832  0.38630732  1
  Cl  Cl499  1  0.00672954  0.44180390  0.39075627  1
  Cl  Cl500  1  0.01353978  0.78153010  0.39071009  1
  Cl  Cl501  1  0.50963261  0.11506199  0.38249996  1
  Cl  Cl502  1  0.50483097  0.44905662  0.37846844  1
  Cl  Cl503  1  0.50697662  0.77372893  0.38896287  1
  Cl  Cl504  1  0.35600547  0.14933832  0.74500526  1
  Cl  Cl505  1  0.36221550  0.47968347  0.74647258  1
  Cl  Cl506  1  0.35667130  0.81629330  0.74828546  1
  Cl  Cl507  1  0.85203511  0.14940421  0.74337600  1
  Cl  Cl508  1  0.86169462  0.48188642  0.74977127  1
  Cl  Cl509  1  0.85623830  0.81589294  0.74861031  1
  Cl  Cl510  1  0.14269976  0.18544552  0.24961266  1
  Cl  Cl511  1  0.13823089  0.52020201  0.25022027  1
  Cl  Cl512  1  0.14292290  0.85173095  0.25007108  1
  Cl  Cl513  1  0.63816829  0.18832766  0.24745744  1
  Cl  Cl514  1  0.64064035  0.51800723  0.24100620  1
  Cl  Cl515  1  0.63738985  0.85503494  0.25030986  1
  Cl  Cl516  1  0.13514681  0.14801434  0.74987834  1
  Cl  Cl517  1  0.13862362  0.48354766  0.75718184  1
  Cl  Cl518  1  0.13505835  0.81189376  0.74880483  1
  Cl  Cl519  1  0.63255386  0.14754402  0.74463941  1
  Cl  Cl520  1  0.64074802  0.48152674  0.75470716  1
  Cl  Cl521  1  0.63413086  0.81316882  0.74660524  1
  Cl  Cl522  1  0.36447382  0.18462598  0.25369142  1
  Cl  Cl523  1  0.35886207  0.52201824  0.24632395  1
  Cl  Cl524  1  0.36344960  0.85319567  0.24631070  1
  Cl  Cl525  1  0.85779828  0.18232658  0.25140123  1
  Cl  Cl526  1  0.86142875  0.51793866  0.24809948  1
  Cl  Cl527  1  0.85674434  0.85142312  0.25330238  1
  Cl  Cl528  1  0.11135865  0.31179912  0.75722786  1
  Cl  Cl529  1  0.11254790  0.64746749  0.75298002  1
  Cl  Cl530  1  0.10983764  0.97964808  0.74831472  1
  Cl  Cl531  1  0.60591620  0.31658835  0.75208106  1
  Cl  Cl532  1  0.60929773  0.64777582  0.75535283  1
  Cl  Cl533  1  0.60514319  0.98006193  0.74537304  1
  Cl  Cl534  1  0.39192678  0.01935959  0.25423586  1
  Cl  Cl535  1  0.39062007  0.35383387  0.24648555  1
  Cl  Cl536  1  0.39043485  0.68543162  0.25101754  1
  Cl  Cl537  1  0.89395080  0.01750723  0.24923430  1
  Cl  Cl538  1  0.89479013  0.34906440  0.25606579  1
  Cl  Cl539  1  0.88740572  0.68706933  0.25291407  1
  Cl  Cl540  1  0.38519777  0.31622609  0.74367189  1
  Cl  Cl541  1  0.38900693  0.64493793  0.74407087  1
  Cl  Cl542  1  0.38562597  0.98325093  0.75097058  1
  Cl  Cl543  1  0.89204892  0.31769412  0.74856125  1
  Cl  Cl544  1  0.89399001  0.64887239  0.74444356  1
  Cl  Cl545  1  0.88804589  0.98251637  0.75005662  1
  Cl  Cl546  1  0.11070698  0.01701219  0.25395872  1
  Cl  Cl547  1  0.11840220  0.35265952  0.24780002  1
  Cl  Cl548  1  0.10434238  0.68530039  0.24589689  1
  Cl  Cl549  1  0.61002741  0.01974618  0.25300432  1
  Cl  Cl550  1  0.60813178  0.35344873  0.24656243  1
  Cl  Cl551  1  0.61190959  0.68576414  0.24679772  1
