# generated using pymatgen
data_H8PbC4(N3Cl2)2
_symmetry_space_group_name_H-M   'P 1'
_cell_length_a   16.62080853
_cell_length_b   22.50296692
_cell_length_c   21.58854404
_cell_angle_alpha   90.00126040
_cell_angle_beta   89.99344427
_cell_angle_gamma   89.99754640
_symmetry_Int_Tables_number   1
_chemical_formula_structural   H8PbC4(N3Cl2)2
_chemical_formula_sum   'H192 Pb24 C96 N144 Cl96'
_cell_volume   8074.49330455
_cell_formula_units_Z   24
loop_
 _symmetry_equiv_pos_site_id
 _symmetry_equiv_pos_as_xyz
  1  'x, y, z'
loop_
 _atom_site_type_symbol
 _atom_site_label
 _atom_site_symmetry_multiplicity
 _atom_site_fract_x
 _atom_site_fract_y
 _atom_site_fract_z
 _atom_site_occupancy
  H  H0  1  -0.00185126  0.03138628  0.67945088  1
  H  H1  1  0.00186094  0.36658638  0.67974206  1
  H  H2  1  -0.00168635  0.70031677  0.68107019  1
  H  H3  1  0.49349347  0.03218720  0.67721395  1
  H  H4  1  0.48884383  0.36703810  0.67789174  1
  H  H5  1  0.50154677  0.70080956  0.68146235  1
  H  H6  1  0.01517892  0.29819933  0.17564720  1
  H  H7  1  0.01093651  0.63230225  0.17521818  1
  H  H8  1  -0.00027589  0.96753271  0.18156295  1
  H  H9  1  0.48945497  0.29982950  0.17939656  1
  H  H10  1  0.48930130  0.63352726  0.17741265  1
  H  H11  1  0.50222163  0.96823407  0.18005456  1
  H  H12  1  0.00901205  0.03257400  0.81894536  1
  H  H13  1  0.00801865  0.36473901  0.81999825  1
  H  H14  1  0.00577892  0.69727902  0.81997554  1
  H  H15  1  0.49793183  0.03108258  0.81726297  1
  H  H16  1  0.49843342  0.36612531  0.82097179  1
  H  H17  1  0.49464618  0.69766637  0.82093005  1
  H  H18  1  -0.00253891  0.30015166  0.31976767  1
  H  H19  1  -0.00616788  0.64108426  0.32220291  1
  H  H20  1  -0.01114141  0.96841567  0.32069007  1
  H  H21  1  0.49548113  0.30142360  0.32088690  1
  H  H22  1  0.50725154  0.63439099  0.32051106  1
  H  H23  1  0.50959882  0.96963116  0.32000833  1
  H  H24  1  0.25023929  0.19689994  0.68207923  1
  H  H25  1  0.24081789  0.53191293  0.67760806  1
  H  H26  1  0.25443368  0.86369115  0.67968852  1
  H  H27  1  0.75662877  0.19859318  0.67765728  1
  H  H28  1  0.75688878  0.52961316  0.68162424  1
  H  H29  1  0.74986257  0.86393481  0.68211899  1
  H  H30  1  0.24659210  0.13472293  0.18326166  1
  H  H31  1  0.24300768  0.46980305  0.17753786  1
  H  H32  1  0.25734119  0.79960863  0.18205890  1
  H  H33  1  0.75072982  0.13431482  0.17868383  1
  H  H34  1  0.75355890  0.46973887  0.17795473  1
  H  H35  1  0.74729864  0.80090153  0.17959443  1
  H  H36  1  0.25314410  0.19861006  0.82124313  1
  H  H37  1  0.24971967  0.53349498  0.82108699  1
  H  H38  1  0.24023997  0.86349859  0.82180659  1
  H  H39  1  0.74856129  0.20033934  0.82251259  1
  H  H40  1  0.74772522  0.53162387  0.82076811  1
  H  H41  1  0.76252048  0.86483858  0.82101786  1
  H  H42  1  0.25342084  0.13678046  0.32149029  1
  H  H43  1  0.24539359  0.46676308  0.31873450  1
  H  H44  1  0.25161484  0.80345209  0.31982617  1
  H  H45  1  0.74779475  0.13669783  0.32111325  1
  H  H46  1  0.75792001  0.46635258  0.32107369  1
  H  H47  1  0.74511477  0.80111867  0.31730114  1
  H  H48  1  0.12476383  0.05372089  0.61163177  1
  H  H49  1  0.11968015  0.38820822  0.60532991  1
  H  H50  1  0.12311565  0.72052460  0.60806330  1
  H  H51  1  0.62699540  0.05319539  0.61567218  1
  H  H52  1  0.62468672  0.38319919  0.62031033  1
  H  H53  1  0.61956667  0.72115762  0.60687695  1
  H  H54  1  0.38570862  0.27547647  0.09497163  1
  H  H55  1  0.37602795  0.61137500  0.09965178  1
  H  H56  1  0.37493995  0.94540792  0.11109819  1
  H  H57  1  0.87615719  0.28365251  0.12286677  1
  H  H58  1  0.87034110  0.61634011  0.12459103  1
  H  H59  1  0.87469526  0.94383486  0.11209275  1
  H  H60  1  0.37321230  0.05507017  0.88937113  1
  H  H61  1  0.36957349  0.38788534  0.88893966  1
  H  H62  1  0.37696065  0.71982898  0.89891243  1
  H  H63  1  0.87147338  0.05108572  0.87755018  1
  H  H64  1  0.87008401  0.38356555  0.87837615  1
  H  H65  1  0.87294013  0.71944939  0.88261191  1
  H  H66  1  0.12491888  0.27964134  0.38514512  1
  H  H67  1  0.12131767  0.61400485  0.38774433  1
  H  H68  1  0.12690766  0.94918904  0.37584707  1
  H  H69  1  0.63061007  0.28400926  0.38063910  1
  H  H70  1  0.61692889  0.60889050  0.40188156  1
  H  H71  1  0.61946484  0.94223260  0.40312824  1
  H  H72  1  0.37320235  0.22027718  0.60850012  1
  H  H73  1  0.38064384  0.55030031  0.62433324  1
  H  H74  1  0.37334435  0.88883855  0.60323160  1
  H  H75  1  0.86719141  0.22524199  0.59546389  1
  H  H76  1  0.87771703  0.55316865  0.60786597  1
  H  H77  1  0.87610627  0.88602585  0.61381651  1
  H  H78  1  0.12924483  0.11385915  0.10743784  1
  H  H79  1  0.13496020  0.44248886  0.09483443  1
  H  H80  1  0.12781685  0.77899472  0.11349822  1
  H  H81  1  0.62832789  0.11429568  0.10598984  1
  H  H82  1  0.63061927  0.44555659  0.10671564  1
  H  H83  1  0.62843627  0.77750173  0.10663056  1
  H  H84  1  0.12078306  0.22012048  0.88431357  1
  H  H85  1  0.12625869  0.55628026  0.89195989  1
  H  H86  1  0.13213024  0.89172791  0.90426383  1
  H  H87  1  0.62460090  0.22487714  0.89293471  1
  H  H88  1  0.62987188  0.55573305  0.89664431  1
  H  H89  1  0.62293376  0.88376145  0.87413562  1
  H  H90  1  0.37001966  0.11088191  0.39916789  1
  H  H91  1  0.37821550  0.44653715  0.38381691  1
  H  H92  1  0.37541035  0.77885589  0.39275578  1
  H  H93  1  0.87103511  0.11256586  0.39314190  1
  H  H94  1  0.87550823  0.44365829  0.39702261  1
  H  H95  1  0.87805754  0.78155225  0.38239723  1
  H  H96  1  0.38248995  0.27793006  0.39843299  1
  H  H97  1  0.36971534  0.61515327  0.37886295  1
  H  H98  1  0.37300987  0.94999044  0.37896207  1
  H  H99  1  0.87580193  0.28047800  0.39330568  1
  H  H100  1  0.87322728  0.61050764  0.39336931  1
  H  H101  1  0.88088225  0.94108667  0.40418088  1
  H  H102  1  0.11812010  0.05823461  0.90077501  1
  H  H103  1  0.11670296  0.38966718  0.90251629  1
  H  H104  1  0.12179161  0.71932410  0.89785480  1
  H  H105  1  0.62162943  0.05436453  0.89073501  1
  H  H106  1  0.61914604  0.38828860  0.89483575  1
  H  H107  1  0.62553167  0.71828350  0.88528632  1
  H  H108  1  0.12075403  0.27534295  0.09238466  1
  H  H109  1  0.11482086  0.60777320  0.09213902  1
  H  H110  1  0.12309234  0.94660962  0.10900809  1
  H  H111  1  0.63065194  0.28406843  0.12827981  1
  H  H112  1  0.62336791  0.61607477  0.11881667  1
  H  H113  1  0.62358018  0.94359453  0.10739994  1
  H  H114  1  0.37897726  0.05676838  0.59962306  1
  H  H115  1  0.37795057  0.39018260  0.59859022  1
  H  H116  1  0.37026625  0.71897766  0.61676780  1
  H  H117  1  0.87489693  0.05497433  0.60745261  1
  H  H118  1  0.87046717  0.38474293  0.61547912  1
  H  H119  1  0.87417738  0.72152951  0.60729304  1
  H  H120  1  0.12213927  0.11434609  0.38440411  1
  H  H121  1  0.12935444  0.44346636  0.39580590  1
  H  H122  1  0.12673822  0.77971474  0.39142058  1
  H  H123  1  0.62215654  0.11239855  0.38943233  1
  H  H124  1  0.62699386  0.44680509  0.38296221  1
  H  H125  1  0.62919826  0.77737459  0.39490140  1
  H  H126  1  0.36953245  0.22364267  0.89876042  1
  H  H127  1  0.37532511  0.55489013  0.89214225  1
  H  H128  1  0.37771198  0.88113521  0.87891285  1
  H  H129  1  0.87269756  0.21938935  0.89424909  1
  H  H130  1  0.87899015  0.55365239  0.88503225  1
  H  H131  1  0.86811952  0.89167776  0.90639078  1
  H  H132  1  0.37833393  0.11547242  0.12055577  1
  H  H133  1  0.38125437  0.45140386  0.12205463  1
  H  H134  1  0.37627477  0.77621602  0.10477662  1
  H  H135  1  0.87676911  0.11102231  0.11036298  1
  H  H136  1  0.87987771  0.44490744  0.10908306  1
  H  H137  1  0.87749094  0.77950529  0.11494285  1
  H  H138  1  0.12457838  0.22037428  0.61057712  1
  H  H139  1  0.13532105  0.56038006  0.59323721  1
  H  H140  1  0.12491987  0.88622896  0.61398982  1
  H  H141  1  0.62066951  0.21871183  0.61731780  1
  H  H142  1  0.62795462  0.55323348  0.61458042  1
  H  H143  1  0.62619178  0.88998446  0.61047554  1
  H  H144  1  0.68355548  0.58711334  1.00310331  1
  H  H145  1  0.57425673  0.91575428  -0.00093529  1
  H  H146  1  0.59414662  0.08259933  0.50802411  1
  H  H147  1  0.67821840  0.74744488  -0.00243313  1
  H  H148  1  0.16372747  0.91464036  0.50300848  1
  H  H149  1  0.56410086  0.74910536  0.49574596  1
  H  H150  1  0.67151113  0.57233690  0.50628991  1
  H  H151  1  0.93721525  0.59835001  0.49937179  1
  H  H152  1  0.35274749  0.91686437  0.98442152  1
  H  H153  1  0.92466910  0.08662214  0.50437447  1
  H  H154  1  0.68278147  0.07420999  0.00769445  1
  H  H155  1  0.44171900  0.25069434  0.50662658  1
  H  H156  1  0.69190668  0.75087631  0.50267599  1
  H  H157  1  0.04644419  0.41713229  1.00685306  1
  H  H158  1  0.66634905  0.24757437  0.99898705  1
  H  H159  1  0.79145902  0.91282745  1.00682353  1
  H  H160  1  0.19178050  0.41558720  0.50376158  1
  H  H161  1  0.95462600  0.91538951  0.50479837  1
  H  H162  1  0.83285795  0.09188398  0.00342432  1
  H  H163  1  0.20626098  0.90182168  1.00543169  1
  H  H164  1  0.40807292  0.41640406  0.99497822  1
  H  H165  1  0.08537853  0.08376640  0.50139980  1
  H  H166  1  0.21024905  0.58467643  0.49318410  1
  H  H167  1  0.08584142  0.25204841  0.49880055  1
  H  H168  1  0.20693029  0.41516556  -0.00535616  1
  H  H169  1  0.84879422  0.58261762  0.99321103  1
  H  H170  1  0.54496351  0.91734165  0.50358864  1
  H  H171  1  0.90416358  0.74562747  0.99028302  1
  H  H172  1  0.06350478  0.74513265  1.00594957  1
  H  H173  1  0.83483317  0.41536384  0.00437682  1
  H  H174  1  0.82398684  0.57142515  0.49602907  1
  H  H175  1  0.54881970  0.58263942  0.50844225  1
  H  H176  1  0.92643188  0.93714953  0.00425035  1
  H  H177  1  0.06805164  0.90734449  0.00976949  1
  H  H178  1  0.39382508  0.58714589  0.48872949  1
  H  H179  1  0.65618650  0.41572564  0.49663713  1
  H  H180  1  0.34668822  0.08755670  0.00799632  1
  H  H181  1  0.18447109  0.08849997  -0.00244654  1
  H  H182  1  0.82921335  0.25307183  0.99597979  1
  H  H183  1  0.06704321  0.60156433  0.49558614  1
  H  H184  1  0.67837115  0.91057556  0.50359236  1
  H  H185  1  0.30626451  0.25007808  1.00262226  1
  H  H186  1  0.83079667  0.90985065  0.50065251  1
  H  H187  1  0.06383092  0.41310304  0.49337029  1
  H  H188  1  0.56853736  0.41842445  1.00305242  1
  H  H189  1  0.45889118  0.24733880  -0.00941456  1
  H  H190  1  0.04742268  0.08815381  1.00505589  1
  H  H191  1  0.64633912  0.25000967  0.51003619  1
  Pb  Pb192  1  0.25279865  0.04798472  0.75299328  1
  Pb  Pb193  1  0.24333264  0.38258931  0.75128350  1
  Pb  Pb194  1  0.24869660  0.71091756  0.75398001  1
  Pb  Pb195  1  0.74575945  0.04748529  0.75364326  1
  Pb  Pb196  1  0.74881173  0.37910862  0.75491853  1
  Pb  Pb197  1  0.74728991  0.71553404  0.74643196  1
  Pb  Pb198  1  0.25330450  0.28683056  0.24256585  1
  Pb  Pb199  1  0.24869630  0.62013115  0.24854046  1
  Pb  Pb200  1  0.25059891  0.95561982  0.24229812  1
  Pb  Pb201  1  0.75209381  0.28748065  0.24923620  1
  Pb  Pb202  1  0.74983933  0.61952473  0.25763574  1
  Pb  Pb203  1  0.74911944  0.95070194  0.25515374  1
  Pb  Pb204  1  -0.00234234  0.21210630  0.74660429  1
  Pb  Pb205  1  -0.00302445  0.54887958  0.74159281  1
  Pb  Pb206  1  0.00379944  0.88271521  0.75435900  1
  Pb  Pb207  1  0.49599012  0.21639135  0.75167250  1
  Pb  Pb208  1  0.50076277  0.54575805  0.75057554  1
  Pb  Pb209  1  0.49568018  0.87905491  0.74282787  1
  Pb  Pb210  1  0.00042939  0.12072083  0.25123304  1
  Pb  Pb211  1  0.00550221  0.45165579  0.24773593  1
  Pb  Pb212  1  0.00225710  0.78695401  0.24691271  1
  Pb  Pb213  1  0.50164938  0.12092027  0.25589353  1
  Pb  Pb214  1  0.50223454  0.45467909  0.24601591  1
  Pb  Pb215  1  0.49676058  0.78533403  0.25067820  1
  C  C216  1  -0.00112340  0.04720631  0.63185840  1
  C  C217  1  -0.00241058  0.38008145  0.63168988  1
  C  C218  1  -0.00152887  0.71433839  0.63299841  1
  C  C219  1  0.50023132  0.04732424  0.62987826  1
  C  C220  1  0.49742970  0.38025434  0.63006333  1
  C  C221  1  0.49745377  0.71424165  0.63343552  1
  C  C222  1  0.00354645  0.28548142  0.12808034  1
  C  C223  1  -0.00177744  0.61874304  0.12798919  1
  C  C224  1  -0.00079198  0.95296337  0.13347156  1
  C  C225  1  0.50207033  0.28623055  0.13219378  1
  C  C226  1  0.49642772  0.62026865  0.12949247  1
  C  C227  1  0.49998427  0.95313030  0.13237046  1
  C  C228  1  -0.00083574  0.04684723  0.86640394  1
  C  C229  1  -0.00215886  0.37925513  0.86734432  1
  C  C230  1  -0.00033792  0.71268581  0.86756070  1
  C  C231  1  0.49764418  0.04637247  0.86494510  1
  C  C232  1  0.49517301  0.38105463  0.86886791  1
  C  C233  1  0.49885760  0.71182104  0.86866672  1
  C  C234  1  -0.00009381  0.28655643  0.36784552  1
  C  C235  1  -0.00397878  0.62357270  0.36903235  1
  C  C236  1  -0.00160111  0.95375737  0.36802245  1
  C  C237  1  0.50252255  0.28766784  0.36870576  1
  C  C238  1  0.49722344  0.61998655  0.36800347  1
  C  C239  1  0.50128594  0.95479407  0.36734018  1
  C  C240  1  0.24934275  0.21223866  0.63444983  1
  C  C241  1  0.25206321  0.54636495  0.63036832  1
  C  C242  1  0.25103340  0.87926828  0.63228947  1
  C  C243  1  0.74776518  0.21373761  0.63039548  1
  C  C244  1  0.75378593  0.54528578  0.63399210  1
  C  C245  1  0.75016753  0.87924286  0.63432487  1
  C  C246  1  0.25169085  0.12070223  0.13526825  1
  C  C247  1  0.25288996  0.45468060  0.13044335  1
  C  C248  1  0.25370440  0.78543649  0.13413462  1
  C  C249  1  0.75191013  0.11946730  0.13080425  1
  C  C250  1  0.75522964  0.45360740  0.13073563  1
  C  C251  1  0.75081235  0.78591642  0.13196709  1
  C  C252  1  0.24814129  0.21357871  0.86873859  1
  C  C253  1  0.25067928  0.54804116  0.86878460  1
  C  C254  1  0.25011102  0.87854111  0.86909488  1
  C  C255  1  0.74855447  0.21451051  0.87064674  1
  C  C256  1  0.75272894  0.54690983  0.86847479  1
  C  C257  1  0.75161476  0.87933923  0.86820962  1
  C  C258  1  0.24868842  0.12104526  0.36862290  1
  C  C259  1  0.25125995  0.45225866  0.36643382  1
  C  C260  1  0.25136247  0.78733901  0.36717177  1
  C  C261  1  0.74724670  0.12071806  0.36824649  1
  C  C262  1  0.75283908  0.45217117  0.36888011  1
  C  C263  1  0.75109947  0.78639059  0.36491399  1
  C  C264  1  0.22010612  0.09691251  0.03878325  1
  C  C265  1  0.70702930  0.09194676  0.46025200  1
  C  C266  1  0.04405871  0.26200117  0.46150394  1
  C  C267  1  0.51979482  0.59299849  0.46460804  1
  C  C268  1  0.02844738  0.40411956  0.53475271  1
  C  C269  1  0.01793526  0.07586415  0.96182719  1
  C  C270  1  0.55429433  0.40346015  0.54139270  1
  C  C271  1  0.54513050  0.73797144  0.95932757  1
  C  C272  1  0.04277405  0.07366766  0.53939779  1
  C  C273  1  0.55056107  0.59706987  0.04022141  1
  C  C274  1  0.44735504  0.73850611  0.54223339  1
  C  C275  1  0.30204570  0.09698142  0.04363628  1
  C  C276  1  0.78494697  0.42601111  0.46425806  1
  C  C277  1  0.68698012  0.90549004  0.95441796  1
  C  C278  1  0.46992993  0.59536661  0.03397317  1
  C  C279  1  0.47068816  0.07658746  0.53409197  1
  C  C280  1  0.53098618  0.40747153  0.96323162  1
  C  C281  1  0.55846138  0.26409970  0.45818924  1
  C  C282  1  0.93378806  0.59530999  0.04243569  1
  C  C283  1  0.20722756  0.90529674  0.54080586  1
  C  C284  1  0.06068498  0.92624715  0.45478994  1
  C  C285  1  0.72109049  0.57494995  0.96314843  1
  C  C286  1  0.79992861  0.75976407  0.04065478  1
  C  C287  1  0.70323699  0.42631893  0.46081525  1
  C  C288  1  0.52869045  0.73919179  0.53689515  1
  C  C289  1  0.20103845  0.09255732  0.45848184  1
  C  C290  1  0.02919511  0.73704903  0.96380330  1
  C  C291  1  0.47365271  0.40589029  0.53394616  1
  C  C292  1  0.48840384  0.25857257  0.03413932  1
  C  C293  1  0.71805946  0.75867435  0.03636807  1
  C  C294  1  0.79336093  0.90456450  0.54168016  1
  C  C295  1  0.71513265  0.42377791  0.03720159  1
  C  C296  1  0.94096296  0.26365842  0.04130000  1
  C  C297  1  0.01400648  0.59208602  0.03173759  1
  C  C298  1  0.31426921  0.42836908  0.04353092  1
  C  C299  1  0.78984679  0.56868821  0.53890242  1
  C  C300  1  0.47744269  0.26138683  0.46596057  1
  C  C301  1  0.56874599  0.26130770  0.04724484  1
  C  C302  1  0.01645640  0.40600603  0.96345305  1
  C  C303  1  0.96245081  0.26284670  0.46274351  1
  C  C304  1  0.94710528  0.40267411  0.54007876  1
  C  C305  1  0.02137210  0.26042997  0.03121634  1
  C  C306  1  0.53425128  0.92670369  0.03849216  1
  C  C307  1  0.72468667  0.76093921  0.46029555  1
  C  C308  1  0.22453653  0.42608341  0.46148619  1
  C  C309  1  0.21421838  0.57607842  0.96133392  1
  C  C310  1  0.31556261  0.57298613  0.54455214  1
  C  C311  1  0.19571538  0.24142028  0.95900847  1
  N  N312  1  0.76512648  0.90729496  0.96411644  1
  N  N313  1  0.95964928  0.58407839  0.45731265  1
  N  N314  1  0.29145158  0.57524993  0.96277912  1
  N  N315  1  0.28581642  0.23966381  0.54059073  1
  N  N316  1  0.78506060  0.09169078  0.46276818  1
  N  N317  1  0.69507000  0.24051104  0.54332168  1
  N  N318  1  0.03745540  0.93500829  0.03920736  1
  N  N319  1  0.45144224  0.40677971  0.96015481  1
  N  N320  1  0.98233305  0.92422513  0.46335185  1
  N  N321  1  0.71379433  0.90819197  0.54225714  1
  N  N322  1  0.28628652  0.90698611  0.53701804  1
  N  N323  1  0.93925188  0.07362865  0.95428195  1
  N  N324  1  0.77248786  0.24286572  0.53475904  1
  N  N325  1  0.21232227  0.75892623  0.46012973  1
  N  N326  1  0.70923160  0.24593454  0.96089836  1
  N  N327  1  0.28550747  0.76092967  0.03844279  1
  N  N328  1  0.71551688  0.10156539  0.03614955  1
  N  N329  1  0.96284093  0.07302964  0.53878678  1
  N  N330  1  0.94987592  0.73842206  0.95707159  1
  N  N331  1  0.44200904  0.92825822  0.45434021  1
  N  N332  1  0.23761494  0.57583223  0.53502057  1
  N  N333  1  0.27842858  0.09105527  0.46441824  1
  N  N334  1  0.44118624  0.59501641  0.45548947  1
  N  N335  1  0.22995830  0.91138673  0.96250956  1
  N  N336  1  0.54938041  0.07474294  0.54077201  1
  N  N337  1  0.80373835  0.76213233  0.45615626  1
  N  N338  1  0.30807594  0.89970495  0.95612381  1
  N  N339  1  0.20934636  0.23972509  0.54149923  1
  N  N340  1  0.79421997  0.42445847  0.03921555  1
  N  N341  1  0.03724916  0.73780947  0.53862745  1
  N  N342  1  0.93786200  0.40423720  0.95560195  1
  N  N343  1  0.71049667  0.57142539  0.54288894  1
  N  N344  1  0.95786519  0.92424155  0.04279086  1
  N  N345  1  0.46790274  0.73921814  0.96481324  1
  N  N346  1  0.53505918  0.07280391  0.95904893  1
  N  N347  1  0.80072563  0.57387099  0.95851288  1
  N  N348  1  0.20895757  0.76209982  0.04117894  1
  N  N349  1  0.45474166  0.92776279  0.03881340  1
  N  N350  1  0.78724879  0.23394232  0.96455648  1
  N  N351  1  0.28854305  0.75875928  0.46050168  1
  N  N352  1  0.23597853  0.42523496  0.03535982  1
  N  N353  1  0.79411785  0.09018412  0.04084665  1
  N  N354  1  0.04151091  0.58545816  0.45536854  1
  N  N355  1  0.30355021  0.42687824  0.45734533  1
  N  N356  1  0.45843689  0.07330705  0.95849472  1
  N  N357  1  0.51936357  0.92564230  0.46103229  1
  N  N358  1  0.27444469  0.24175670  0.96285744  1
  N  N359  1  0.96081249  0.73777626  0.53836884  1
  N  N360  1  0.06506685  0.05718968  0.59727270  1
  N  N361  1  0.05908766  0.39003537  0.59321082  1
  N  N362  1  0.06203751  0.72383741  0.59729409  1
  N  N363  1  0.56814112  0.05674393  0.59988168  1
  N  N364  1  0.56812044  0.38804531  0.60045934  1
  N  N365  1  0.55907224  0.72387752  0.59503021  1
  N  N366  1  0.44788747  0.27445838  0.08838802  1
  N  N367  1  0.43681980  0.60923709  0.08837866  1
  N  N368  1  0.43506216  0.94422710  0.09825601  1
  N  N369  1  0.93122570  0.27853191  0.10096767  1
  N  N370  1  0.92522037  0.61135013  0.10214077  1
  N  N371  1  0.93464726  0.94696228  0.09813647  1
  N  N372  1  0.43399083  0.05698761  0.90028359  1
  N  N373  1  0.42963684  0.39035588  0.90211194  1
  N  N374  1  0.43875822  0.72221229  0.90721304  1
  N  N375  1  0.92950233  0.05532794  0.89457907  1
  N  N376  1  0.92812175  0.38748514  0.89544107  1
  N  N377  1  0.93224175  0.72326531  0.89795361  1
  N  N378  1  0.06616245  0.27689194  0.40124115  1
  N  N379  1  0.06147219  0.61338007  0.40208688  1
  N  N380  1  0.07050248  0.94382307  0.39564831  1
  N  N381  1  0.57297461  0.27982263  0.39909035  1
  N  N382  1  0.55518154  0.60836199  0.41033184  1
  N  N383  1  0.55745704  0.94375813  0.40918963  1
  N  N384  1  0.31201552  0.22274180  0.59814500  1
  N  N385  1  0.32487980  0.55546175  0.60389963  1
  N  N386  1  0.31192614  0.89043731  0.59437875  1
  N  N387  1  0.80506399  0.22628727  0.58910307  1
  N  N388  1  0.81732518  0.55437170  0.59595377  1
  N  N389  1  0.81631692  0.88850778  0.59924573  1
  N  N390  1  0.19006984  0.11155746  0.09624313  1
  N  N391  1  0.19730415  0.44243228  0.08876081  1
  N  N392  1  0.18808459  0.77691048  0.10054590  1
  N  N393  1  0.68903068  0.10812916  0.09527474  1
  N  N394  1  0.69087167  0.44174982  0.09391126  1
  N  N395  1  0.68891478  0.77511698  0.09446347  1
  N  N396  1  0.17917650  0.22440715  0.90062560  1
  N  N397  1  0.18617627  0.55919817  0.90496725  1
  N  N398  1  0.19383082  0.88780884  0.91146848  1
  N  N399  1  0.68475485  0.22493069  0.90582355  1
  N  N400  1  0.69106051  0.55832486  0.90725126  1
  N  N401  1  0.67880681  0.88924957  0.89470520  1
  N  N402  1  0.30823382  0.10950882  0.40722685  1
  N  N403  1  0.31835756  0.44290971  0.39805410  1
  N  N404  1  0.31441155  0.77624962  0.40295096  1
  N  N405  1  0.80991654  0.11018828  0.40405590  1
  N  N406  1  0.81478174  0.44154535  0.40882858  1
  N  N407  1  0.81831945  0.77764600  0.39662050  1
  N  N408  1  0.44360459  0.27632567  0.40881285  1
  N  N409  1  0.42767335  0.61229238  0.39636380  1
  N  N410  1  0.43121660  0.94519690  0.39554460  1
  N  N411  1  0.93619613  0.27749760  0.40619026  1
  N  N412  1  0.93368963  0.61149203  0.40505107  1
  N  N413  1  0.94277867  0.94331882  0.41036205  1
  N  N414  1  0.05616305  0.05938717  0.90844532  1
  N  N415  1  0.05459723  0.39101359  0.90970593  1
  N  N416  1  0.06043722  0.72210041  0.90791102  1
  N  N417  1  0.56046610  0.05640116  0.90111930  1
  N  N418  1  0.55833350  0.39149609  0.90659132  1
  N  N419  1  0.56677788  0.72179529  0.90110791  1
  N  N420  1  0.05931315  0.27382740  0.08409760  1
  N  N421  1  0.05310995  0.60644798  0.08380884  1
  N  N422  1  0.06250699  0.94075464  0.09850258  1
  N  N423  1  0.57561168  0.27827202  0.10659681  1
  N  N424  1  0.56635260  0.61199248  0.09906251  1
  N  N425  1  0.56308769  0.94213821  0.09552011  1
  N  N426  1  0.43990491  0.05962967  0.58916466  1
  N  N427  1  0.43907242  0.39177129  0.58818414  1
  N  N428  1  0.42900320  0.72350172  0.60045684  1
  N  N429  1  0.93597089  0.05798409  0.59617791  1
  N  N430  1  0.92910475  0.38847839  0.59867416  1
  N  N431  1  0.93526320  0.72357106  0.59683967  1
  N  N432  1  0.18045044  0.11039771  0.40038232  1
  N  N433  1  0.19064189  0.44166196  0.40604798  1
  N  N434  1  0.18769783  0.77613630  0.40217579  1
  N  N435  1  0.68186729  0.10908116  0.40295311  1
  N  N436  1  0.68500844  0.44274878  0.40023009  1
  N  N437  1  0.69065561  0.77542009  0.40460176  1
  N  N438  1  0.30799259  0.22345678  0.90780597  1
  N  N439  1  0.31457295  0.55771928  0.90373628  1
  N  N440  1  0.32015194  0.88893433  0.89591211  1
  N  N441  1  0.81215461  0.22347434  0.90626380  1
  N  N442  1  0.81935327  0.55630264  0.90018888  1
  N  N443  1  0.80603964  0.88890600  0.91169181  1
  N  N444  1  0.32006511  0.11159817  0.10377328  1
  N  N445  1  0.32492257  0.44587891  0.10267826  1
  N  N446  1  0.31453133  0.77526091  0.09585367  1
  N  N447  1  0.81689618  0.11123259  0.09634706  1
  N  N448  1  0.81965047  0.44326911  0.09671076  1
  N  N449  1  0.81880808  0.77598178  0.09883133  1
  N  N450  1  0.18537472  0.22283340  0.59948473  1
  N  N451  1  0.19743226  0.55699649  0.58740740  1
  N  N452  1  0.18415612  0.88879718  0.59917048  1
  N  N453  1  0.67904049  0.22261903  0.60121283  1
  N  N454  1  0.68832549  0.55457229  0.60077040  1
  N  N455  1  0.68713753  0.88918832  0.59852324  1
  Cl  Cl456  1  0.25153706  0.05149583  0.62266974  1
  Cl  Cl457  1  0.24695016  0.39032006  0.61831813  1
  Cl  Cl458  1  0.24554816  0.71322002  0.62178691  1
  Cl  Cl459  1  0.75176311  0.05026048  0.62139777  1
  Cl  Cl460  1  0.74913323  0.38482319  0.62425494  1
  Cl  Cl461  1  0.74775572  0.71971614  0.61264165  1
  Cl  Cl462  1  0.25757931  0.27772639  0.10259489  1
  Cl  Cl463  1  0.24484038  0.61054734  0.11867313  1
  Cl  Cl464  1  0.24574077  0.94052244  0.10465896  1
  Cl  Cl465  1  0.75256421  0.27962679  0.11400829  1
  Cl  Cl466  1  0.74614974  0.61239211  0.12571693  1
  Cl  Cl467  1  0.75291974  0.94194886  0.10967047  1
  Cl  Cl468  1  0.24553016  0.05477264  0.88947467  1
  Cl  Cl469  1  0.24191595  0.38910538  0.89504122  1
  Cl  Cl470  1  0.24873875  0.71852756  0.88518256  1
  Cl  Cl471  1  0.74389556  0.05495372  0.89269206  1
  Cl  Cl472  1  0.74323299  0.38664867  0.89012712  1
  Cl  Cl473  1  0.74951591  0.71844163  0.88002432  1
  Cl  Cl474  1  0.25444601  0.28152725  0.37105919  1
  Cl  Cl475  1  0.24223962  0.60640597  0.39248104  1
  Cl  Cl476  1  0.24959357  0.95229495  0.37239536  1
  Cl  Cl477  1  0.75393803  0.28153876  0.37902860  1
  Cl  Cl478  1  0.74466817  0.60680593  0.39624659  1
  Cl  Cl479  1  0.74643448  0.93967355  0.39832553  1
  Cl  Cl480  1  -0.00446999  0.22068407  0.61081848  1
  Cl  Cl481  1  0.00784086  0.56394692  0.59864795  1
  Cl  Cl482  1  -0.00244601  0.89290942  0.61477240  1
  Cl  Cl483  1  0.49633394  0.21789587  0.61746225  1
  Cl  Cl484  1  0.50676483  0.55510176  0.61380540  1
  Cl  Cl485  1  0.50386682  0.89187828  0.60494789  1
  Cl  Cl486  1  0.00216558  0.11027581  0.11626358  1
  Cl  Cl487  1  0.01004792  0.44337030  0.11055827  1
  Cl  Cl488  1  0.00380568  0.78008970  0.11043724  1
  Cl  Cl489  1  0.50689178  0.11670174  0.12461983  1
  Cl  Cl490  1  0.50743172  0.44662748  0.11045516  1
  Cl  Cl491  1  0.50017698  0.77961327  0.11987094  1
  Cl  Cl492  1  -0.00501321  0.21784430  0.87895019  1
  Cl  Cl493  1  0.00161784  0.55206989  0.87320772  1
  Cl  Cl494  1  0.00219095  0.89384123  0.90155996  1
  Cl  Cl495  1  0.49636292  0.22397226  0.88668350  1
  Cl  Cl496  1  0.50326589  0.55087648  0.88136227  1
  Cl  Cl497  1  0.49923146  0.88125717  0.87540905  1
  Cl  Cl498  1  -0.00470803  0.11090630  0.38785108  1
  Cl  Cl499  1  0.00341313  0.44567730  0.38128965  1
  Cl  Cl500  1  0.00327775  0.78565553  0.37769079  1
  Cl  Cl501  1  0.49794518  0.10984692  0.39208791  1
  Cl  Cl502  1  0.50156747  0.45080334  0.37516181  1
  Cl  Cl503  1  0.50367573  0.77908947  0.38656664  1
  Cl  Cl504  1  0.35998638  0.14340660  0.75317808  1
  Cl  Cl505  1  0.36370009  0.47831075  0.75054238  1
  Cl  Cl506  1  0.36047597  0.81197431  0.74923841  1
  Cl  Cl507  1  0.86107118  0.14525457  0.75196575  1
  Cl  Cl508  1  0.86132636  0.47856048  0.75133189  1
  Cl  Cl509  1  0.86026574  0.81122121  0.75281130  1
  Cl  Cl510  1  0.13880792  0.18734633  0.24992490  1
  Cl  Cl511  1  0.13946993  0.52066390  0.25360212  1
  Cl  Cl512  1  0.13702468  0.85565783  0.24627240  1
  Cl  Cl513  1  0.63837494  0.18899320  0.24863364  1
  Cl  Cl514  1  0.63871208  0.52109391  0.25071053  1
  Cl  Cl515  1  0.64338298  0.85594504  0.25004703  1
  Cl  Cl516  1  0.13524029  0.14510965  0.75289302  1
  Cl  Cl517  1  0.14054345  0.47775351  0.74921795  1
  Cl  Cl518  1  0.13879016  0.81394172  0.75279701  1
  Cl  Cl519  1  0.64136057  0.14452307  0.74972386  1
  Cl  Cl520  1  0.63892346  0.47962694  0.74933328  1
  Cl  Cl521  1  0.64189929  0.81069228  0.75046656  1
  Cl  Cl522  1  0.36406060  0.18744764  0.24653818  1
  Cl  Cl523  1  0.36376555  0.52140612  0.25138809  1
  Cl  Cl524  1  0.36327843  0.85629871  0.24969415  1
  Cl  Cl525  1  0.86129030  0.18747717  0.24814670  1
  Cl  Cl526  1  0.85983828  0.52318624  0.25271824  1
  Cl  Cl527  1  0.86304274  0.85615932  0.24695976  1
  Cl  Cl528  1  0.11043367  0.31304126  0.75124810  1
  Cl  Cl529  1  0.10839954  0.64579665  0.75036893  1
  Cl  Cl530  1  0.10588296  0.97760900  0.75148079  1
  Cl  Cl531  1  0.61172802  0.31162551  0.74968291  1
  Cl  Cl532  1  0.61431496  0.64494215  0.74950733  1
  Cl  Cl533  1  0.61276181  0.97688410  0.74772997  1
  Cl  Cl534  1  0.38887188  0.02088388  0.24735085  1
  Cl  Cl535  1  0.38920774  0.35503319  0.24641143  1
  Cl  Cl536  1  0.38729457  0.68859323  0.25570019  1
  Cl  Cl537  1  0.88759153  0.02033967  0.24842108  1
  Cl  Cl538  1  0.88629012  0.35582930  0.24626128  1
  Cl  Cl539  1  0.88580566  0.68937154  0.24850098  1
  Cl  Cl540  1  0.39047505  0.31071871  0.75300401  1
  Cl  Cl541  1  0.38757839  0.64484423  0.74564567  1
  Cl  Cl542  1  0.38925635  0.97752213  0.74938570  1
  Cl  Cl543  1  0.88516016  0.31214201  0.75159319  1
  Cl  Cl544  1  0.88749798  0.64246571  0.75035728  1
  Cl  Cl545  1  0.88617090  0.97832500  0.75391284  1
  Cl  Cl546  1  0.11125423  0.02076149  0.24944129  1
  Cl  Cl547  1  0.10941772  0.35409030  0.24722707  1
  Cl  Cl548  1  0.11037328  0.68640028  0.25155763  1
  Cl  Cl549  1  0.61417070  0.02055957  0.25040700  1
  Cl  Cl550  1  0.61359852  0.35431111  0.24728194  1
  Cl  Cl551  1  0.61153407  0.68626066  0.24999626  1
