# generated using pymatgen
data_H8PbC4(N3Cl2)2
_symmetry_space_group_name_H-M   'P 1'
_cell_length_a   16.62615774
_cell_length_b   22.51361664
_cell_length_c   21.59161659
_cell_angle_alpha   90.00058166
_cell_angle_beta   89.99934313
_cell_angle_gamma   90.00020947
_symmetry_Int_Tables_number   1
_chemical_formula_structural   H8PbC4(N3Cl2)2
_chemical_formula_sum   'H192 Pb24 C96 N144 Cl96'
_cell_volume   8082.06470051
_cell_formula_units_Z   24
loop_
 _symmetry_equiv_pos_site_id
 _symmetry_equiv_pos_as_xyz
  1  'x, y, z'
loop_
 _atom_site_type_symbol
 _atom_site_label
 _atom_site_symmetry_multiplicity
 _atom_site_fract_x
 _atom_site_fract_y
 _atom_site_fract_z
 _atom_site_occupancy
  H  H0  1  -0.00782446  0.02950895  0.67792030  1
  H  H1  1  0.00826103  0.36443705  0.68086008  1
  H  H2  1  0.00240740  0.69734610  0.67856869  1
  H  H3  1  0.50777456  0.03170952  0.67930260  1
  H  H4  1  0.49931400  0.35820387  0.67428987  1
  H  H5  1  0.49705772  0.69312227  0.67955848  1
  H  H6  1  -0.00332544  0.30135850  0.17810454  1
  H  H7  1  -0.00747427  0.63938484  0.18140862  1
  H  H8  1  0.01419501  0.96964969  0.17710864  1
  H  H9  1  0.49339602  0.30111867  0.18032592  1
  H  H10  1  0.49664608  0.63872200  0.18185328  1
  H  H11  1  0.48341389  0.96874683  0.17444466  1
  H  H12  1  0.01872887  0.03145390  0.81985206  1
  H  H13  1  0.00239660  0.36153065  0.82409478  1
  H  H14  1  0.00314869  0.69630458  0.82061043  1
  H  H15  1  0.48058707  0.03178982  0.82770102  1
  H  H16  1  0.49287168  0.36542222  0.82267631  1
  H  H17  1  0.50140652  0.69512771  0.81735224  1
  H  H18  1  0.00016083  0.30766735  0.31894538  1
  H  H19  1  0.00780566  0.63543706  0.32039592  1
  H  H20  1  -0.00614809  0.96922910  0.32386111  1
  H  H21  1  0.50467294  0.30738329  0.32397561  1
  H  H22  1  0.50515224  0.63381792  0.32338017  1
  H  H23  1  0.49636835  0.97044610  0.31571765  1
  H  H24  1  0.23467362  0.19652780  0.67986054  1
  H  H25  1  0.24137003  0.52519642  0.67686920  1
  H  H26  1  0.25723761  0.86557555  0.67490160  1
  H  H27  1  0.76191130  0.19594212  0.67674187  1
  H  H28  1  0.75127922  0.52838011  0.67538294  1
  H  H29  1  0.75074317  0.86327903  0.68344945  1
  H  H30  1  0.24646298  0.13382319  0.18106077  1
  H  H31  1  0.26069450  0.47044676  0.17587380  1
  H  H32  1  0.23583383  0.80113458  0.17628940  1
  H  H33  1  0.76356044  0.13985917  0.17619607  1
  H  H34  1  0.74914602  0.46819106  0.18065698  1
  H  H35  1  0.74920954  0.80429106  0.17793930  1
  H  H36  1  0.25982568  0.19660664  0.82225025  1
  H  H37  1  0.24090717  0.53115747  0.81921117  1
  H  H38  1  0.24377134  0.85981827  0.82349530  1
  H  H39  1  0.75421276  0.19316314  0.82086725  1
  H  H40  1  0.74841244  0.52980649  0.81967572  1
  H  H41  1  0.75469748  0.86492281  0.82584222  1
  H  H42  1  0.23970451  0.13717453  0.32262147  1
  H  H43  1  0.26831611  0.46579226  0.32339203  1
  H  H44  1  0.25851501  0.80247211  0.32172644  1
  H  H45  1  0.75587184  0.13612223  0.31896071  1
  H  H46  1  0.73428574  0.46931200  0.32699246  1
  H  H47  1  0.75161762  0.80277335  0.31724946  1
  H  H48  1  0.12858575  0.05158489  0.62057262  1
  H  H49  1  0.12411255  0.39072914  0.60388049  1
  H  H50  1  0.13411631  0.71869191  0.61589150  1
  H  H51  1  0.62240146  0.05955944  0.60009235  1
  H  H52  1  0.62160628  0.38653404  0.60410081  1
  H  H53  1  0.63218806  0.71604627  0.62172889  1
  H  H54  1  0.38343784  0.27375235  0.09788506  1
  H  H55  1  0.37401863  0.61366813  0.11056900  1
  H  H56  1  0.37794195  0.94112297  0.09024497  1
  H  H57  1  0.87762766  0.27814998  0.10428049  1
  H  H58  1  0.87599038  0.61255949  0.10521193  1
  H  H59  1  0.87257642  0.94874932  0.12702844  1
  H  H60  1  0.38218312  0.05841465  0.91678940  1
  H  H61  1  0.38714783  0.39617139  0.90580731  1
  H  H62  1  0.37062099  0.71993931  0.88404244  1
  H  H63  1  0.87802535  0.05274688  0.87279476  1
  H  H64  1  0.88434926  0.38721646  0.89914795  1
  H  H65  1  0.87007859  0.71886243  0.88170508  1
  H  H66  1  0.12798513  0.28112996  0.38421002  1
  H  H67  1  0.11318522  0.60715877  0.40428971  1
  H  H68  1  0.13392058  0.95154405  0.37664835  1
  H  H69  1  0.62590272  0.28039718  0.39620061  1
  H  H70  1  0.62135016  0.60766962  0.39869173  1
  H  H71  1  0.63269636  0.94826494  0.37559627  1
  H  H72  1  0.37410839  0.21844731  0.62456671  1
  H  H73  1  0.38085397  0.54587753  0.62264345  1
  H  H74  1  0.36375538  0.89556978  0.59264440  1
  H  H75  1  0.86589744  0.22643537  0.59203983  1
  H  H76  1  0.88100475  0.55418700  0.60956472  1
  H  H77  1  0.86777065  0.88727802  0.60810835  1
  H  H78  1  0.12875828  0.11184789  0.10653729  1
  H  H79  1  0.11731906  0.45008101  0.12906808  1
  H  H80  1  0.13216505  0.77435690  0.09171449  1
  H  H81  1  0.62926103  0.11665721  0.11546088  1
  H  H82  1  0.61765314  0.44600883  0.11584348  1
  H  H83  1  0.63115450  0.77780269  0.10278250  1
  H  H84  1  0.11768888  0.21879942  0.87147068  1
  H  H85  1  0.12580333  0.55563643  0.89480332  1
  H  H86  1  0.13318053  0.88841081  0.90474159  1
  H  H87  1  0.62399835  0.21635073  0.88634801  1
  H  H88  1  0.62377857  0.55505669  0.89044135  1
  H  H89  1  0.62684591  0.88600120  0.89283838  1
  H  H90  1  0.37383905  0.11746360  0.38294170  1
  H  H91  1  0.37934747  0.44319667  0.40268067  1
  H  H92  1  0.36252086  0.77308334  0.40596729  1
  H  H93  1  0.86995218  0.10831465  0.39683296  1
  H  H94  1  0.87633615  0.45225316  0.37324472  1
  H  H95  1  0.87147286  0.78096168  0.39182289  1
  H  H96  1  0.37728496  0.28176898  0.39085943  1
  H  H97  1  0.37387464  0.61211400  0.38331017  1
  H  H98  1  0.38542029  0.94403832  0.39623089  1
  H  H99  1  0.87835699  0.27922449  0.39097084  1
  H  H100  1  0.86737713  0.61426180  0.37464475  1
  H  H101  1  0.88876595  0.93977751  0.40744627  1
  H  H102  1  0.12321562  0.05740601  0.90511819  1
  H  H103  1  0.13240798  0.38826684  0.88745874  1
  H  H104  1  0.11748160  0.72448683  0.89909603  1
  H  H105  1  0.62332425  0.04822368  0.87211837  1
  H  H106  1  0.63203117  0.37983803  0.87931476  1
  H  H107  1  0.61906435  0.72334792  0.89416592  1
  H  H108  1  0.12560398  0.28024957  0.11523280  1
  H  H109  1  0.12457652  0.61575439  0.11716174  1
  H  H110  1  0.11511035  0.93824458  0.08984956  1
  H  H111  1  0.63065276  0.28328652  0.12400568  1
  H  H112  1  0.62301535  0.61368526  0.11300308  1
  H  H113  1  0.62273092  0.95033495  0.11990435  1
  H  H114  1  0.37484247  0.05247766  0.61794675  1
  H  H115  1  0.37263917  0.38750510  0.60755597  1
  H  H116  1  0.38452415  0.72216280  0.60015062  1
  H  H117  1  0.88251549  0.05930372  0.59573773  1
  H  H118  1  0.87555867  0.38500208  0.61663538  1
  H  H119  1  0.88613734  0.72463044  0.60177968  1
  H  H120  1  0.12677396  0.10714531  0.40181163  1
  H  H121  1  0.13285814  0.44903550  0.37949842  1
  H  H122  1  0.11680438  0.78487515  0.37431586  1
  H  H123  1  0.62169365  0.11798968  0.38288925  1
  H  H124  1  0.63391476  0.44076004  0.41271659  1
  H  H125  1  0.62304026  0.77713368  0.38438374  1
  H  H126  1  0.36203100  0.22386002  0.90966347  1
  H  H127  1  0.37428287  0.55148120  0.88028304  1
  H  H128  1  0.38008014  0.88482254  0.87943428  1
  H  H129  1  0.87181328  0.22480160  0.89332922  1
  H  H130  1  0.87241091  0.55319759  0.89106841  1
  H  H131  1  0.87439666  0.89465794  0.89766495  1
  H  H132  1  0.37784646  0.11398916  0.11696188  1
  H  H133  1  0.35991778  0.43945865  0.08862144  1
  H  H134  1  0.37613518  0.78651235  0.12630392  1
  H  H135  1  0.87603121  0.10876098  0.09713073  1
  H  H136  1  0.86605118  0.44203930  0.10426012  1
  H  H137  1  0.88047795  0.78129674  0.11520514  1
  H  H138  1  0.12816966  0.22327200  0.59600495  1
  H  H139  1  0.13496972  0.55719538  0.59440350  1
  H  H140  1  0.11833476  0.88397226  0.61888640  1
  H  H141  1  0.62124647  0.21836971  0.62640295  1
  H  H142  1  0.63301468  0.55282454  0.59885277  1
  H  H143  1  0.61919139  0.88455206  0.62154639  1
  H  H144  1  0.81141336  0.91502455  0.49864783  1
  H  H145  1  0.42313037  0.58432361  0.00219592  1
  H  H146  1  0.93592263  0.58109462  -0.00034375  1
  H  H147  1  0.40309274  0.57942982  0.49696430  1
  H  H148  1  0.09663280  0.41551212  0.99656954  1
  H  H149  1  0.08532511  0.24962931  0.49523570  1
  H  H150  1  0.80968793  0.08561635  -0.00452668  1
  H  H151  1  0.20343138  0.25118234  0.49252114  1
  H  H152  1  0.80546331  0.07940115  0.50265706  1
  H  H153  1  0.18324365  0.58990746  1.00195460  1
  H  H154  1  0.86739272  0.42092241  0.48853708  1
  H  H155  1  0.61773258  0.07779461  -0.01208338  1
  H  H156  1  0.03242008  0.91252623  -0.00687913  1
  H  H157  1  0.78754518  0.25353796  0.49358954  1
  H  H158  1  0.60935046  0.41802979  0.98456287  1
  H  H159  1  0.60703447  0.25189759  0.01083048  1
  H  H160  1  0.80722815  0.41210695  -0.00168418  1
  H  H161  1  0.04642899  0.08948571  1.00625297  1
  H  H162  1  0.06521724  0.42082853  0.49811994  1
  H  H163  1  0.45061862  0.74471455  0.49730235  1
  H  H164  1  0.45328739  0.91816011  0.50188463  1
  H  H165  1  0.95726254  0.08392786  0.49501693  1
  H  H166  1  0.66793385  0.92312429  0.99424345  1
  H  H167  1  0.84825489  0.74978113  0.00398304  1
  H  H168  1  0.46281072  0.41343893  1.00692605  1
  H  H169  1  0.40700196  0.08459471  0.50668681  1
  H  H170  1  0.27779002  0.41617285  -0.00969420  1
  H  H171  1  0.09222678  0.25121758  0.00097767  1
  H  H172  1  0.13286633  0.75420141  0.48433784  1
  H  H173  1  0.03928555  0.57881358  0.50662270  1
  H  H174  1  0.36315783  0.75365920  1.01143999  1
  H  H175  1  0.65022280  0.91346053  0.50914430  1
  H  H176  1  0.13993587  0.91837681  0.50987161  1
  H  H177  1  0.18401803  0.08252457  -0.00353320  1
  H  H178  1  0.68961751  0.75050488  -0.00110638  1
  H  H179  1  0.60489402  0.74684373  0.50934428  1
  H  H180  1  0.83926753  0.58179319  0.50359690  1
  H  H181  1  0.67449591  0.58398310  0.99436093  1
  H  H182  1  0.45295433  0.24027741  0.00002985  1
  H  H183  1  0.81660420  0.74955834  0.49906317  1
  H  H184  1  0.93275580  0.25788506  0.49686577  1
  H  H185  1  0.20436016  0.91463541  1.00603045  1
  H  H186  1  0.28124265  0.24950574  1.00796482  1
  H  H187  1  0.21010270  0.58054001  0.49337023  1
  H  H188  1  0.28806075  0.74550202  0.50901721  1
  H  H189  1  0.82218429  0.91166924  1.00183436  1
  H  H190  1  0.28817827  0.91310472  0.49119561  1
  H  H191  1  0.96347109  0.91500768  0.50766352  1
  Pb  Pb192  1  0.25260778  0.04740603  0.76276050  1
  Pb  Pb193  1  0.25679646  0.38292837  0.75307429  1
  Pb  Pb194  1  0.25051395  0.71382833  0.74888659  1
  Pb  Pb195  1  0.75074279  0.04795932  0.74302873  1
  Pb  Pb196  1  0.75111220  0.37837212  0.75158891  1
  Pb  Pb197  1  0.75494279  0.71694538  0.75245911  1
  Pb  Pb198  1  0.25576588  0.28362539  0.24406910  1
  Pb  Pb199  1  0.24778179  0.61860882  0.25786956  1
  Pb  Pb200  1  0.25526794  0.94959090  0.24371828  1
  Pb  Pb201  1  0.75047404  0.28627835  0.25714654  1
  Pb  Pb202  1  0.75281346  0.61638236  0.24647408  1
  Pb  Pb203  1  0.75177492  0.95327807  0.25440478  1
  Pb  Pb204  1  0.00130097  0.21620719  0.73894817  1
  Pb  Pb205  1  0.00004630  0.54684432  0.74853842  1
  Pb  Pb206  1  0.00464546  0.88239170  0.75370631  1
  Pb  Pb207  1  0.49840146  0.21217320  0.76432676  1
  Pb  Pb208  1  0.50713973  0.54841235  0.74802451  1
  Pb  Pb209  1  0.49896917  0.88173550  0.74482890  1
  Pb  Pb210  1  0.00094186  0.11798868  0.25075724  1
  Pb  Pb211  1  0.00189018  0.45079199  0.24547300  1
  Pb  Pb212  1  -0.00038725  0.78678543  0.24585311  1
  Pb  Pb213  1  0.50243728  0.11976928  0.25117071  1
  Pb  Pb214  1  0.49936695  0.45249102  0.25101066  1
  Pb  Pb215  1  0.50362051  0.78334180  0.25871850  1
  C  C216  1  0.00058826  0.04590610  0.63113529  1
  C  C217  1  0.00238671  0.38009220  0.63350619  1
  C  C218  1  0.00747074  0.71340477  0.63150140  1
  C  C219  1  0.50194676  0.04771279  0.63220545  1
  C  C220  1  0.49764488  0.37712606  0.62830050  1
  C  C221  1  0.50441677  0.70964828  0.63252151  1
  C  C222  1  0.00067511  0.28660139  0.13046422  1
  C  C223  1  -0.00213478  0.62279874  0.13437783  1
  C  C224  1  0.00095396  0.95369526  0.13078044  1
  C  C225  1  0.50247581  0.28578229  0.13304395  1
  C  C226  1  0.49800241  0.62218752  0.13475499  1
  C  C227  1  0.49502085  0.95402535  0.12767555  1
  C  C228  1  0.00641336  0.04699340  0.86650570  1
  C  C229  1  0.00699525  0.37833628  0.87095045  1
  C  C230  1  -0.00300929  0.71272432  0.86742082  1
  C  C231  1  0.49636835  0.04625493  0.87393005  1
  C  C232  1  0.50432429  0.38013963  0.86987212  1
  C  C233  1  0.49707396  0.71162457  0.86442376  1
  C  C234  1  0.00164019  0.29028639  0.36590928  1
  C  C235  1  -0.00432742  0.62010099  0.36715619  1
  C  C236  1  0.00544964  0.95482930  0.37104170  1
  C  C237  1  0.50244991  0.29030296  0.37063535  1
  C  C238  1  0.49934452  0.61810325  0.37056317  1
  C  C239  1  0.50531830  0.95500691  0.36285437  1
  C  C240  1  0.24573603  0.21213919  0.63309969  1
  C  C241  1  0.25196758  0.54148396  0.63026675  1
  C  C242  1  0.24607391  0.88105154  0.62785312  1
  C  C243  1  0.74984332  0.21199018  0.63041629  1
  C  C244  1  0.75566058  0.54446937  0.62815885  1
  C  C245  1  0.74555771  0.87809181  0.63569885  1
  C  C246  1  0.25072976  0.11956098  0.13330861  1
  C  C247  1  0.24596501  0.45488095  0.12962675  1
  C  C248  1  0.24912942  0.78698262  0.12945691  1
  C  C249  1  0.75665012  0.12244214  0.12968001  1
  C  C250  1  0.74387129  0.45307970  0.13311684  1
  C  C251  1  0.75339340  0.78793297  0.13065911  1
  C  C252  1  0.24681086  0.21179684  0.86892749  1
  C  C253  1  0.24673394  0.54646775  0.86654789  1
  C  C254  1  0.25201388  0.87614602  0.87021256  1
  C  C255  1  0.74945926  0.21062356  0.86727089  1
  C  C256  1  0.74793405  0.54632740  0.86684331  1
  C  C257  1  0.75204866  0.88130867  0.87316250  1
  C  C258  1  0.24650295  0.12071190  0.36934662  1
  C  C259  1  0.25983322  0.45258885  0.37115871  1
  C  C260  1  0.24506439  0.78665543  0.36825387  1
  C  C261  1  0.74896511  0.12094971  0.36632756  1
  C  C262  1  0.74938654  0.45417068  0.37316177  1
  C  C263  1  0.74831621  0.78686119  0.36467397  1
  C  C264  1  0.31462459  0.56981518  0.54464056  1
  C  C265  1  0.17988554  0.23992344  0.95263503  1
  C  C266  1  0.56114721  0.26076634  0.04561337  1
  C  C267  1  0.28367151  0.42686397  0.46677255  1
  C  C268  1  0.01072766  0.59133712  0.46301192  1
  C  C269  1  0.55996026  0.73764278  0.54476856  1
  C  C270  1  0.31080219  0.90753237  0.95664168  1
  C  C271  1  0.23047586  0.24032550  0.53696064  1
  C  C272  1  0.53580277  0.25794593  0.46236384  1
  C  C273  1  0.69461932  0.90352792  0.54477883  1
  C  C274  1  0.17683667  0.42814439  0.04666902  1
  C  C275  1  0.68466718  0.24346585  0.54686350  1
  C  C276  1  0.48414121  0.92825212  0.45857491  1
  C  C277  1  0.96632736  0.26026730  0.03571374  1
  C  C278  1  0.31311832  0.76192376  0.04307832  1
  C  C279  1  0.21973401  0.09317745  0.03714021  1
  C  C280  1  0.97037428  0.59309467  0.04060081  1
  C  C281  1  0.78001105  0.24515907  0.95922955  1
  C  C282  1  0.77308158  0.09189340  0.46079182  1
  C  C283  1  0.01952979  0.07699988  0.96214177  1
  C  C284  1  0.53006881  0.58884800  0.46504016  1
  C  C285  1  0.46296382  0.59440042  0.04164046  1
  C  C286  1  0.06929083  0.93046482  0.45756103  1
  C  C287  1  0.73639766  0.42507397  0.47026052  1
  C  C288  1  0.53248157  0.41225796  0.53797999  1
  C  C289  1  0.45289936  0.07504842  0.54283417  1
  C  C290  1  0.56566127  0.06962955  0.95825534  1
  C  C291  1  0.44882599  0.58978696  0.46136454  1
  C  C292  1  0.20318633  0.42875390  0.45910800  1
  C  C293  1  0.78016504  0.75970285  0.45853471  1
  C  C294  1  0.04646900  0.25960839  0.45616516  1
  C  C295  1  0.29810876  0.09263459  0.45804759  1
  C  C296  1  0.77227162  0.42539283  0.03877217  1
  C  C297  1  0.05485600  0.74052889  0.54131672  1
  C  C298  1  0.21863985  0.57659957  0.96200203  1
  C  C299  1  0.26078011  0.75753316  0.46483965  1
  C  C300  1  0.04778921  0.26050207  0.03779932  1
  C  C301  1  0.77652780  0.90434109  0.53983217  1
  C  C302  1  0.97374071  0.40796956  0.96584038  1
  C  C303  1  0.23286723  0.75791470  0.03274510  1
  C  C304  1  0.80356808  0.75927868  0.04101599  1
  C  C305  1  0.47907548  0.92506489  0.03142770  1
  C  C306  1  0.94716729  0.74080551  0.95677644  1
  C  C307  1  0.29973785  0.57433381  0.95550062  1
  C  C308  1  0.30103011  0.09391821  0.04253750  1
  C  C309  1  0.02966093  0.40888203  0.53918350  1
  C  C310  1  0.48612213  0.07349165  0.97195991  1
  C  C311  1  0.81624345  0.42881401  0.45799889  1
  N  N312  1  0.23255365  0.90748972  0.96415832  1
  N  N313  1  0.25720040  0.24176477  0.96437117  1
  N  N314  1  0.26433848  0.91575730  0.53529066  1
  N  N315  1  0.93342525  0.92494795  0.04812880  1
  N  N316  1  0.56365866  0.40106925  0.95625868  1
  N  N317  1  0.70098214  0.75833133  0.45625573  1
  N  N318  1  0.30836613  0.23960376  0.54675087  1
  N  N319  1  0.18276202  0.76077606  0.45288999  1
  N  N320  1  0.48224357  0.25781095  0.03798388  1
  N  N321  1  0.72077314  0.57266125  0.53411588  1
  N  N322  1  0.04952014  0.59412256  0.04423034  1
  N  N323  1  0.55568948  0.92858332  0.03947008  1
  N  N324  1  0.06004780  0.07422489  0.54483150  1
  N  N325  1  0.69421674  0.09497628  0.45621931  1
  N  N326  1  0.56276843  0.92876055  0.45146777  1
  N  N327  1  0.70159952  0.09504785  0.04168726  1
  N  N328  1  0.98263698  0.07693492  0.53806508  1
  N  N329  1  0.45849002  0.25817343  0.46202840  1
  N  N330  1  0.76233785  0.24486490  0.53630469  1
  N  N331  1  0.54240567  0.59388069  0.04193854  1
  N  N332  1  0.45139472  0.74027594  0.95509858  1
  N  N333  1  0.05237878  0.40707641  0.96095016  1
  N  N334  1  0.99113514  0.92596172  0.46653456  1
  N  N335  1  0.97748506  0.74317712  0.53565877  1
  N  N336  1  0.96676868  0.25857031  0.45728871  1
  N  N337  1  0.02428524  0.74318741  0.96347515  1
  N  N338  1  0.94146797  0.07572005  0.95149128  1
  N  N339  1  0.70257779  0.24196033  0.95831313  1
  N  N340  1  0.01008142  0.92103501  0.03726641  1
  N  N341  1  0.70860317  0.90188297  0.96548855  1
  N  N342  1  0.78655979  0.91680656  0.96298234  1
  N  N343  1  0.48082028  0.74037859  0.53873392  1
  N  N344  1  0.23672009  0.57395893  0.53606376  1
  N  N345  1  0.22106765  0.08870545  0.46522488  1
  N  N346  1  0.45525199  0.41287484  0.53793456  1
  N  N347  1  0.77924420  0.09276460  0.03628825  1
  N  N348  1  0.53178051  0.07768884  0.53664663  1
  N  N349  1  0.95068375  0.40716679  0.54340339  1
  N  N350  1  0.69316457  0.42839794  0.04163175  1
  N  N351  1  0.79853545  0.57306305  0.53903035  1
  N  N352  1  0.48682328  0.41507084  0.96239523  1
  N  N353  1  0.52744277  0.74173564  0.95863586  1
  N  N354  1  0.18723671  0.90338382  0.54164799  1
  N  N355  1  0.25399694  0.42451576  0.03416140  1
  N  N356  1  0.79001195  0.57305485  0.95980479  1
  N  N357  1  0.71166999  0.57374861  0.95790025  1
  N  N358  1  0.93250778  0.59397606  0.45341432  1
  N  N359  1  0.72381277  0.75738005  0.03789303  1
  N  N360  1  0.07070204  0.05662949  0.60346892  1
  N  N361  1  0.06268203  0.39240059  0.59426562  1
  N  N362  1  0.07587122  0.72287602  0.59975362  1
  N  N363  1  0.56073667  0.06043757  0.59284565  1
  N  N364  1  0.56141826  0.39093075  0.59241174  1
  N  N365  1  0.57484656  0.72024105  0.60352188  1
  N  N366  1  0.44614933  0.27156979  0.09244745  1
  N  N367  1  0.43444728  0.61102669  0.09838386  1
  N  N368  1  0.43948464  0.94036138  0.08418374  1
  N  N369  1  0.93815636  0.27587120  0.09141401  1
  N  N370  1  0.93716309  0.61012329  0.09563102  1
  N  N371  1  0.92853985  0.94386320  0.10684430  1
  N  N372  1  0.44436214  0.05948443  0.92094667  1
  N  N373  1  0.44922732  0.39178960  0.91261949  1
  N  N374  1  0.43089999  0.72132957  0.89707509  1
  N  N375  1  0.93534634  0.05724365  0.89181877  1
  N  N376  1  0.94529740  0.39034503  0.91017825  1
  N  N377  1  0.92797672  0.72295450  0.89822866  1
  N  N378  1  0.06836458  0.27751537  0.39897374  1
  N  N379  1  0.05074594  0.60728890  0.41053968  1
  N  N380  1  0.07850782  0.94728445  0.39786148  1
  N  N381  1  0.56568422  0.27727731  0.40737206  1
  N  N382  1  0.56044422  0.60579883  0.41049124  1
  N  N383  1  0.57435572  0.94563002  0.39171461  1
  N  N384  1  0.31618131  0.22207412  0.60640865  1
  N  N385  1  0.32438624  0.55151211  0.60355160  1
  N  N386  1  0.30153606  0.89192785  0.58514685  1
  N  N387  1  0.80372877  0.22327557  0.58684245  1
  N  N388  1  0.82141505  0.55559801  0.59581959  1
  N  N389  1  0.80682333  0.88848217  0.59682404  1
  N  N390  1  0.18929629  0.10930112  0.09494030  1
  N  N391  1  0.17153359  0.44559832  0.10641285  1
  N  N392  1  0.19422420  0.77313406  0.08465824  1
  N  N393  1  0.68798256  0.11237553  0.09990374  1
  N  N394  1  0.67687225  0.44513118  0.10114415  1
  N  N395  1  0.69294257  0.77723022  0.09249795  1
  N  N396  1  0.17311212  0.22273850  0.89312197  1
  N  N397  1  0.18660446  0.55883464  0.90538278  1
  N  N398  1  0.19517724  0.88609005  0.91186424  1
  N  N399  1  0.68329424  0.22015238  0.89954247  1
  N  N400  1  0.68460255  0.55809003  0.90174112  1
  N  N401  1  0.68665184  0.89127459  0.90631556  1
  N  N402  1  0.31606048  0.11141993  0.39977687  1
  N  N403  1  0.31831164  0.44127355  0.41324928  1
  N  N404  1  0.29997681  0.77324575  0.41225864  1
  N  N405  1  0.80834898  0.10763409  0.40604737  1
  N  N406  1  0.82271119  0.44651166  0.39668647  1
  N  N407  1  0.81056038  0.77676487  0.40267060  1
  N  N408  1  0.43745782  0.27879055  0.40375166  1
  N  N409  1  0.43102992  0.60805409  0.40114314  1
  N  N410  1  0.44745061  0.94390114  0.40452205  1
  N  N411  1  0.93935923  0.28087595  0.40263998  1
  N  N412  1  0.92484821  0.61190968  0.39346748  1
  N  N413  1  0.95110376  0.94284951  0.41367696  1
  N  N414  1  0.06096869  0.05947698  0.91044776  1
  N  N415  1  0.07352520  0.38847941  0.90252154  1
  N  N416  1  0.05554290  0.72500953  0.90670209  1
  N  N417  1  0.57025134  0.05288771  0.89657832  1
  N  N418  1  0.57517123  0.38877191  0.89623895  1
  N  N419  1  0.55723169  0.72411152  0.90253160  1
  N  N420  1  0.06784866  0.27677640  0.09840932  1
  N  N421  1  0.06474606  0.61265777  0.10278266  1
  N  N422  1  0.05261933  0.94109314  0.08616510  1
  N  N423  1  0.57395626  0.27870960  0.10441002  1
  N  N424  1  0.56241237  0.61130487  0.10057829  1
  N  N425  1  0.56550835  0.94689949  0.10089756  1
  N  N426  1  0.43322720  0.05714040  0.60137131  1
  N  N427  1  0.43312470  0.39061779  0.59542447  1
  N  N428  1  0.44658697  0.72041643  0.59194397  1
  N  N429  1  0.94464092  0.05741813  0.58930604  1
  N  N430  1  0.93507946  0.38961214  0.60242774  1
  N  N431  1  0.94810110  0.72599052  0.59325572  1
  N  N432  1  0.18868427  0.10664565  0.40856614  1
  N  N433  1  0.18900096  0.44427697  0.40042966  1
  N  N434  1  0.17359233  0.77840679  0.39339610  1
  N  N435  1  0.68106586  0.11299660  0.39742872  1
  N  N436  1  0.69602525  0.44034627  0.41913831  1
  N  N437  1  0.68275142  0.77513856  0.39723564  1
  N  N438  1  0.29936779  0.22170650  0.91361668  1
  N  N439  1  0.31632480  0.55643074  0.89768591  1
  N  N440  1  0.32302530  0.88902211  0.89819540  1
  N  N441  1  0.81097047  0.22629064  0.90474688  1
  N  N442  1  0.81172399  0.55619265  0.90261780  1
  N  N443  1  0.81429088  0.89219209  0.90968192  1
  N  N444  1  0.31924169  0.10953861  0.10066608  1
  N  N445  1  0.29736829  0.44351732  0.08462066  1
  N  N446  1  0.32168660  0.77992974  0.10430094  1
  N  N447  1  0.81434718  0.11044772  0.08931217  1
  N  N448  1  0.80456214  0.44075698  0.09434324  1
  N  N449  1  0.82182854  0.77703065  0.09916902  1
  N  N450  1  0.19000433  0.22381072  0.58973245  1
  N  N451  1  0.19697494  0.55362639  0.58795861  1
  N  N452  1  0.17550555  0.89071705  0.60139674  1
  N  N453  1  0.67683429  0.22368764  0.60533887  1
  N  N454  1  0.69452004  0.55512994  0.58977556  1
  N  N455  1  0.67695833  0.88736755  0.60441907  1
  Cl  Cl456  1  0.25193763  0.04660735  0.63172147  1
  Cl  Cl457  1  0.24646141  0.38862482  0.62155670  1
  Cl  Cl458  1  0.26203064  0.72172006  0.61135003  1
  Cl  Cl459  1  0.75842375  0.06026385  0.60787334  1
  Cl  Cl460  1  0.74614196  0.38148825  0.61946091  1
  Cl  Cl461  1  0.76316796  0.72084997  0.61890993  1
  Cl  Cl462  1  0.26326806  0.27450451  0.10199865  1
  Cl  Cl463  1  0.24916226  0.61432503  0.12574984  1
  Cl  Cl464  1  0.23772570  0.93766836  0.10190000  1
  Cl  Cl465  1  0.75699802  0.27890743  0.12615216  1
  Cl  Cl466  1  0.74819032  0.61348593  0.11102195  1
  Cl  Cl467  1  0.74743659  0.94520748  0.11885112  1
  Cl  Cl468  1  0.25189856  0.05434294  0.89861135  1
  Cl  Cl469  1  0.26547597  0.39411962  0.89828272  1
  Cl  Cl470  1  0.24373322  0.72491223  0.88116460  1
  Cl  Cl471  1  0.75447774  0.05633717  0.87855555  1
  Cl  Cl472  1  0.76065901  0.38591525  0.88773822  1
  Cl  Cl473  1  0.74135625  0.72607987  0.89350869  1
  Cl  Cl474  1  0.25041682  0.28037900  0.37767401  1
  Cl  Cl475  1  0.23559857  0.60649874  0.39677504  1
  Cl  Cl476  1  0.26368035  0.93711941  0.38824555  1
  Cl  Cl477  1  0.75582792  0.27494440  0.39638533  1
  Cl  Cl478  1  0.74275463  0.60870426  0.37838135  1
  Cl  Cl479  1  0.76782124  0.94204717  0.38792642  1
  Cl  Cl480  1  -0.00662590  0.22832203  0.59800328  1
  Cl  Cl481  1  0.00962745  0.55866860  0.61116311  1
  Cl  Cl482  1  -0.00905251  0.89150706  0.61329381  1
  Cl  Cl483  1  0.49783918  0.21781821  0.63690044  1
  Cl  Cl484  1  0.50972800  0.55297061  0.61430197  1
  Cl  Cl485  1  0.48370809  0.89205001  0.60914700  1
  Cl  Cl486  1  -0.00068819  0.10874438  0.11497150  1
  Cl  Cl487  1  -0.01107382  0.44221988  0.11090761  1
  Cl  Cl488  1  0.00859891  0.77992916  0.11476398  1
  Cl  Cl489  1  0.50346454  0.11730535  0.11836805  1
  Cl  Cl490  1  0.48222116  0.43521833  0.10337972  1
  Cl  Cl491  1  0.51181757  0.78408276  0.12813336  1
  Cl  Cl492  1  -0.00698978  0.22282704  0.87055824  1
  Cl  Cl493  1  -0.00422089  0.55091824  0.88215400  1
  Cl  Cl494  1  0.00881864  0.89428540  0.89625956  1
  Cl  Cl495  1  0.48511042  0.22427507  0.90161286  1
  Cl  Cl496  1  0.50100768  0.55099992  0.88245744  1
  Cl  Cl497  1  0.50532064  0.88621935  0.87684096  1
  Cl  Cl498  1  -0.00529113  0.10690299  0.39381291  1
  Cl  Cl499  1  0.00838393  0.44616910  0.37656410  1
  Cl  Cl500  1  -0.00678514  0.78867384  0.37800764  1
  Cl  Cl501  1  0.49729370  0.11759204  0.38138652  1
  Cl  Cl502  1  0.51040240  0.44309398  0.38249831  1
  Cl  Cl503  1  0.48567222  0.77157638  0.39845091  1
  Cl  Cl504  1  0.35459066  0.15028324  0.75104383  1
  Cl  Cl505  1  0.35770944  0.47962662  0.75192828  1
  Cl  Cl506  1  0.35756952  0.81752022  0.75083487  1
  Cl  Cl507  1  0.85998360  0.14936051  0.74742808  1
  Cl  Cl508  1  0.86042975  0.48128768  0.74372669  1
  Cl  Cl509  1  0.85412648  0.81490520  0.75807543  1
  Cl  Cl510  1  0.13639695  0.18740438  0.25134709  1
  Cl  Cl511  1  0.13578354  0.51871436  0.24670555  1
  Cl  Cl512  1  0.13630131  0.85475348  0.25673758  1
  Cl  Cl513  1  0.63978365  0.18526317  0.24988655  1
  Cl  Cl514  1  0.63501986  0.51928018  0.23927561  1
  Cl  Cl515  1  0.63864361  0.85314087  0.25983642  1
  Cl  Cl516  1  0.13419158  0.14477313  0.75209798  1
  Cl  Cl517  1  0.13765728  0.47934489  0.75307727  1
  Cl  Cl518  1  0.13650309  0.81425314  0.73811273  1
  Cl  Cl519  1  0.63613873  0.14662095  0.75413428  1
  Cl  Cl520  1  0.64345741  0.48172525  0.75270025  1
  Cl  Cl521  1  0.63578155  0.81338230  0.74608378  1
  Cl  Cl522  1  0.35632186  0.18484398  0.24689897  1
  Cl  Cl523  1  0.35813147  0.51692595  0.24972204  1
  Cl  Cl524  1  0.35453600  0.85167095  0.24562413  1
  Cl  Cl525  1  0.86181592  0.18457287  0.25274129  1
  Cl  Cl526  1  0.85606676  0.52046117  0.25863663  1
  Cl  Cl527  1  0.86039360  0.85205165  0.23833197  1
  Cl  Cl528  1  0.10893215  0.31254072  0.75308011  1
  Cl  Cl529  1  0.11045217  0.64879267  0.74722830  1
  Cl  Cl530  1  0.10475978  0.97841193  0.74364780  1
  Cl  Cl531  1  0.61073179  0.31273990  0.75906866  1
  Cl  Cl532  1  0.60652117  0.64751747  0.74976741  1
  Cl  Cl533  1  0.61359172  0.98071409  0.75298620  1
  Cl  Cl534  1  0.38961758  0.01870807  0.24705905  1
  Cl  Cl535  1  0.39236402  0.34900152  0.24924502  1
  Cl  Cl536  1  0.38626509  0.68526880  0.25667198  1
  Cl  Cl537  1  0.89154109  0.01667344  0.24504152  1
  Cl  Cl538  1  0.88912408  0.35158289  0.25456892  1
  Cl  Cl539  1  0.88732310  0.68619591  0.25274328  1
  Cl  Cl540  1  0.39108566  0.31572973  0.75373446  1
  Cl  Cl541  1  0.38681837  0.64478276  0.75046723  1
  Cl  Cl542  1  0.39298388  0.98541772  0.75588033  1
  Cl  Cl543  1  0.89151981  0.31694147  0.74382249  1
  Cl  Cl544  1  0.88920098  0.64863027  0.75439796  1
  Cl  Cl545  1  0.88596823  0.97897421  0.75826575  1
  Cl  Cl546  1  0.11490062  0.01941363  0.25805149  1
  Cl  Cl547  1  0.10874461  0.35509802  0.23961956  1
  Cl  Cl548  1  0.11046929  0.68631372  0.25464313  1
  Cl  Cl549  1  0.61301998  0.01993416  0.24804071  1
  Cl  Cl550  1  0.61456430  0.35425177  0.24172911  1
  Cl  Cl551  1  0.60604826  0.68729576  0.25650916  1
