# generated using pymatgen
data_H8PbC4(N3Cl2)2
_symmetry_space_group_name_H-M   'P 1'
_cell_length_a   16.62245124
_cell_length_b   22.50270144
_cell_length_c   21.59017972
_cell_angle_alpha   89.99843415
_cell_angle_beta   89.99281488
_cell_angle_gamma   90.00200333
_symmetry_Int_Tables_number   1
_chemical_formula_structural   H8PbC4(N3Cl2)2
_chemical_formula_sum   'H192 Pb24 C96 N144 Cl96'
_cell_volume   8075.80789345
_cell_formula_units_Z   24
loop_
 _symmetry_equiv_pos_site_id
 _symmetry_equiv_pos_as_xyz
  1  'x, y, z'
loop_
 _atom_site_type_symbol
 _atom_site_label
 _atom_site_symmetry_multiplicity
 _atom_site_fract_x
 _atom_site_fract_y
 _atom_site_fract_z
 _atom_site_occupancy
  H  H0  1  0.00608774  0.03188912  0.67657257  1
  H  H1  1  0.00193041  0.36511085  0.68126170  1
  H  H2  1  0.00162852  0.69868262  0.68244722  1
  H  H3  1  0.50437539  0.03118982  0.68291224  1
  H  H4  1  0.50389352  0.36478160  0.68202326  1
  H  H5  1  0.49529883  0.69891013  0.67834806  1
  H  H6  1  0.00153685  0.29843929  0.18143613  1
  H  H7  1  -0.00667530  0.63518575  0.18367559  1
  H  H8  1  0.00135494  0.97041252  0.18092234  1
  H  H9  1  0.49456522  0.30033564  0.17860162  1
  H  H10  1  0.50542316  0.63487175  0.18453783  1
  H  H11  1  0.49720956  0.96826534  0.18401571  1
  H  H12  1  0.00721609  0.03212639  0.81842484  1
  H  H13  1  -0.00221972  0.35933286  0.82098834  1
  H  H14  1  0.00429895  0.69938989  0.81940502  1
  H  H15  1  0.50187750  0.03328899  0.82023662  1
  H  H16  1  0.49567985  0.36405566  0.81895284  1
  H  H17  1  0.49307987  0.69951194  0.81885658  1
  H  H18  1  0.00231091  0.30139692  0.32159517  1
  H  H19  1  0.00474836  0.63560409  0.31997841  1
  H  H20  1  0.00476101  0.96874456  0.31953367  1
  H  H21  1  0.49745002  0.30021232  0.31788714  1
  H  H22  1  0.50234732  0.63549421  0.32031308  1
  H  H23  1  0.49497940  0.96987428  0.32096855  1
  H  H24  1  0.25326469  0.19796318  0.67827560  1
  H  H25  1  0.24644483  0.53208027  0.68106313  1
  H  H26  1  0.24587655  0.86559015  0.68143239  1
  H  H27  1  0.74777082  0.19954001  0.68125654  1
  H  H28  1  0.74808078  0.53220587  0.68034474  1
  H  H29  1  0.75692652  0.86609160  0.67683436  1
  H  H30  1  0.25279569  0.13694453  0.17817981  1
  H  H31  1  0.23695375  0.46738437  0.18110388  1
  H  H32  1  0.25073017  0.80188695  0.17933264  1
  H  H33  1  0.74883778  0.13512686  0.18165550  1
  H  H34  1  0.75852071  0.46705894  0.18034801  1
  H  H35  1  0.74602633  0.80243295  0.18296200  1
  H  H36  1  0.25018768  0.19608597  0.82066912  1
  H  H37  1  0.26012773  0.53240334  0.81819087  1
  H  H38  1  0.25817956  0.86505971  0.81746880  1
  H  H39  1  0.75456419  0.19846190  0.82128813  1
  H  H40  1  0.74732276  0.53261598  0.81497738  1
  H  H41  1  0.74170891  0.86538324  0.82109342  1
  H  H42  1  0.24894761  0.13365901  0.31950044  1
  H  H43  1  0.25949635  0.46729300  0.31983538  1
  H  H44  1  0.25216992  0.80161033  0.31652476  1
  H  H45  1  0.74928123  0.13457307  0.32008577  1
  H  H46  1  0.74477623  0.46748602  0.32083446  1
  H  H47  1  0.75542994  0.80118832  0.32192820  1
  H  H48  1  0.12119724  0.05887679  0.59991610  1
  H  H49  1  0.12234901  0.38729605  0.60736936  1
  H  H50  1  0.12434989  0.72065111  0.61137567  1
  H  H51  1  0.62544129  0.05344079  0.60932348  1
  H  H52  1  0.61969915  0.38789603  0.60379549  1
  H  H53  1  0.62789436  0.71979769  0.61551036  1
  H  H54  1  0.38125796  0.27543500  0.09851727  1
  H  H55  1  0.37592552  0.61526093  0.11985814  1
  H  H56  1  0.37422274  0.94809240  0.11298830  1
  H  H57  1  0.87746970  0.27823330  0.10764501  1
  H  H58  1  0.87966113  0.61228841  0.10546508  1
  H  H59  1  0.87426182  0.94581503  0.11127344  1
  H  H60  1  0.37477758  0.05416317  0.89037750  1
  H  H61  1  0.37821749  0.38807270  0.89542851  1
  H  H62  1  0.37589394  0.72263816  0.89528444  1
  H  H63  1  0.87668486  0.05293541  0.88596659  1
  H  H64  1  0.87500717  0.38697642  0.89121577  1
  H  H65  1  0.87808195  0.71996779  0.88632411  1
  H  H66  1  0.12274799  0.27752068  0.39514473  1
  H  H67  1  0.11588892  0.60814728  0.40147984  1
  H  H68  1  0.11980899  0.94469892  0.39912139  1
  H  H69  1  0.62501416  0.27995529  0.38604706  1
  H  H70  1  0.61722990  0.61217267  0.39771117  1
  H  H71  1  0.62252474  0.94518820  0.38881219  1
  H  H72  1  0.37512413  0.22227783  0.60637868  1
  H  H73  1  0.38200891  0.55275552  0.62036736  1
  H  H74  1  0.37989719  0.88379038  0.62172863  1
  H  H75  1  0.87890065  0.21779149  0.61658897  1
  H  H76  1  0.88157799  0.55337267  0.61708095  1
  H  H77  1  0.87361004  0.88936263  0.59958306  1
  H  H78  1  0.12569723  0.11324213  0.11011889  1
  H  H79  1  0.12959618  0.44068742  0.09595666  1
  H  H80  1  0.12536519  0.77901695  0.10843011  1
  H  H81  1  0.62580232  0.11243023  0.10838888  1
  H  H82  1  0.62170366  0.44715710  0.12173074  1
  H  H83  1  0.62346339  0.77864390  0.11086737  1
  H  H84  1  0.12489260  0.22063038  0.89210977  1
  H  H85  1  0.12347071  0.55157464  0.87684947  1
  H  H86  1  0.12245540  0.88241289  0.87516272  1
  H  H87  1  0.62145314  0.21841826  0.88547023  1
  H  H88  1  0.62452697  0.55423453  0.88570055  1
  H  H89  1  0.63179451  0.89256759  0.90236923  1
  H  H90  1  0.37420827  0.11405129  0.38778482  1
  H  H91  1  0.37417632  0.44183355  0.39810866  1
  H  H92  1  0.37487820  0.77931430  0.38927948  1
  H  H93  1  0.87817989  0.11408625  0.38650392  1
  H  H94  1  0.87878701  0.44971084  0.38231637  1
  H  H95  1  0.86940299  0.77874520  0.39857485  1
  H  H96  1  0.37548391  0.27976732  0.38931341  1
  H  H97  1  0.36852452  0.61280947  0.38249690  1
  H  H98  1  0.37373502  0.94490524  0.39318691  1
  H  H99  1  0.87361106  0.27884637  0.38801621  1
  H  H100  1  0.86960489  0.61646521  0.38019128  1
  H  H101  1  0.87189080  0.94640217  0.38342704  1
  H  H102  1  0.12517362  0.05582666  0.89639500  1
  H  H103  1  0.12338259  0.38710605  0.88870587  1
  H  H104  1  0.12738016  0.72066368  0.89129756  1
  H  H105  1  0.62396579  0.05593370  0.89275098  1
  H  H106  1  0.62675692  0.38626169  0.88432067  1
  H  H107  1  0.62462707  0.71979138  0.88454241  1
  H  H108  1  0.12649605  0.27806713  0.10806501  1
  H  H109  1  0.12775240  0.61754243  0.12405769  1
  H  H110  1  0.12265487  0.94573214  0.10600061  1
  H  H111  1  0.62852103  0.28015179  0.11837347  1
  H  H112  1  0.62538099  0.61349049  0.11094009  1
  H  H113  1  0.62372124  0.94748543  0.11643229  1
  H  H114  1  0.37615530  0.05369235  0.61367752  1
  H  H115  1  0.37091975  0.38483681  0.61707383  1
  H  H116  1  0.37974514  0.72442742  0.60220128  1
  H  H117  1  0.87297567  0.05193403  0.61423439  1
  H  H118  1  0.87338560  0.38628306  0.61260857  1
  H  H119  1  0.87470909  0.71991639  0.61510411  1
  H  H120  1  0.12477528  0.11269799  0.39082042  1
  H  H121  1  0.12616372  0.44730053  0.38251893  1
  H  H122  1  0.12543255  0.77973291  0.38731047  1
  H  H123  1  0.62945435  0.11178833  0.39580869  1
  H  H124  1  0.63147958  0.44018255  0.39960439  1
  H  H125  1  0.62193375  0.78203654  0.38203158  1
  H  H126  1  0.37370785  0.21973491  0.89389376  1
  H  H127  1  0.36936273  0.55858749  0.90167401  1
  H  H128  1  0.36998147  0.88808702  0.89721229  1
  H  H129  1  0.86929678  0.22353203  0.90002394  1
  H  H130  1  0.87427275  0.55283587  0.88214428  1
  H  H131  1  0.87828092  0.88230398  0.87975835  1
  H  H132  1  0.37484812  0.11325240  0.10566391  1
  H  H133  1  0.37472782  0.44821101  0.12427874  1
  H  H134  1  0.37439546  0.77830966  0.10850524  1
  H  H135  1  0.87526275  0.11380516  0.11229506  1
  H  H136  1  0.86937407  0.44195793  0.09938420  1
  H  H137  1  0.87284943  0.77974641  0.11319231  1
  H  H138  1  0.12588261  0.21935021  0.60978423  1
  H  H139  1  0.13446686  0.55593760  0.60043009  1
  H  H140  1  0.13156763  0.88979309  0.60383702  1
  H  H141  1  0.62983532  0.22083821  0.60668245  1
  H  H142  1  0.63282184  0.55721872  0.60402405  1
  H  H143  1  0.62523793  0.88525059  0.61290179  1
  H  H144  1  0.33139545  0.08375117  0.49956380  1
  H  H145  1  0.83109242  0.57614426  0.99669648  1
  H  H146  1  0.40149575  0.58481700  0.48984252  1
  H  H147  1  0.84690985  0.41194745  0.48638908  1
  H  H148  1  0.57166095  0.08328283  0.50145107  1
  H  H149  1  0.93072085  0.40746730  0.99774904  1
  H  H150  1  0.84753333  0.58408555  0.51075991  1
  H  H151  1  0.55694078  0.58562234  0.50643006  1
  H  H152  1  0.85059252  0.91951641  0.98455387  1
  H  H153  1  0.94174176  0.59299184  -0.00524874  1
  H  H154  1  0.06938681  0.41607175  0.49944211  1
  H  H155  1  0.43542656  0.41370036  1.00253539  1
  H  H156  1  0.20073814  0.58177992  0.49445309  1
  H  H157  1  0.80339184  0.41795842  -0.00789656  1
  H  H158  1  0.67480261  0.74915202  0.00279015  1
  H  H159  1  0.55738909  0.41243190  0.49620587  1
  H  H160  1  0.04509503  0.58281105  0.50285255  1
  H  H161  1  0.10150650  0.59065802  0.01040556  1
  H  H162  1  0.32401208  0.75303827  0.49816432  1
  H  H163  1  0.57096980  0.59873541  -0.00308629  1
  H  H164  1  0.90636996  0.08274487  0.50713209  1
  H  H165  1  0.68226004  0.24773684  0.49687480  1
  H  H166  1  0.65622065  0.24537636  0.99262191  1
  H  H167  1  0.70439725  0.90609260  1.00495116  1
  H  H168  1  0.82890689  0.08656931  0.00228808  1
  H  H169  1  0.06692993  0.39304002  0.99664589  1
  H  H170  1  0.69948182  0.42418097  0.50315156  1
  H  H171  1  0.29559182  0.58170034  1.00233218  1
  H  H172  1  0.35414307  0.91292119  0.50843707  1
  H  H173  1  0.41394432  0.59219718  0.00484265  1
  H  H174  1  0.64925376  0.41825039  0.01362308  1
  H  H175  1  0.66224780  0.91379183  0.50559238  1
  H  H176  1  0.14597948  0.91104381  0.98869363  1
  H  H177  1  0.20600103  0.41927777  -0.00423264  1
  H  H178  1  0.16927388  0.24861810  0.50470914  1
  H  H179  1  0.91944303  0.74866846  0.99911948  1
  H  H180  1  0.58122545  0.92414196  0.00269495  1
  H  H181  1  0.42203677  0.92639435  -0.00012328  1
  H  H182  1  0.67402958  0.57282124  1.00001984  1
  H  H183  1  0.19132437  0.91673173  0.49548809  1
  H  H184  1  0.91292153  0.24886823  0.49377791  1
  H  H185  1  0.42196891  0.25182413  0.50040584  1
  H  H186  1  0.30663463  0.91191104  1.00568813  1
  H  H187  1  0.07865318  0.74906957  0.50165676  1
  H  H188  1  0.91376519  0.74942936  0.50444215  1
  H  H189  1  0.05298247  0.91934611  0.50159817  1
  H  H190  1  0.59632977  0.75060742  0.50836130  1
  H  H191  1  0.69216310  0.58572210  0.49538691  1
  Pb  Pb192  1  0.24966966  0.04475232  0.74925996  1
  Pb  Pb193  1  0.25021622  0.37802143  0.75520778  1
  Pb  Pb194  1  0.25014367  0.71731106  0.74793813  1
  Pb  Pb195  1  0.75204807  0.04900767  0.75071212  1
  Pb  Pb196  1  0.74803698  0.38050919  0.74608556  1
  Pb  Pb197  1  0.75015546  0.71193459  0.75176860  1
  Pb  Pb198  1  0.25011338  0.28458789  0.25277025  1
  Pb  Pb199  1  0.24937190  0.62097376  0.25084354  1
  Pb  Pb200  1  0.24801410  0.95499322  0.25087182  1
  Pb  Pb201  1  0.74943514  0.28696725  0.24842526  1
  Pb  Pb202  1  0.74952722  0.61916875  0.24941212  1
  Pb  Pb203  1  0.74930031  0.95480309  0.24827565  1
  Pb  Pb204  1  0.00315835  0.21358716  0.74842941  1
  Pb  Pb205  1  0.00290045  0.54682911  0.74419160  1
  Pb  Pb206  1  -0.00512356  0.88058704  0.74040307  1
  Pb  Pb207  1  0.49916185  0.21158172  0.74871751  1
  Pb  Pb208  1  0.49631650  0.54818153  0.75107768  1
  Pb  Pb209  1  0.50562411  0.88113329  0.75726093  1
  Pb  Pb210  1  -0.00114855  0.12168322  0.25314586  1
  Pb  Pb211  1  0.00304253  0.45110461  0.24201985  1
  Pb  Pb212  1  -0.00085821  0.78766125  0.25113903  1
  Pb  Pb213  1  0.49948039  0.12080899  0.25066766  1
  Pb  Pb214  1  0.49841905  0.45240026  0.25575244  1
  Pb  Pb215  1  0.49893524  0.78816096  0.25162738  1
  C  C216  1  -0.00038162  0.04739237  0.62930787  1
  C  C217  1  -0.00112990  0.37969834  0.63337432  1
  C  C218  1  0.00017557  0.71353107  0.63459584  1
  C  C219  1  0.50173898  0.04605326  0.63514847  1
  C  C220  1  0.49800046  0.37932336  0.63433970  1
  C  C221  1  0.50143470  0.71431640  0.63099119  1
  C  C222  1  0.00187515  0.28521026  0.13316073  1
  C  C223  1  0.00063695  0.62110907  0.13585461  1
  C  C224  1  -0.00059520  0.95484774  0.13339801  1
  C  C225  1  0.50139216  0.28553146  0.13127201  1
  C  C226  1  0.50211345  0.62071407  0.13654124  1
  C  C227  1  0.49853955  0.95421230  0.13590800  1
  C  C228  1  0.00302659  0.04647661  0.86621495  1
  C  C229  1  -0.00104562  0.37613548  0.86817247  1
  C  C230  1  0.00273029  0.71348057  0.86733217  1
  C  C231  1  0.49997806  0.04766325  0.86796064  1
  C  C232  1  0.50047086  0.37945082  0.86647052  1
  C  C233  1  0.49825211  0.71377449  0.86647966  1
  C  C234  1  -0.00082338  0.28585401  0.36902050  1
  C  C235  1  -0.00299412  0.62041206  0.36733124  1
  C  C236  1  -0.00090582  0.95385261  0.36709255  1
  C  C237  1  0.49890830  0.28638641  0.36593069  1
  C  C238  1  0.49524836  0.61980607  0.36764980  1
  C  C239  1  0.49732275  0.95367062  0.36798806  1
  C  C240  1  0.25101320  0.21332906  0.63076471  1
  C  C241  1  0.25471041  0.54653529  0.63352706  1
  C  C242  1  0.25274588  0.88008669  0.63373537  1
  C  C243  1  0.75191253  0.21309531  0.63322126  1
  C  C244  1  0.75499708  0.54737196  0.63280878  1
  C  C245  1  0.75152143  0.88029704  0.62908453  1
  C  C246  1  0.25096917  0.12128351  0.13096112  1
  C  C247  1  0.24654864  0.45303875  0.13370307  1
  C  C248  1  0.24987688  0.78662690  0.13186330  1
  C  C249  1  0.74992225  0.12021933  0.13393139  1
  C  C250  1  0.74930500  0.45215505  0.13288173  1
  C  C251  1  0.74752612  0.78704954  0.13538403  1
  C  C252  1  0.24947706  0.21184498  0.86806398  1
  C  C253  1  0.25132755  0.54689435  0.86570728  1
  C  C254  1  0.24986745  0.87907777  0.86520161  1
  C  C255  1  0.74804414  0.21338320  0.86877861  1
  C  C256  1  0.74868351  0.54710858  0.86293705  1
  C  C257  1  0.75068507  0.87995671  0.86870444  1
  C  C258  1  0.24983286  0.11975343  0.36748909  1
  C  C259  1  0.25301902  0.45257311  0.36721253  1
  C  C260  1  0.25057559  0.78672726  0.36433335  1
  C  C261  1  0.75219867  0.12018636  0.36779230  1
  C  C262  1  0.75182293  0.45287991  0.36862651  1
  C  C263  1  0.74870505  0.78707828  0.36961637  1
  C  C264  1  0.95647016  0.73909509  0.54140725  1
  C  C265  1  0.02973644  0.07830550  0.53423971  1
  C  C266  1  0.28957434  0.24216566  0.53671942  1
  C  C267  1  0.79223422  0.56881673  0.95691066  1
  C  C268  1  0.04188997  0.73881726  0.96121138  1
  C  C269  1  0.03542684  0.25738860  0.46383568  1
  C  C270  1  0.53679531  0.60060218  0.03981147  1
  C  C271  1  0.03866887  0.73906343  0.54006593  1
  C  C272  1  0.22524556  0.90575652  0.53702075  1
  C  C273  1  0.78899564  0.09556608  0.04113114  1
  C  C274  1  0.53481488  0.07444276  0.96136169  1
  C  C275  1  0.29092653  0.09417466  0.46160865  1
  C  C276  1  0.71027207  0.56846690  0.95835845  1
  C  C277  1  0.77624318  0.76067482  0.46484765  1
  C  C278  1  0.72033854  0.23786279  0.53685157  1
  C  C279  1  0.52417175  0.40362775  0.53868842  1
  C  C280  1  0.71301309  0.76021578  0.04209221  1
  C  C281  1  0.05543342  0.59950380  0.04521958  1
  C  C282  1  0.03172342  0.40508675  0.53915601  1
  C  C283  1  0.45965117  0.93284030  0.04050551  1
  C  C284  1  0.53481104  0.07234894  0.54141424  1
  C  C285  1  0.28665373  0.75841652  0.03931562  1
  C  C286  1  0.28546893  0.76209636  0.45823261  1
  C  C287  1  0.80184647  0.23654052  0.54172340  1
  C  C288  1  0.77329020  0.42677519  0.03592604  1
  C  C289  1  0.46264038  0.92414539  0.46119555  1
  C  C290  1  0.96036478  0.73877950  0.96125190  1
  C  C291  1  0.47094067  0.74445145  0.53553293  1
  C  C292  1  0.55252543  0.25851924  0.04206385  1
  C  C293  1  0.30700674  0.90401831  0.54334268  1
  C  C294  1  0.47130012  0.40454298  0.96152174  1
  C  C295  1  0.54358188  0.26163139  0.45866121  1
  C  C296  1  0.54163428  0.93231881  0.04180831  1
  C  C297  1  0.79648013  0.09411419  0.45956789  1
  C  C298  1  0.72503687  0.57453431  0.53745010  1
  C  C299  1  0.27455809  0.90330748  0.96275844  1
  C  C300  1  0.52442048  0.59406103  0.46348889  1
  C  C301  1  0.27891979  0.42372214  0.46181873  1
  C  C302  1  0.69512429  0.76206978  0.45927392  1
  C  C303  1  0.19312286  0.90197968  0.95484497  1
  C  C304  1  0.28519246  0.09129046  0.03859812  1
  C  C305  1  0.97397121  0.59869438  0.03816435  1
  C  C306  1  0.46878381  0.74086295  0.96118369  1
  C  C307  1  0.20935608  0.09399272  0.46100996  1
  C  C308  1  0.78383652  0.90716894  0.53307525  1
  C  C309  1  0.23230427  0.57186922  0.53745541  1
  C  C310  1  0.46202772  0.26146867  0.46133704  1
  C  C311  1  0.45478972  0.59981605  0.04340554  1
  N  N312  1  0.20765969  0.09077898  0.03880513  1
  N  N313  1  0.19169685  0.57080627  0.95335941  1
  N  N314  1  0.80678925  0.90129488  0.95636850  1
  N  N315  1  0.20154501  0.42572692  0.45835357  1
  N  N316  1  0.21047429  0.24072428  0.53924435  1
  N  N317  1  0.20600627  0.76204958  0.45791299  1
  N  N318  1  0.55060112  0.40493055  0.95835981  1
  N  N319  1  0.44528477  0.59323980  0.45661625  1
  N  N320  1  0.95221064  0.40368949  0.53993100  1
  N  N321  1  0.03354946  0.07294513  0.96160135  1
  N  N322  1  0.69452009  0.42796291  0.04487362  1
  N  N323  1  0.02361577  0.92729477  0.46073719  1
  N  N324  1  0.94594098  0.92835260  0.45663356  1
  N  N325  1  0.70960781  0.09436991  0.03950979  1
  N  N326  1  0.04025595  0.26391093  0.03816936  1
  N  N327  1  0.44519762  0.40336287  0.54321673  1
  N  N328  1  0.28662030  0.24121774  0.96108942  1
  N  N329  1  0.72629917  0.41907218  0.46059690  1
  N  N330  1  0.26897710  0.57393440  0.96031077  1
  N  N331  1  0.21039048  0.24112406  0.96068433  1
  N  N332  1  0.54064688  0.92429961  0.46090444  1
  N  N333  1  0.95630217  0.25839696  0.46004591  1
  N  N334  1  0.95707290  0.07193449  0.95819010  1
  N  N335  1  0.47529397  0.25700624  0.03435701  1
  N  N336  1  0.93952507  0.59653108  0.45590813  1
  N  N337  1  0.30826767  0.42958009  0.04668453  1
  N  N338  1  0.03385367  0.92717533  0.03905486  1
  N  N339  1  0.04131366  0.41043146  0.95710418  1
  N  N340  1  0.23094059  0.42634896  0.03887102  1
  N  N341  1  0.31117010  0.57128919  0.54394365  1
  N  N342  1  0.80427393  0.57254390  0.54315615  1
  N  N343  1  0.72882181  0.91274670  0.96172773  1
  N  N344  1  0.80444602  0.43097598  0.45751287  1
  N  N345  1  0.20938017  0.75873825  0.03794599  1
  N  N346  1  0.45759445  0.07339421  0.96208557  1
  N  N347  1  0.54965433  0.74189475  0.54151069  1
  N  N348  1  0.71882833  0.09331733  0.46391380  1
  N  N349  1  0.95735277  0.92819963  0.04059268  1
  N  N350  1  0.96380022  0.26372074  0.03810750  1
  N  N351  1  0.96080040  0.41261990  0.95646223  1
  N  N352  1  0.70507667  0.90599979  0.53871575  1
  N  N353  1  0.95102362  0.07477825  0.54013764  1
  N  N354  1  0.01722098  0.59325984  0.46167113  1
  N  N355  1  0.77841597  0.23991188  0.96444047  1
  N  N356  1  0.79248052  0.76079318  0.04240511  1
  N  N357  1  0.54636803  0.73956192  0.95896621  1
  N  N358  1  0.45546278  0.07229933  0.54261618  1
  N  N359  1  0.70038699  0.23799485  0.95788412  1
  N  N360  1  0.06014019  0.06110484  0.58938204  1
  N  N361  1  0.06150195  0.39047879  0.59592644  1
  N  N362  1  0.06436268  0.72333653  0.59832741  1
  N  N363  1  0.56465936  0.05650138  0.59785771  1
  N  N364  1  0.55828063  0.38943087  0.59440228  1
  N  N365  1  0.56878053  0.72330744  0.60008787  1
  N  N366  1  0.44332350  0.27424439  0.09127714  1
  N  N367  1  0.43472513  0.61228104  0.10364427  1
  N  N368  1  0.43412235  0.94601313  0.09934898  1
  N  N369  1  0.93859382  0.27667456  0.09691474  1
  N  N370  1  0.94090045  0.61165321  0.09520700  1
  N  N371  1  0.93469304  0.94504688  0.09908880  1
  N  N372  1  0.43550382  0.05658897  0.90246959  1
  N  N373  1  0.43924293  0.38954773  0.90551809  1
  N  N374  1  0.43697529  0.72531550  0.90570563  1
  N  N375  1  0.93690315  0.05569403  0.89895894  1
  N  N376  1  0.93575338  0.38750723  0.90356324  1
  N  N377  1  0.93713383  0.72277088  0.90160267  1
  N  N378  1  0.06204856  0.27445413  0.40731301  1
  N  N379  1  0.05371755  0.60858170  0.40837466  1
  N  N380  1  0.05790652  0.94445579  0.40723431  1
  N  N381  1  0.56548393  0.27660583  0.40095778  1
  N  N382  1  0.55582300  0.60999265  0.40811586  1
  N  N383  1  0.56199287  0.94297741  0.40143748  1
  N  N384  1  0.31482519  0.22531343  0.59342894  1
  N  N385  1  0.32341651  0.55543474  0.60414205  1
  N  N386  1  0.32223530  0.88835846  0.60372748  1
  N  N387  1  0.82022478  0.22174257  0.60031679  1
  N  N388  1  0.82249908  0.55634204  0.60204361  1
  N  N389  1  0.81293078  0.89148329  0.58902094  1
  N  N390  1  0.18617003  0.10997835  0.09750496  1
  N  N391  1  0.19160333  0.44291014  0.09076276  1
  N  N392  1  0.18609847  0.77657542  0.09695616  1
  N  N393  1  0.68709582  0.10976196  0.09770285  1
  N  N394  1  0.68010419  0.44294604  0.10456307  1
  N  N395  1  0.68404794  0.77613337  0.09884247  1
  N  N396  1  0.18577146  0.22293889  0.90305657  1
  N  N397  1  0.18128184  0.55571496  0.89404298  1
  N  N398  1  0.17947650  0.88705419  0.89418424  1
  N  N399  1  0.68086628  0.22197570  0.90008684  1
  N  N400  1  0.68422147  0.55531912  0.89951908  1
  N  N401  1  0.69368293  0.88958499  0.91039487  1
  N  N402  1  0.31496460  0.11039858  0.40228175  1
  N  N403  1  0.31317452  0.43999161  0.40729156  1
  N  N404  1  0.31409122  0.77672247  0.40103997  1
  N  N405  1  0.81901782  0.11026378  0.40125888  1
  N  N406  1  0.82032487  0.44316052  0.39799340  1
  N  N407  1  0.80866813  0.77582181  0.41007154  1
  N  N408  1  0.43538353  0.27698097  0.40242919  1
  N  N409  1  0.42756109  0.60922474  0.39765299  1
  N  N410  1  0.43402122  0.94182856  0.40505204  1
  N  N411  1  0.93352333  0.27574024  0.40173334  1
  N  N412  1  0.92762705  0.61252779  0.39680158  1
  N  N413  1  0.93119467  0.94370388  0.39801883  1
  N  N414  1  0.06340170  0.05720311  0.90480337  1
  N  N415  1  0.06349815  0.38556393  0.90239393  1
  N  N416  1  0.06725323  0.72370436  0.90460346  1
  N  N417  1  0.56383049  0.05877204  0.90492106  1
  N  N418  1  0.56708989  0.38925852  0.89832386  1
  N  N419  1  0.56476786  0.72252913  0.89863593  1
  N  N420  1  0.06533511  0.27686851  0.09704122  1
  N  N421  1  0.07038458  0.61321675  0.10595981  1
  N  N422  1  0.06127114  0.94391081  0.09635196  1
  N  N423  1  0.57082053  0.27585319  0.10101198  1
  N  N424  1  0.56504155  0.61288148  0.09822653  1
  N  N425  1  0.56452099  0.94546995  0.10139728  1
  N  N426  1  0.43665620  0.05590400  0.60124078  1
  N  N427  1  0.43071173  0.38832959  0.60278071  1
  N  N428  1  0.44073735  0.72717044  0.59106563  1
  N  N429  1  0.93195607  0.05568571  0.59865408  1
  N  N430  1  0.93348964  0.38812781  0.59958662  1
  N  N431  1  0.93421079  0.72333324  0.60052340  1
  N  N432  1  0.18488374  0.10936825  0.40411145  1
  N  N433  1  0.18538975  0.44386158  0.39791535  1
  N  N434  1  0.18616845  0.77729856  0.39914166  1
  N  N435  1  0.69118979  0.11000694  0.40537417  1
  N  N436  1  0.69321292  0.44298990  0.40896798  1
  N  N437  1  0.67941466  0.77783419  0.40029341  1
  N  N438  1  0.31247402  0.22310122  0.90379203  1
  N  N439  1  0.30711549  0.55729455  0.90794018  1
  N  N440  1  0.30876879  0.88923961  0.90645594  1
  N  N441  1  0.80764685  0.22473695  0.90847135  1
  N  N442  1  0.81489601  0.55565799  0.89735545  1
  N  N443  1  0.82025655  0.88973995  0.89644552  1
  N  N444  1  0.31457256  0.10946403  0.09407211  1
  N  N445  1  0.31722635  0.44436431  0.10633276  1
  N  N446  1  0.31436929  0.77519748  0.09581093  1
  N  N447  1  0.81525565  0.11086605  0.09886188  1
  N  N448  1  0.80783326  0.44183295  0.09063465  1
  N  N449  1  0.81210929  0.77729583  0.10092927  1
  N  N450  1  0.18612410  0.22254031  0.59695672  1
  N  N451  1  0.19632047  0.55701014  0.59208241  1
  N  N452  1  0.19280441  0.89081208  0.59370266  1
  N  N453  1  0.69037478  0.22317243  0.59498762  1
  N  N454  1  0.69415625  0.55860554  0.59294524  1
  N  N455  1  0.68451913  0.88918180  0.59779193  1
  Cl  Cl456  1  0.24793205  0.05569481  0.61534010  1
  Cl  Cl457  1  0.24564727  0.38170190  0.62356480  1
  Cl  Cl458  1  0.25401986  0.71989256  0.61517796  1
  Cl  Cl459  1  0.74951375  0.04938135  0.61862573  1
  Cl  Cl460  1  0.74502562  0.39290349  0.60654196  1
  Cl  Cl461  1  0.75044405  0.71731445  0.61973948  1
  Cl  Cl462  1  0.25206234  0.28147156  0.12128235  1
  Cl  Cl463  1  0.25429492  0.61077470  0.11391215  1
  Cl  Cl464  1  0.24715788  0.94591339  0.11753980  1
  Cl  Cl465  1  0.75368561  0.28154287  0.11604020  1
  Cl  Cl466  1  0.75288310  0.60977212  0.11692562  1
  Cl  Cl467  1  0.74966838  0.93929847  0.10912397  1
  Cl  Cl468  1  0.24934323  0.05248944  0.88067541  1
  Cl  Cl469  1  0.24657464  0.39479036  0.89342642  1
  Cl  Cl470  1  0.25311537  0.71696752  0.87949767  1
  Cl  Cl471  1  0.75194364  0.05171198  0.88407413  1
  Cl  Cl472  1  0.75399837  0.38844520  0.88569755  1
  Cl  Cl473  1  0.74925205  0.72189733  0.88263178  1
  Cl  Cl474  1  0.24585314  0.27815994  0.38886345  1
  Cl  Cl475  1  0.23897316  0.60942403  0.38758300  1
  Cl  Cl476  1  0.24325392  0.94548518  0.38629840  1
  Cl  Cl477  1  0.75006410  0.28281849  0.38198885  1
  Cl  Cl478  1  0.74172155  0.61020242  0.38791226  1
  Cl  Cl479  1  0.74655523  0.94471298  0.38208485  1
  Cl  Cl480  1  0.00260996  0.21912292  0.61159578  1
  Cl  Cl481  1  0.01050861  0.55743481  0.60510081  1
  Cl  Cl482  1  0.00537415  0.89313084  0.60447321  1
  Cl  Cl483  1  0.49996715  0.22079998  0.61665654  1
  Cl  Cl484  1  0.51019669  0.55745826  0.61373280  1
  Cl  Cl485  1  0.50375669  0.88098513  0.62488121  1
  Cl  Cl486  1  0.00021084  0.11470092  0.12517081  1
  Cl  Cl487  1  0.00062991  0.43638998  0.09863225  1
  Cl  Cl488  1  -0.00206310  0.77882615  0.11836038  1
  Cl  Cl489  1  0.50166279  0.11552558  0.11996931  1
  Cl  Cl490  1  0.49891518  0.44793898  0.12309426  1
  Cl  Cl491  1  0.49900232  0.78057338  0.12151383  1
  Cl  Cl492  1  -0.00372125  0.22310710  0.87930693  1
  Cl  Cl493  1  -0.00143770  0.55062377  0.87645931  1
  Cl  Cl494  1  -0.00231640  0.88067831  0.87188482  1
  Cl  Cl495  1  0.49803423  0.21740699  0.88104367  1
  Cl  Cl496  1  0.49214771  0.55707647  0.88529487  1
  Cl  Cl497  1  0.50475860  0.89023145  0.89281300  1
  Cl  Cl498  1  0.00046383  0.11418388  0.38938012  1
  Cl  Cl499  1  0.00192127  0.44905092  0.37618584  1
  Cl  Cl500  1  -0.00096651  0.77950877  0.38608447  1
  Cl  Cl501  1  0.50583132  0.11337861  0.38440275  1
  Cl  Cl502  1  0.50830893  0.44420419  0.39106872  1
  Cl  Cl503  1  0.49621066  0.77848652  0.38656507  1
  Cl  Cl504  1  0.36221535  0.14442640  0.74795188  1
  Cl  Cl505  1  0.36227703  0.47867098  0.74559207  1
  Cl  Cl506  1  0.35980607  0.80983285  0.74818247  1
  Cl  Cl507  1  0.85674454  0.14375578  0.74826589  1
  Cl  Cl508  1  0.86492373  0.47756956  0.74684039  1
  Cl  Cl509  1  0.86158909  0.81202514  0.74963485  1
  Cl  Cl510  1  0.13812850  0.18907165  0.25206456  1
  Cl  Cl511  1  0.13715916  0.52048712  0.25023230  1
  Cl  Cl512  1  0.13788243  0.85421683  0.25188247  1
  Cl  Cl513  1  0.63910214  0.18999144  0.25057648  1
  Cl  Cl514  1  0.63776075  0.52169308  0.24743463  1
  Cl  Cl515  1  0.63632587  0.85482919  0.25154931  1
  Cl  Cl516  1  0.13773250  0.14547280  0.74730379  1
  Cl  Cl517  1  0.13732971  0.47836139  0.75524047  1
  Cl  Cl518  1  0.13997649  0.80868206  0.75028278  1
  Cl  Cl519  1  0.63697869  0.14453940  0.75211387  1
  Cl  Cl520  1  0.64432390  0.47789942  0.75041786  1
  Cl  Cl521  1  0.63910114  0.81171680  0.74926553  1
  Cl  Cl522  1  0.36388554  0.18990763  0.25217228  1
  Cl  Cl523  1  0.36396030  0.52177946  0.24802624  1
  Cl  Cl524  1  0.36258601  0.85603380  0.24933504  1
  Cl  Cl525  1  0.86311629  0.18897922  0.25236103  1
  Cl  Cl526  1  0.85805751  0.52158753  0.25315688  1
  Cl  Cl527  1  0.86135124  0.85418377  0.25066012  1
  Cl  Cl528  1  0.10949545  0.31305450  0.75089854  1
  Cl  Cl529  1  0.11158862  0.64392710  0.75087861  1
  Cl  Cl530  1  0.11263237  0.97743126  0.74696388  1
  Cl  Cl531  1  0.61354711  0.31158855  0.75425425  1
  Cl  Cl532  1  0.61505662  0.64447744  0.75166692  1
  Cl  Cl533  1  0.61067323  0.97559917  0.75117436  1
  Cl  Cl534  1  0.39040002  0.02165094  0.25119893  1
  Cl  Cl535  1  0.39090306  0.35682011  0.24875656  1
  Cl  Cl536  1  0.38594842  0.68797716  0.25404798  1
  Cl  Cl537  1  0.88660401  0.02116244  0.25407361  1
  Cl  Cl538  1  0.88662792  0.35641267  0.25103010  1
  Cl  Cl539  1  0.88831458  0.68599269  0.25349919  1
  Cl  Cl540  1  0.38869805  0.31294063  0.74846089  1
  Cl  Cl541  1  0.39133010  0.64253900  0.74575730  1
  Cl  Cl542  1  0.38679262  0.97761044  0.74906744  1
  Cl  Cl543  1  0.88638370  0.31170779  0.74510068  1
  Cl  Cl544  1  0.88627608  0.64377771  0.74884798  1
  Cl  Cl545  1  0.88787112  0.97656703  0.74878859  1
  Cl  Cl546  1  0.11113006  0.02188433  0.25378557  1
  Cl  Cl547  1  0.10805316  0.35712451  0.25189842  1
  Cl  Cl548  1  0.11344182  0.68827542  0.24872380  1
  Cl  Cl549  1  0.61411263  0.02222643  0.24934762  1
  Cl  Cl550  1  0.61523508  0.35618049  0.24908035  1
  Cl  Cl551  1  0.60870195  0.68738081  0.25268650  1
