# generated using pymatgen
data_H8PbC4(N3Cl2)2
_symmetry_space_group_name_H-M   'P 1'
_cell_length_a   16.63076614
_cell_length_b   22.51494961
_cell_length_c   21.59462601
_cell_angle_alpha   89.99802058
_cell_angle_beta   90.02057282
_cell_angle_gamma   89.99850028
_symmetry_Int_Tables_number   1
_chemical_formula_structural   H8PbC4(N3Cl2)2
_chemical_formula_sum   'H192 Pb24 C96 N144 Cl96'
_cell_volume   8085.90984189
_cell_formula_units_Z   24
loop_
 _symmetry_equiv_pos_site_id
 _symmetry_equiv_pos_as_xyz
  1  'x, y, z'
loop_
 _atom_site_type_symbol
 _atom_site_label
 _atom_site_symmetry_multiplicity
 _atom_site_fract_x
 _atom_site_fract_y
 _atom_site_fract_z
 _atom_site_occupancy
  H  H0  1  -0.01489248  0.02836475  0.67547797  1
  H  H1  1  -0.00198298  0.36515762  0.67835319  1
  H  H2  1  -0.00664255  0.69815081  0.67870492  1
  H  H3  1  0.51579911  0.03389339  0.68240178  1
  H  H4  1  0.50247499  0.35967110  0.67731670  1
  H  H5  1  0.51183750  0.69729715  0.68033842  1
  H  H6  1  -0.00797415  0.30109230  0.17980664  1
  H  H7  1  0.01958964  0.63764228  0.17058761  1
  H  H8  1  0.00896062  0.96971554  0.18087989  1
  H  H9  1  0.51383051  0.30405821  0.17558635  1
  H  H10  1  0.48337839  0.63408298  0.18242936  1
  H  H11  1  0.48482123  0.96813962  0.17561048  1
  H  H12  1  -0.01351049  0.03193378  0.81877079  1
  H  H13  1  -0.00299528  0.36135458  0.81662276  1
  H  H14  1  -0.00442370  0.69125465  0.82093122  1
  H  H15  1  0.51354574  0.02933915  0.82169164  1
  H  H16  1  0.49909824  0.35985701  0.82309785  1
  H  H17  1  0.49557208  0.69619105  0.82649136  1
  H  H18  1  0.00061206  0.30684608  0.32424213  1
  H  H19  1  0.00617844  0.63789676  0.31685862  1
  H  H20  1  -0.00119306  0.96924951  0.32021627  1
  H  H21  1  0.48930486  0.29898302  0.32087723  1
  H  H22  1  0.49459529  0.63762269  0.32480719  1
  H  H23  1  0.49765112  0.96785420  0.31413625  1
  H  H24  1  0.24807161  0.19510605  0.67704349  1
  H  H25  1  0.23107707  0.53020991  0.67652362  1
  H  H26  1  0.26303477  0.86165353  0.67748705  1
  H  H27  1  0.76501797  0.19627130  0.67940376  1
  H  H28  1  0.76555799  0.53052388  0.67639225  1
  H  H29  1  0.73219540  0.86367108  0.68046284  1
  H  H30  1  0.24620776  0.14088952  0.17582441  1
  H  H31  1  0.23812747  0.47160680  0.17806544  1
  H  H32  1  0.25475820  0.80285357  0.17749502  1
  H  H33  1  0.75368199  0.13984660  0.17968710  1
  H  H34  1  0.76272856  0.47388560  0.17662746  1
  H  H35  1  0.75790463  0.80480721  0.17865056  1
  H  H36  1  0.24077765  0.19410850  0.81919694  1
  H  H37  1  0.25845453  0.53038166  0.81931364  1
  H  H38  1  0.24889442  0.86104600  0.82525342  1
  H  H39  1  0.74846538  0.19524023  0.82302477  1
  H  H40  1  0.74192703  0.52970333  0.82067971  1
  H  H41  1  0.75096366  0.86218141  0.82060176  1
  H  H42  1  0.24756996  0.13837832  0.32013431  1
  H  H43  1  0.24492829  0.46856302  0.32262347  1
  H  H44  1  0.23948262  0.80452185  0.32159630  1
  H  H45  1  0.74492438  0.14010534  0.32000669  1
  H  H46  1  0.74204953  0.46619304  0.32372786  1
  H  H47  1  0.76154294  0.80015680  0.31748371  1
  H  H48  1  0.12664014  0.04942606  0.62659272  1
  H  H49  1  0.11210294  0.38928633  0.59898356  1
  H  H50  1  0.12864567  0.71759052  0.61991653  1
  H  H51  1  0.62432203  0.05731156  0.60021505  1
  H  H52  1  0.61096782  0.39239173  0.59717480  1
  H  H53  1  0.62353538  0.72274970  0.60193295  1
  H  H54  1  0.37453251  0.28604678  0.12478942  1
  H  H55  1  0.37984522  0.61108880  0.09741219  1
  H  H56  1  0.37365157  0.94133762  0.09739195  1
  H  H57  1  0.86936243  0.27901392  0.10510602  1
  H  H58  1  0.87593402  0.62006333  0.12670854  1
  H  H59  1  0.86928401  0.95181992  0.12943970  1
  H  H60  1  0.37370379  0.04488047  0.87333466  1
  H  H61  1  0.37491484  0.38766072  0.89419356  1
  H  H62  1  0.38026846  0.72527305  0.90279565  1
  H  H63  1  0.87619480  0.05831448  0.89986010  1
  H  H64  1  0.87378074  0.38392410  0.88726294  1
  H  H65  1  0.87690279  0.72140588  0.89592187  1
  H  H66  1  0.13584065  0.28122107  0.38194228  1
  H  H67  1  0.12980845  0.61202049  0.38628936  1
  H  H68  1  0.12423945  0.94430181  0.39028248  1
  H  H69  1  0.62504843  0.28177262  0.37601988  1
  H  H70  1  0.62760268  0.61290491  0.38699674  1
  H  H71  1  0.62326463  0.94757417  0.38339082  1
  H  H72  1  0.37029003  0.22267190  0.60641403  1
  H  H73  1  0.37111923  0.55142957  0.62519879  1
  H  H74  1  0.36981232  0.88978924  0.59301184  1
  H  H75  1  0.86757478  0.22644281  0.59256244  1
  H  H76  1  0.86215813  0.56228008  0.58756370  1
  H  H77  1  0.87308516  0.88372026  0.62826513  1
  H  H78  1  0.13180403  0.10974744  0.09868941  1
  H  H79  1  0.13166734  0.44296405  0.09336943  1
  H  H80  1  0.12454477  0.77885843  0.11655991  1
  H  H81  1  0.62798380  0.11384855  0.11068251  1
  H  H82  1  0.62492522  0.44851491  0.12332519  1
  H  H83  1  0.62333132  0.78401611  0.11493403  1
  H  H84  1  0.12644673  0.22261743  0.89847433  1
  H  H85  1  0.12199208  0.55131496  0.87877208  1
  H  H86  1  0.13657901  0.89065050  0.90452745  1
  H  H87  1  0.62839042  0.22462842  0.89473872  1
  H  H88  1  0.62604885  0.55635623  0.89811902  1
  H  H89  1  0.63105416  0.88565532  0.89239437  1
  H  H90  1  0.37170411  0.11437850  0.39214594  1
  H  H91  1  0.37813951  0.44786239  0.38444699  1
  H  H92  1  0.37393012  0.78108839  0.38018187  1
  H  H93  1  0.87175147  0.11196119  0.38493027  1
  H  H94  1  0.88421221  0.45092254  0.37600227  1
  H  H95  1  0.86832059  0.77555415  0.40191173  1
  H  H96  1  0.37941558  0.27647030  0.40246194  1
  H  H97  1  0.38089804  0.60839510  0.40367803  1
  H  H98  1  0.37379766  0.94605252  0.38358088  1
  H  H99  1  0.88813951  0.27542989  0.40241969  1
  H  H100  1  0.88059119  0.61068048  0.38614480  1
  H  H101  1  0.87536305  0.94427237  0.39167860  1
  H  H102  1  0.12328665  0.04925267  0.87924503  1
  H  H103  1  0.12316868  0.38471734  0.88338215  1
  H  H104  1  0.12501953  0.71744769  0.88780050  1
  H  H105  1  0.61876738  0.05661681  0.90454222  1
  H  H106  1  0.62321969  0.38608915  0.89500875  1
  H  H107  1  0.62857191  0.72013863  0.88740035  1
  H  H108  1  0.11824608  0.27854813  0.10886174  1
  H  H109  1  0.11685521  0.60713590  0.08279725  1
  H  H110  1  0.11474390  0.94322625  0.09757381  1
  H  H111  1  0.61907211  0.27612952  0.09272616  1
  H  H112  1  0.62473462  0.61830960  0.13164432  1
  H  H113  1  0.61996659  0.95018220  0.11897711  1
  H  H114  1  0.37769607  0.05116941  0.62775833  1
  H  H115  1  0.36517066  0.38041715  0.61976110  1
  H  H116  1  0.37586343  0.71437738  0.62137140  1
  H  H117  1  0.88327063  0.06155432  0.59084990  1
  H  H118  1  0.86447975  0.38728249  0.61718708  1
  H  H119  1  0.88115738  0.72512253  0.59853776  1
  H  H120  1  0.12308745  0.11394642  0.38991961  1
  H  H121  1  0.13223774  0.44128686  0.40183108  1
  H  H122  1  0.12695714  0.77552918  0.40180694  1
  H  H123  1  0.62258882  0.11483547  0.39266735  1
  H  H124  1  0.64049655  0.43608783  0.40979740  1
  H  H125  1  0.62226883  0.78167124  0.37377641  1
  H  H126  1  0.37403002  0.21785424  0.88250659  1
  H  H127  1  0.36944055  0.55700914  0.90011391  1
  H  H128  1  0.38429444  0.88311569  0.88361595  1
  H  H129  1  0.87711939  0.22065300  0.88907931  1
  H  H130  1  0.87444812  0.55331009  0.88323333  1
  H  H131  1  0.88030234  0.88431724  0.88629197  1
  H  H132  1  0.37929239  0.11488777  0.11626898  1
  H  H133  1  0.37650041  0.44825487  0.12376411  1
  H  H134  1  0.37311484  0.77999351  0.10139682  1
  H  H135  1  0.87756476  0.11436854  0.11037157  1
  H  H136  1  0.87100914  0.44244104  0.09526684  1
  H  H137  1  0.87039802  0.77464522  0.09949365  1
  H  H138  1  0.12144075  0.22204070  0.60858340  1
  H  H139  1  0.12691072  0.56038497  0.59221034  1
  H  H140  1  0.12498252  0.88386006  0.62211905  1
  H  H141  1  0.62430588  0.21753065  0.62743388  1
  H  H142  1  0.62072448  0.55006758  0.63188859  1
  H  H143  1  0.62993995  0.89099738  0.59260100  1
  H  H144  1  0.30116687  0.58627183  1.00435699  1
  H  H145  1  0.95008414  0.75422165  0.49720220  1
  H  H146  1  0.34604729  0.74825761  0.49190759  1
  H  H147  1  0.19989000  0.40889140  0.50180626  1
  H  H148  1  0.92585110  0.91436279  0.49956334  1
  H  H149  1  0.29207202  0.91453530  0.49370822  1
  H  H150  1  0.77677356  0.58409764  0.49064893  1
  H  H151  1  0.53843177  0.40945327  0.49497382  1
  H  H152  1  0.79491129  0.74952348  0.50543052  1
  H  H153  1  0.39644420  0.08187058  0.51479837  1
  H  H154  1  0.20974399  0.41807410  -0.00547968  1
  H  H155  1  0.68021760  0.91546858  1.00264347  1
  H  H156  1  0.41947997  0.92121072  0.49616544  1
  H  H157  1  0.92154322  0.40867183  0.99934817  1
  H  H158  1  0.04351993  0.91558985  -0.00697785  1
  H  H159  1  0.72106414  0.42113913  0.50949590  1
  H  H160  1  0.95658613  0.24737818  0.50432005  1
  H  H161  1  0.88221354  0.91938689  0.01534231  1
  H  H162  1  0.57998802  0.92160831  0.49523246  1
  H  H163  1  0.71194847  0.91449906  0.49495292  1
  H  H164  1  0.82964126  0.07857177  0.49518347  1
  H  H165  1  0.96334338  0.08665557  0.49232621  1
  H  H166  1  0.39196302  0.41757348  0.51520955  1
  H  H167  1  0.55571957  0.08141641  0.49288725  1
  H  H168  1  0.45415039  0.58319848  -0.00722891  1
  H  H169  1  0.67642344  0.09465049  0.00283224  1
  H  H170  1  0.56268047  0.75180198  0.49520952  1
  H  H171  1  0.59343744  0.75276946  0.99378034  1
  H  H172  1  0.68406468  0.58774591  1.00296543  1
  H  H173  1  0.16762132  0.08616360  0.49940831  1
  H  H174  1  0.15805902  0.74771120  0.00324910  1
  H  H175  1  0.20530142  0.91797256  1.00643905  1
  H  H176  1  0.20413646  0.58574662  0.49284388  1
  H  H177  1  0.60322622  0.25291952  0.49222747  1
  H  H178  1  0.94616900  0.08406130  1.00570188  1
  H  H179  1  0.78602894  0.25145461  0.49482379  1
  H  H180  1  0.86842121  0.41783150  0.48531048  1
  H  H181  1  0.92914938  0.59213189  0.49385898  1
  H  H182  1  0.59349014  0.58693721  0.49595925  1
  H  H183  1  0.38684432  0.07518400  0.98797801  1
  H  H184  1  0.38976361  0.25348892  1.01024258  1
  H  H185  1  0.08143195  0.58187958  0.49658982  1
  H  H186  1  0.54667977  0.08124605  1.01063198  1
  H  H187  1  0.08119208  0.40947371  0.99672648  1
  H  H188  1  0.88116206  0.58907851  1.01193510  1
  H  H189  1  0.67840428  0.09768299  0.49961008  1
  H  H190  1  0.79737895  0.41339614  -0.00437152  1
  H  H191  1  0.82926193  0.08840325  -0.00150008  1
  Pb  Pb192  1  0.24906124  0.04576164  0.74913804  1
  Pb  Pb193  1  0.25204821  0.38245484  0.74887189  1
  Pb  Pb194  1  0.25027580  0.71264362  0.75573644  1
  Pb  Pb195  1  0.75497538  0.05108494  0.75156346  1
  Pb  Pb196  1  0.74635743  0.38080243  0.75154387  1
  Pb  Pb197  1  0.75215445  0.71300755  0.74430892  1
  Pb  Pb198  1  0.25210847  0.28655296  0.25279859  1
  Pb  Pb199  1  0.25668485  0.61621540  0.24607698  1
  Pb  Pb200  1  0.24564697  0.94994508  0.24500263  1
  Pb  Pb201  1  0.75742830  0.28438686  0.25007714  1
  Pb  Pb202  1  0.75234313  0.61744686  0.25941057  1
  Pb  Pb203  1  0.74953111  0.95329873  0.25941455  1
  Pb  Pb204  1  0.00324154  0.21713602  0.74394554  1
  Pb  Pb205  1  -0.00075240  0.54598353  0.73290566  1
  Pb  Pb206  1  0.00241695  0.87937441  0.75473571  1
  Pb  Pb207  1  0.49776499  0.21285632  0.75042157  1
  Pb  Pb208  1  0.50080648  0.54787451  0.75811675  1
  Pb  Pb209  1  0.50231846  0.88093740  0.73956366  1
  Pb  Pb210  1  0.00466489  0.11881137  0.25095184  1
  Pb  Pb211  1  0.00680281  0.45115215  0.24217869  1
  Pb  Pb212  1  -0.00333925  0.78291860  0.25714298  1
  Pb  Pb213  1  0.49977599  0.12002103  0.25262815  1
  Pb  Pb214  1  0.50613719  0.44901383  0.26163625  1
  Pb  Pb215  1  0.49998670  0.78590993  0.24421554  1
  C  C216  1  -0.00187033  0.04492930  0.62938588  1
  C  C217  1  -0.00855979  0.38026448  0.63114590  1
  C  C218  1  0.00085405  0.71324738  0.63155775  1
  C  C219  1  0.50543675  0.04735617  0.63471760  1
  C  C220  1  0.49262565  0.37659225  0.63078328  1
  C  C221  1  0.50403507  0.71169691  0.63286787  1
  C  C222  1  -0.00689535  0.28634369  0.13196424  1
  C  C223  1  0.00316672  0.62185852  0.12490150  1
  C  C224  1  -0.00286700  0.95491664  0.13383874  1
  C  C225  1  0.50139713  0.28858406  0.12908028  1
  C  C226  1  0.49606672  0.62154772  0.13499791  1
  C  C227  1  0.49300645  0.95294127  0.12850466  1
  C  C228  1  -0.00452301  0.04663258  0.86611376  1
  C  C229  1  -0.00201144  0.37623034  0.86445385  1
  C  C230  1  -0.00088440  0.70876509  0.86767916  1
  C  C231  1  0.50140677  0.04367778  0.86887577  1
  C  C232  1  0.49904773  0.37648343  0.87021031  1
  C  C233  1  0.50199073  0.71314324  0.87315459  1
  C  C234  1  0.00804653  0.28920563  0.37047561  1
  C  C235  1  0.00470233  0.62219528  0.36444544  1
  C  C236  1  -0.00051431  0.95311701  0.36753926  1
  C  C237  1  0.49901180  0.28566014  0.36851393  1
  C  C238  1  0.50158164  0.62090384  0.37162110  1
  C  C239  1  0.49844682  0.95399742  0.36230156  1
  C  C240  1  0.24615437  0.21284373  0.63052981  1
  C  C241  1  0.24273034  0.54564308  0.62995069  1
  C  C242  1  0.25311218  0.87753397  0.63068471  1
  C  C243  1  0.75252679  0.21243576  0.63307962  1
  C  C244  1  0.74963854  0.54656144  0.63053363  1
  C  C245  1  0.74454196  0.87900044  0.63381002  1
  C  C246  1  0.25220349  0.12254377  0.12980386  1
  C  C247  1  0.24826285  0.45537547  0.13141575  1
  C  C248  1  0.25011321  0.78733616  0.13021086  1
  C  C249  1  0.75251214  0.12400679  0.13210940  1
  C  C250  1  0.75324728  0.45607852  0.13063651  1
  C  C251  1  0.75052411  0.78896519  0.13146604  1
  C  C252  1  0.24689058  0.21073921  0.86612561  1
  C  C253  1  0.24978194  0.54580431  0.86641348  1
  C  C254  1  0.25619398  0.87699585  0.87223993  1
  C  C255  1  0.75156037  0.21307431  0.86940057  1
  C  C256  1  0.74753074  0.54620285  0.86766786  1
  C  C257  1  0.75368709  0.87751183  0.86807762  1
  C  C258  1  0.24757811  0.12217317  0.36741008  1
  C  C259  1  0.25186601  0.45203227  0.36950225  1
  C  C260  1  0.24663276  0.78749293  0.36821841  1
  C  C261  1  0.74588392  0.12313771  0.36718271  1
  C  C262  1  0.75595035  0.45139711  0.37051459  1
  C  C263  1  0.75030889  0.78596965  0.36473243  1
  C  C264  1  0.69211849  0.42214486  0.04616370  1
  C  C265  1  0.79269874  0.09673012  0.03931571  1
  C  C266  1  0.76621160  0.76020230  0.46139042  1
  C  C267  1  0.47164652  0.74709603  0.96709886  1
  C  C268  1  0.27038521  0.57407202  0.96166860  1
  C  C269  1  0.43925649  0.26196322  0.04230790  1
  C  C270  1  0.46848352  0.92317304  0.03369304  1
  C  C271  1  0.71988267  0.90489303  0.96346377  1
  C  C272  1  0.45812953  0.93057991  0.45680261  1
  C  C273  1  0.01428025  0.92694666  0.03660367  1
  C  C274  1  0.06447064  0.25535258  0.45669335  1
  C  C275  1  0.71929514  0.24741643  0.96056151  1
  C  C276  1  0.31333024  0.90684699  0.95990080  1
  C  C277  1  0.20171202  0.75876216  0.03905453  1
  C  C278  1  0.29813562  0.75836753  0.45629809  1
  C  C279  1  0.80134213  0.90364477  0.95957446  1
  C  C280  1  0.04477230  0.59279376  0.45646836  1
  C  C281  1  0.28125938  0.24566452  0.53916956  1
  C  C282  1  0.51980388  0.25843803  0.03276989  1
  C  C283  1  0.56207253  0.59926837  0.04952698  1
  C  C284  1  0.30738951  0.57632832  0.54570777  1
  C  C285  1  0.48226390  0.59569102  0.03644770  1
  C  C286  1  0.97578076  0.07367678  0.96207573  1
  C  C287  1  0.54901735  0.92613961  0.04091040  1
  C  C288  1  0.55633282  0.26142893  0.45797599  1
  C  C289  1  0.30150982  0.09043072  0.04215737  1
  C  C290  1  0.44676312  0.73623774  0.54400470  1
  C  C291  1  0.54008981  0.93100103  0.45657942  1
  C  C292  1  0.51818883  0.07019685  0.96674096  1
  C  C293  1  0.94240629  0.40498777  0.54079104  1
  C  C294  1  0.44497178  0.07166618  0.54706018  1
  C  C295  1  0.79041220  0.09179011  0.45725307  1
  C  C296  1  0.47532422  0.25969761  0.46536769  1
  C  C297  1  0.96422141  0.92530824  0.46038182  1
  C  C298  1  0.72022947  0.57575523  0.96187970  1
  C  C299  1  0.52595861  0.07241291  0.53677861  1
  C  C300  1  0.93359966  0.59662944  0.04124028  1
  C  C301  1  0.28319594  0.75950931  0.03545812  1
  C  C302  1  0.05812970  0.74251140  0.54370257  1
  C  C303  1  0.67791907  0.57383710  0.54904971  1
  C  C304  1  0.95927895  0.40040086  0.95915280  1
  C  C305  1  0.52790240  0.73971906  0.53597629  1
  C  C306  1  0.43744131  0.06691416  0.95555825  1
  C  C307  1  0.01276713  0.59195736  0.02770751  1
  C  C308  1  0.20950637  0.09550666  0.46024159  1
  C  C309  1  0.93343260  0.92906816  0.04782090  1
  C  C310  1  0.04140939  0.40065800  0.95786747  1
  C  C311  1  0.06574909  0.07493053  0.54631597  1
  N  N312  1  0.75472467  0.57732001  0.53516653  1
  N  N313  1  0.04388467  0.73929401  0.95835913  1
  N  N314  1  0.55008013  0.74432640  0.96098588  1
  N  N315  1  0.97962004  0.74403660  0.53761428  1
  N  N316  1  0.20397144  0.24550861  0.53860221  1
  N  N317  1  0.31063510  0.42572109  0.04688301  1
  N  N318  1  0.46094459  0.40647468  0.96285060  1
  N  N319  1  0.98804178  0.07854838  0.53519555  1
  N  N320  1  0.43618915  0.39977256  0.54398725  1
  N  N321  1  0.28884637  0.09506961  0.46120432  1
  N  N322  1  0.95723522  0.26060600  0.03749955  1
  N  N323  1  0.96505863  0.59225066  0.45531552  1
  N  N324  1  0.23347889  0.42388965  0.03814545  1
  N  N325  1  0.98605262  0.25499497  0.46304333  1
  N  N326  1  0.03337926  0.26057438  0.03862058  1
  N  N327  1  0.22456308  0.08818998  0.03516680  1
  N  N328  1  0.26831454  0.90867075  0.53727862  1
  N  N329  1  0.73397879  0.90912729  0.53944210  1
  N  N330  1  0.19172254  0.57191512  0.95494778  1
  N  N331  1  0.22094158  0.24250678  0.96051006  1
  N  N332  1  0.51357265  0.41222570  0.53892507  1
  N  N333  1  0.77544463  0.75829557  0.03644010  1
  N  N334  1  0.19115151  0.90682039  0.54582100  1
  N  N335  1  0.81079158  0.90616842  0.55019423  1
  N  N336  1  0.96785761  0.74097470  0.96104788  1
  N  N337  1  0.54998236  0.59372312  0.45994905  1
  N  N338  1  0.22888912  0.42684973  0.46403928  1
  N  N339  1  0.05420832  0.07185849  0.95479400  1
  N  N340  1  0.21941521  0.75586298  0.46369106  1
  N  N341  1  0.04347430  0.92549647  0.46043960  1
  N  N342  1  0.01967867  0.40676193  0.53401569  1
  N  N343  1  0.71071932  0.09384406  0.45947459  1
  N  N344  1  0.68707357  0.24065338  0.54971561  1
  N  N345  1  0.77014525  0.42187609  0.03739244  1
  N  N346  1  0.81937128  0.43245325  0.45556841  1
  N  N347  1  0.79911419  0.57478087  0.95726183  1
  N  N348  1  0.68782289  0.76204559  0.45221205  1
  N  N349  1  0.71311891  0.09552884  0.04080737  1
  N  N350  1  0.22971646  0.57768638  0.53541754  1
  N  N351  1  0.30669081  0.42881695  0.45909137  1
  N  N352  1  0.53702250  0.40598840  0.96301851  1
  N  N353  1  0.29667066  0.24093131  0.95491445  1
  N  N354  1  0.79659891  0.24571353  0.96025759  1
  N  N355  1  0.47231303  0.59165792  0.46645288  1
  N  N356  1  0.74308090  0.41872271  0.46439148  1
  N  N357  1  0.23494717  0.90854829  0.96589186  1
  N  N358  1  0.69955139  0.76193789  0.04162642  1
  N  N359  1  0.76356689  0.24409080  0.53931539  1
  N  N360  1  0.07172375  0.05556932  0.60505370  1
  N  N361  1  0.04994480  0.39091676  0.59148799  1
  N  N362  1  0.07144365  0.72361402  0.60184476  1
  N  N363  1  0.56259648  0.05717354  0.59195766  1
  N  N364  1  0.54919894  0.38802258  0.58915458  1
  N  N365  1  0.56239182  0.72420923  0.59263010  1
  N  N366  1  0.42949399  0.28045092  0.10330892  1
  N  N367  1  0.44193209  0.61032978  0.09086840  1
  N  N368  1  0.43460612  0.93946159  0.08743347  1
  N  N369  1  0.93060111  0.27649596  0.09528011  1
  N  N370  1  0.92920722  0.61469733  0.10259077  1
  N  N371  1  0.92474291  0.94618606  0.10834442  1
  N  N372  1  0.42890952  0.05081763  0.89459792  1
  N  N373  1  0.43575292  0.38808845  0.90539334  1
  N  N374  1  0.44138939  0.72776484  0.91268638  1
  N  N375  1  0.93781766  0.05834501  0.90791271  1
  N  N376  1  0.93370901  0.38538852  0.90072698  1
  N  N377  1  0.93845734  0.72220643  0.90500992  1
  N  N378  1  0.07821364  0.27577361  0.39922107  1
  N  N379  1  0.06966631  0.60980561  0.39974584  1
  N  N380  1  0.06360243  0.94269056  0.40240509  1
  N  N381  1  0.56966349  0.27749102  0.39658423  1
  N  N382  1  0.56908289  0.61238259  0.40271283  1
  N  N383  1  0.56377735  0.94561924  0.39750322  1
  N  N384  1  0.30996828  0.22599220  0.59431979  1
  N  N385  1  0.31558499  0.55697584  0.60424439  1
  N  N386  1  0.30781126  0.88832453  0.58766111  1
  N  N387  1  0.80499353  0.22433091  0.58869367  1
  N  N388  1  0.79989289  0.55761782  0.58459455  1
  N  N389  1  0.81647378  0.88981170  0.60943111  1
  N  N390  1  0.19367431  0.10890546  0.09109694  1
  N  N391  1  0.19375941  0.44453923  0.08825746  1
  N  N392  1  0.18249675  0.77608411  0.09907130  1
  N  N393  1  0.68843179  0.11559263  0.09706929  1
  N  N394  1  0.68147546  0.44287936  0.10394463  1
  N  N395  1  0.68278080  0.78131810  0.10043794  1
  N  N396  1  0.18836589  0.22358121  0.90558651  1
  N  N397  1  0.18075038  0.55475651  0.89547304  1
  N  N398  1  0.19842016  0.88823856  0.91270792  1
  N  N399  1  0.68882291  0.22763880  0.90603613  1
  N  N400  1  0.68732602  0.55829561  0.90697436  1
  N  N401  1  0.69140745  0.88862269  0.90496298  1
  N  N402  1  0.31086278  0.11199312  0.40305900  1
  N  N403  1  0.32027346  0.44497252  0.40035110  1
  N  N404  1  0.31604475  0.77704730  0.39772647  1
  N  N405  1  0.81230574  0.10818575  0.39961080  1
  N  N406  1  0.82797365  0.44323428  0.39509612  1
  N  N407  1  0.80601570  0.77453524  0.40810595  1
  N  N408  1  0.44117030  0.27433006  0.41150149  1
  N  N409  1  0.44263480  0.60809558  0.41128369  1
  N  N410  1  0.43355212  0.94485222  0.39793492  1
  N  N411  1  0.95019898  0.27801746  0.41081938  1
  N  N412  1  0.94053386  0.61417153  0.39958393  1
  N  N413  1  0.93564205  0.94201843  0.40359110  1
  N  N414  1  0.06465223  0.05543003  0.89507421  1
  N  N415  1  0.06404883  0.38592439  0.89868537  1
  N  N416  1  0.06480629  0.71921315  0.90058576  1
  N  N417  1  0.55694572  0.05551154  0.91234697  1
  N  N418  1  0.56230569  0.38721637  0.90582689  1
  N  N419  1  0.56960558  0.72269399  0.90342184  1
  N  N420  1  0.05723533  0.27615483  0.09718062  1
  N  N421  1  0.05503694  0.60708519  0.07803383  1
  N  N422  1  0.05269662  0.94307162  0.09053990  1
  N  N423  1  0.55726521  0.27435565  0.08503741  1
  N  N424  1  0.56969399  0.61457727  0.10915094  1
  N  N425  1  0.56345151  0.94415518  0.09892922  1
  N  N426  1  0.43393864  0.05608783  0.60777207  1
  N  N427  1  0.42277773  0.38722508  0.60357393  1
  N  N428  1  0.43324210  0.71967444  0.60277366  1
  N  N429  1  0.94524615  0.05721263  0.58554573  1
  N  N430  1  0.92236210  0.38958587  0.60020309  1
  N  N431  1  0.94315658  0.72496016  0.59119442  1
  N  N432  1  0.18309589  0.11118425  0.40263725  1
  N  N433  1  0.19414007  0.43850676  0.40908886  1
  N  N434  1  0.18887132  0.77424846  0.40817671  1
  N  N435  1  0.68365100  0.11654164  0.40464115  1
  N  N436  1  0.70285101  0.44030364  0.41497645  1
  N  N437  1  0.67994884  0.77797662  0.39202631  1
  N  N438  1  0.31449691  0.22165202  0.89655402  1
  N  N439  1  0.30767534  0.55820338  0.90777801  1
  N  N440  1  0.32677174  0.88807374  0.90170892  1
  N  N441  1  0.81697597  0.22415932  0.90209978  1
  N  N442  1  0.81484447  0.55656092  0.89838148  1
  N  N443  1  0.82139107  0.88747207  0.90164420  1
  N  N444  1  0.32122522  0.11054870  0.09968224  1
  N  N445  1  0.31913130  0.44357204  0.10561772  1
  N  N446  1  0.31220656  0.77663147  0.09055374  1
  N  N447  1  0.81759855  0.11262976  0.09649823  1
  N  N448  1  0.80912859  0.44438168  0.08878406  1
  N  N449  1  0.80849628  0.77484624  0.09190713  1
  N  N450  1  0.18177947  0.22492057  0.59699996  1
  N  N451  1  0.18847154  0.55647467  0.58652608  1
  N  N452  1  0.18239645  0.88913414  0.60454282  1
  N  N453  1  0.68060110  0.22295807  0.60850051  1
  N  N454  1  0.67456807  0.55634207  0.60868322  1
  N  N455  1  0.69218799  0.88973267  0.58909227  1
  Cl  Cl456  1  0.25093200  0.05303449  0.61738933  1
  Cl  Cl457  1  0.23634104  0.38979026  0.60879385  1
  Cl  Cl458  1  0.25244674  0.71190883  0.62459793  1
  Cl  Cl459  1  0.75358869  0.06301231  0.60461347  1
  Cl  Cl460  1  0.73300504  0.39857298  0.60605144  1
  Cl  Cl461  1  0.75708612  0.72158707  0.60754989  1
  Cl  Cl462  1  0.24033015  0.28204752  0.12303826  1
  Cl  Cl463  1  0.25248104  0.60903417  0.11103562  1
  Cl  Cl464  1  0.24039965  0.93973309  0.10667388  1
  Cl  Cl465  1  0.74343945  0.28137284  0.11723484  1
  Cl  Cl466  1  0.74835735  0.60967826  0.12996295  1
  Cl  Cl467  1  0.74305134  0.95433146  0.12934861  1
  Cl  Cl468  1  0.24634666  0.04119197  0.87585347  1
  Cl  Cl469  1  0.24917597  0.39393909  0.88679056  1
  Cl  Cl470  1  0.25306968  0.72323217  0.89060505  1
  Cl  Cl471  1  0.74580807  0.06352997  0.89117897  1
  Cl  Cl472  1  0.74844856  0.39144766  0.88883648  1
  Cl  Cl473  1  0.75287968  0.72062906  0.87636223  1
  Cl  Cl474  1  0.25984663  0.28126382  0.38657938  1
  Cl  Cl475  1  0.25403870  0.60512648  0.39119618  1
  Cl  Cl476  1  0.25054126  0.94019038  0.38393755  1
  Cl  Cl477  1  0.76899985  0.27117592  0.39890267  1
  Cl  Cl478  1  0.75754370  0.60380324  0.39837988  1
  Cl  Cl479  1  0.74778123  0.94210224  0.39708126  1
  Cl  Cl480  1  -0.01204459  0.22536879  0.60147162  1
  Cl  Cl481  1  -0.00991473  0.56408975  0.59503529  1
  Cl  Cl482  1  -0.00190026  0.88213317  0.62244320  1
  Cl  Cl483  1  0.49441025  0.22211876  0.61873508  1
  Cl  Cl484  1  0.49620482  0.54910383  0.62655639  1
  Cl  Cl485  1  0.50010014  0.89111220  0.60300606  1
  Cl  Cl486  1  0.00344800  0.10926312  0.11748866  1
  Cl  Cl487  1  0.00255894  0.44161950  0.10515642  1
  Cl  Cl488  1  -0.00687683  0.77593484  0.12660824  1
  Cl  Cl489  1  0.50716262  0.11100925  0.11908629  1
  Cl  Cl490  1  0.50110413  0.45205973  0.13403500  1
  Cl  Cl491  1  0.49907575  0.77903843  0.10866777  1
  Cl  Cl492  1  0.00354985  0.22035764  0.87506001  1
  Cl  Cl493  1  -0.00240950  0.55016916  0.86452952  1
  Cl  Cl494  1  0.01284357  0.89112227  0.88906860  1
  Cl  Cl495  1  0.50214575  0.22124812  0.88251006  1
  Cl  Cl496  1  0.49744760  0.55800710  0.89222247  1
  Cl  Cl497  1  0.50695736  0.88059795  0.87105395  1
  Cl  Cl498  1  -0.00514193  0.11130603  0.39051077  1
  Cl  Cl499  1  0.01178582  0.44945600  0.37610521  1
  Cl  Cl500  1  -0.00710429  0.77383620  0.39784150  1
  Cl  Cl501  1  0.49948273  0.11251602  0.38715646  1
  Cl  Cl502  1  0.51766412  0.43668714  0.40056289  1
  Cl  Cl503  1  0.49738558  0.77981407  0.37484952  1
  Cl  Cl504  1  0.36068796  0.14549166  0.75405401  1
  Cl  Cl505  1  0.35492808  0.47768348  0.74220287  1
  Cl  Cl506  1  0.35813430  0.81304803  0.74980607  1
  Cl  Cl507  1  0.85662242  0.14533372  0.75096137  1
  Cl  Cl508  1  0.85793563  0.48111148  0.74771412  1
  Cl  Cl509  1  0.86056022  0.81568070  0.74701794  1
  Cl  Cl510  1  0.14111359  0.18414710  0.25242535  1
  Cl  Cl511  1  0.14220269  0.51764490  0.25221922  1
  Cl  Cl512  1  0.14181707  0.85306660  0.25009936  1
  Cl  Cl513  1  0.63814364  0.18854965  0.25531182  1
  Cl  Cl514  1  0.63962769  0.51851819  0.25606481  1
  Cl  Cl515  1  0.63424848  0.85560834  0.25599874  1
  Cl  Cl516  1  0.13886143  0.14810556  0.74512698  1
  Cl  Cl517  1  0.13711736  0.48138817  0.75127651  1
  Cl  Cl518  1  0.13887821  0.81312101  0.74623672  1
  Cl  Cl519  1  0.63597961  0.14677561  0.74298963  1
  Cl  Cl520  1  0.63780727  0.48274052  0.74815608  1
  Cl  Cl521  1  0.63943991  0.81337058  0.74724840  1
  Cl  Cl522  1  0.36085526  0.18476011  0.24491726  1
  Cl  Cl523  1  0.35899383  0.51928692  0.25578726  1
  Cl  Cl524  1  0.36157194  0.85173908  0.25049176  1
  Cl  Cl525  1  0.85609381  0.18672527  0.25061684  1
  Cl  Cl526  1  0.86037464  0.52057413  0.25916298  1
  Cl  Cl527  1  0.85993464  0.85264370  0.25077231  1
  Cl  Cl528  1  0.10078676  0.31550646  0.74396124  1
  Cl  Cl529  1  0.11138910  0.64592081  0.74438512  1
  Cl  Cl530  1  0.10994001  0.98222434  0.74481031  1
  Cl  Cl531  1  0.61062680  0.31344708  0.74389498  1
  Cl  Cl532  1  0.61010967  0.64669279  0.75162278  1
  Cl  Cl533  1  0.60792145  0.98066582  0.75029524  1
  Cl  Cl534  1  0.39372502  0.01838662  0.24858099  1
  Cl  Cl535  1  0.39104968  0.35123694  0.24701998  1
  Cl  Cl536  1  0.39141418  0.68381153  0.25513540  1
  Cl  Cl537  1  0.88608876  0.02162857  0.25027863  1
  Cl  Cl538  1  0.88906554  0.35382097  0.25653325  1
  Cl  Cl539  1  0.88689327  0.68566957  0.25156930  1
  Cl  Cl540  1  0.38711763  0.31473195  0.74843377  1
  Cl  Cl541  1  0.38920767  0.64786470  0.75083996  1
  Cl  Cl542  1  0.38488513  0.97842674  0.74823198  1
  Cl  Cl543  1  0.87922097  0.31121292  0.74318377  1
  Cl  Cl544  1  0.89128979  0.64813352  0.74683123  1
  Cl  Cl545  1  0.88814660  0.98038094  0.74739049  1
  Cl  Cl546  1  0.10758053  0.01639981  0.25501310  1
  Cl  Cl547  1  0.10770156  0.35155044  0.25308927  1
  Cl  Cl548  1  0.10732719  0.68424771  0.24914924  1
  Cl  Cl549  1  0.61582650  0.02246816  0.25332159  1
  Cl  Cl550  1  0.60976875  0.35333223  0.25859058  1
  Cl  Cl551  1  0.61473537  0.68748573  0.25368805  1
