# generated using pymatgen
data_H8PbC4(N3Cl2)2
_symmetry_space_group_name_H-M   'P 1'
_cell_length_a   16.62267794
_cell_length_b   22.50212974
_cell_length_c   21.58997944
_cell_angle_alpha   90.00082769
_cell_angle_beta   90.00528307
_cell_angle_gamma   90.00105489
_symmetry_Int_Tables_number   1
_chemical_formula_structural   H8PbC4(N3Cl2)2
_chemical_formula_sum   'H192 Pb24 C96 N144 Cl96'
_cell_volume   8075.63797855
_cell_formula_units_Z   24
loop_
 _symmetry_equiv_pos_site_id
 _symmetry_equiv_pos_as_xyz
  1  'x, y, z'
loop_
 _atom_site_type_symbol
 _atom_site_label
 _atom_site_symmetry_multiplicity
 _atom_site_fract_x
 _atom_site_fract_y
 _atom_site_fract_z
 _atom_site_occupancy
  H  H0  1  0.00077183  0.03233929  0.68197084  1
  H  H1  1  -0.00615585  0.36673662  0.68104704  1
  H  H2  1  0.00132306  0.69691904  0.68083003  1
  H  H3  1  0.49732308  0.03211906  0.67952594  1
  H  H4  1  0.50681797  0.36738778  0.68181657  1
  H  H5  1  0.50384232  0.69866360  0.68111977  1
  H  H6  1  0.00850726  0.29980547  0.18241160  1
  H  H7  1  -0.00132265  0.63507573  0.18262224  1
  H  H8  1  0.00852770  0.97016024  0.17927548  1
  H  H9  1  0.49273569  0.30045301  0.17998355  1
  H  H10  1  0.50052577  0.63436832  0.17831737  1
  H  H11  1  0.49511925  0.96609199  0.18109767  1
  H  H12  1  0.00475544  0.03286462  0.81778405  1
  H  H13  1  -0.00205588  0.36285081  0.82034529  1
  H  H14  1  -0.00136221  0.69983364  0.81831329  1
  H  H15  1  0.50548085  0.03296475  0.82162686  1
  H  H16  1  0.49804694  0.36511436  0.81942150  1
  H  H17  1  0.49957784  0.69796685  0.81861983  1
  H  H18  1  0.01203008  0.29925038  0.32185738  1
  H  H19  1  0.00497922  0.63558051  0.31856371  1
  H  H20  1  0.00767464  0.96870480  0.31899055  1
  H  H21  1  0.49300661  0.29982267  0.32042602  1
  H  H22  1  0.49874047  0.63437805  0.32036291  1
  H  H23  1  0.50322021  0.96744247  0.32113232  1
  H  H24  1  0.25200229  0.19894787  0.68102047  1
  H  H25  1  0.24558063  0.53053767  0.67843859  1
  H  H26  1  0.24346898  0.86529687  0.67929718  1
  H  H27  1  0.75060175  0.19785181  0.67952382  1
  H  H28  1  0.75160456  0.53101904  0.68189289  1
  H  H29  1  0.75248062  0.86669956  0.68266569  1
  H  H30  1  0.24647896  0.13426888  0.17973802  1
  H  H31  1  0.25147875  0.46760142  0.17986013  1
  H  H32  1  0.25201114  0.80138513  0.18281997  1
  H  H33  1  0.74971909  0.13458448  0.18164036  1
  H  H34  1  0.75544632  0.46778306  0.17998540  1
  H  H35  1  0.74725249  0.80299049  0.18064194  1
  H  H36  1  0.25102030  0.19915898  0.81932554  1
  H  H37  1  0.24053924  0.53244149  0.82167940  1
  H  H38  1  0.25299188  0.86634592  0.81650603  1
  H  H39  1  0.74836881  0.19868041  0.81800996  1
  H  H40  1  0.76089876  0.53279751  0.81875117  1
  H  H41  1  0.74054783  0.86730637  0.82273301  1
  H  H42  1  0.24747402  0.13541411  0.32093373  1
  H  H43  1  0.24860627  0.46905498  0.31942038  1
  H  H44  1  0.24739734  0.80237116  0.31701337  1
  H  H45  1  0.75073079  0.13497342  0.31729593  1
  H  H46  1  0.75038552  0.46713301  0.31634350  1
  H  H47  1  0.74493217  0.80106171  0.31875070  1
  H  H48  1  0.12544312  0.05323817  0.60949099  1
  H  H49  1  0.12889376  0.38366339  0.62117615  1
  H  H50  1  0.11972868  0.72114179  0.60356191  1
  H  H51  1  0.62492601  0.05367161  0.60972372  1
  H  H52  1  0.61980431  0.38794922  0.60308423  1
  H  H53  1  0.62026591  0.72351705  0.60327678  1
  H  H54  1  0.38077393  0.27587648  0.09883011  1
  H  H55  1  0.37343665  0.61172580  0.11097208  1
  H  H56  1  0.38132379  0.94565396  0.10333284  1
  H  H57  1  0.87828441  0.28002653  0.11427455  1
  H  H58  1  0.87269339  0.61433577  0.11395421  1
  H  H59  1  0.87203404  0.94891861  0.12343090  1
  H  H60  1  0.37469504  0.05297235  0.88352402  1
  H  H61  1  0.38311866  0.38874631  0.89709850  1
  H  H62  1  0.37739355  0.71994901  0.88987993  1
  H  H63  1  0.87544410  0.05167145  0.88738400  1
  H  H64  1  0.88220015  0.38974703  0.89883496  1
  H  H65  1  0.87582325  0.72271783  0.88950002  1
  H  H66  1  0.12571885  0.27820015  0.39953439  1
  H  H67  1  0.12366122  0.61108491  0.39563251  1
  H  H68  1  0.11936086  0.94340830  0.40100374  1
  H  H69  1  0.63213073  0.28221928  0.37448837  1
  H  H70  1  0.61967873  0.61137654  0.39450998  1
  H  H71  1  0.62235363  0.94426879  0.39567220  1
  H  H72  1  0.37008377  0.22145797  0.60500623  1
  H  H73  1  0.37817779  0.55102134  0.61685541  1
  H  H74  1  0.38028680  0.88501674  0.62206165  1
  H  H75  1  0.86966380  0.22176814  0.60449931  1
  H  H76  1  0.87584557  0.55301541  0.61191645  1
  H  H77  1  0.87681361  0.88921675  0.61121952  1
  H  H78  1  0.12906113  0.11157446  0.10212385  1
  H  H79  1  0.12007213  0.44540502  0.11665568  1
  H  H80  1  0.12482065  0.77933129  0.11239246  1
  H  H81  1  0.62569574  0.11171936  0.10886708  1
  H  H82  1  0.61921097  0.44812397  0.12122501  1
  H  H83  1  0.62215518  0.78122056  0.11078591  1
  H  H84  1  0.11982291  0.21822863  0.88381349  1
  H  H85  1  0.13285159  0.55963058  0.90474721  1
  H  H86  1  0.12663521  0.88629875  0.88407563  1
  H  H87  1  0.62269791  0.21897970  0.88703823  1
  H  H88  1  0.62311062  0.55191217  0.87617407  1
  H  H89  1  0.62979758  0.89019225  0.90240339  1
  H  H90  1  0.37453831  0.11210752  0.38990737  1
  H  H91  1  0.37394292  0.44553626  0.39108080  1
  H  H92  1  0.37605241  0.78076833  0.38609570  1
  H  H93  1  0.87309271  0.11400982  0.39235020  1
  H  H94  1  0.87515872  0.44598344  0.38540063  1
  H  H95  1  0.88047716  0.78149788  0.37961889  1
  H  H96  1  0.38576307  0.27669349  0.40271412  1
  H  H97  1  0.37133072  0.61152991  0.38917892  1
  H  H98  1  0.37384610  0.94916155  0.38487881  1
  H  H99  1  0.87862030  0.28183456  0.38143051  1
  H  H100  1  0.87567324  0.61337511  0.38644953  1
  H  H101  1  0.87243893  0.94859365  0.37981445  1
  H  H102  1  0.12409723  0.05684539  0.89418303  1
  H  H103  1  0.12950975  0.38477630  0.88475838  1
  H  H104  1  0.12592282  0.71982500  0.88793827  1
  H  H105  1  0.62329282  0.05347180  0.89836648  1
  H  H106  1  0.63180300  0.38661799  0.88207720  1
  H  H107  1  0.62677930  0.72075997  0.88463438  1
  H  H108  1  0.12654704  0.27779702  0.10377853  1
  H  H109  1  0.12241077  0.60928099  0.11093412  1
  H  H110  1  0.11864823  0.94351239  0.09766475  1
  H  H111  1  0.62824850  0.28087262  0.12118176  1
  H  H112  1  0.62212955  0.61173968  0.10513305  1
  H  H113  1  0.62968767  0.94905027  0.11983524  1
  H  H114  1  0.37607464  0.05352786  0.60523851  1
  H  H115  1  0.37175852  0.38491075  0.62216083  1
  H  H116  1  0.37144928  0.71847645  0.61869697  1
  H  H117  1  0.87593000  0.05451698  0.61142464  1
  H  H118  1  0.88104135  0.38730328  0.60261724  1
  H  H119  1  0.87147733  0.71985199  0.61315091  1
  H  H120  1  0.12547967  0.11304267  0.39386251  1
  H  H121  1  0.12517672  0.44478856  0.39261894  1
  H  H122  1  0.12704551  0.77864807  0.39024890  1
  H  H123  1  0.62447441  0.11171582  0.38780310  1
  H  H124  1  0.62534283  0.44631885  0.38521697  1
  H  H125  1  0.63191251  0.77875261  0.39833488  1
  H  H126  1  0.36905383  0.22001908  0.89366281  1
  H  H127  1  0.37839610  0.54996136  0.87835623  1
  H  H128  1  0.37652939  0.88684995  0.88736452  1
  H  H129  1  0.87223906  0.22000245  0.88786493  1
  H  H130  1  0.86915796  0.55807105  0.90146836  1
  H  H131  1  0.87648612  0.88456577  0.87980482  1
  H  H132  1  0.37766708  0.11395479  0.11496027  1
  H  H133  1  0.36851408  0.44353780  0.10265899  1
  H  H134  1  0.37314648  0.77817952  0.10769728  1
  H  H135  1  0.87506632  0.11260920  0.11129212  1
  H  H136  1  0.86510214  0.44199828  0.09665470  1
  H  H137  1  0.87088781  0.77964220  0.10808246  1
  H  H138  1  0.12105565  0.22028072  0.61394484  1
  H  H139  1  0.13063740  0.55573620  0.59967169  1
  H  H140  1  0.13307605  0.89205190  0.59790028  1
  H  H141  1  0.62029951  0.22019267  0.61384227  1
  H  H142  1  0.62592374  0.55388715  0.61117840  1
  H  H143  1  0.62764800  0.88757152  0.61043181  1
  H  H144  1  0.94381635  0.41090528  0.49196765  1
  H  H145  1  0.31071280  0.24815306  0.49653522  1
  H  H146  1  0.59014046  0.75132956  0.99554054  1
  H  H147  1  0.35606277  0.58371618  0.98511718  1
  H  H148  1  0.82855147  0.24732708  0.99859907  1
  H  H149  1  0.20794648  0.57249156  1.00598564  1
  H  H150  1  0.07044283  0.58949739  0.00377406  1
  H  H151  1  0.89047038  0.91797016  0.01054498  1
  H  H152  1  0.79237967  0.41459440  -0.00344725  1
  H  H153  1  0.45441977  0.25080851  0.50930794  1
  H  H154  1  0.42396547  0.75094932  0.99908326  1
  H  H155  1  0.65359123  0.24862345  0.50633828  1
  H  H156  1  0.66276046  0.24581814  0.99827822  1
  H  H157  1  0.44254841  0.92183687  -0.00750238  1
  H  H158  1  0.94826402  0.41327239  1.00175564  1
  H  H159  1  0.67039137  0.42239438  0.49856676  1
  H  H160  1  0.92481062  0.08397998  0.50249576  1
  H  H161  1  0.82777843  0.91712203  0.50253940  1
  H  H162  1  0.81740966  0.25021372  0.49689760  1
  H  H163  1  0.91738196  0.58768562  0.00178458  1
  H  H164  1  0.83044909  0.58133602  0.50156639  1
  H  H165  1  0.40375912  0.74822406  0.50683347  1
  H  H166  1  0.16968020  0.90971126  0.99835210  1
  H  H167  1  0.44289599  0.41552818  1.00528146  1
  H  H168  1  0.32860526  0.90940380  1.00037476  1
  H  H169  1  0.40700175  0.91975354  0.49857654  1
  H  H170  1  0.57663168  0.07994535  0.50417034  1
  H  H171  1  0.79701200  0.58431222  1.00650606  1
  H  H172  1  0.44989250  0.24613725  -0.00241287  1
  H  H173  1  0.55643330  0.41128591  0.49256420  1
  H  H174  1  0.31412344  0.24721608  1.00484203  1
  H  H175  1  0.08149553  0.75146588  0.99220083  1
  H  H176  1  0.30583898  0.41611908  -0.00112603  1
  H  H177  1  0.04805520  0.92801781  -0.00574516  1
  H  H178  1  0.41460600  0.58315510  0.49424236  1
  H  H179  1  0.40542258  0.08163814  0.99759823  1
  H  H180  1  0.04856005  0.91995319  0.50230243  1
  H  H181  1  0.18109074  0.74764511  0.49796972  1
  H  H182  1  0.57145363  0.58488354  0.00085952  1
  H  H183  1  0.20323761  0.91889211  0.49651574  1
  H  H184  1  0.55938642  0.74955718  0.49992548  1
  H  H185  1  0.82718524  0.08372546  0.00229801  1
  H  H186  1  0.59857202  0.41436049  0.98950816  1
  H  H187  1  0.67268573  0.58131197  0.50647181  1
  H  H188  1  0.84982495  0.75276611  0.48707232  1
  H  H189  1  0.82982334  0.42206085  0.49859267  1
  H  H190  1  0.69475660  0.75529594  0.50660070  1
  H  H191  1  0.92346564  0.75128148  0.99914219  1
  Pb  Pb192  1  0.25033778  0.04581717  0.74878109  1
  Pb  Pb193  1  0.25137013  0.37742231  0.75995342  1
  Pb  Pb194  1  0.25140291  0.71378076  0.74782688  1
  Pb  Pb195  1  0.74899311  0.04522418  0.75101603  1
  Pb  Pb196  1  0.75396603  0.38162083  0.74858526  1
  Pb  Pb197  1  0.75153630  0.71318561  0.74635895  1
  Pb  Pb198  1  0.25041629  0.28334049  0.25021646  1
  Pb  Pb199  1  0.24904865  0.62142672  0.24612457  1
  Pb  Pb200  1  0.24405284  0.95208281  0.24948119  1
  Pb  Pb201  1  0.74953131  0.28681081  0.24904829  1
  Pb  Pb202  1  0.74693163  0.61790534  0.25107824  1
  Pb  Pb203  1  0.74983731  0.95491898  0.25427996  1
  Pb  Pb204  1  -0.00103956  0.21146412  0.74707943  1
  Pb  Pb205  1  0.00578605  0.54758050  0.75620058  1
  Pb  Pb206  1  0.00147885  0.88129869  0.74627309  1
  Pb  Pb207  1  0.49931871  0.21274267  0.75378851  1
  Pb  Pb208  1  0.50001754  0.54592709  0.74771555  1
  Pb  Pb209  1  0.50251871  0.88019574  0.75121973  1
  Pb  Pb210  1  -0.00119762  0.12187444  0.25106493  1
  Pb  Pb211  1  0.00147740  0.45140577  0.24628841  1
  Pb  Pb212  1  -0.00406717  0.78615229  0.24468785  1
  Pb  Pb213  1  0.49671786  0.11841399  0.25160193  1
  Pb  Pb214  1  0.49455170  0.45183713  0.24757313  1
  Pb  Pb215  1  0.50064745  0.78730186  0.25297825  1
  C  C216  1  0.00072742  0.04687502  0.63412522  1
  C  C217  1  0.00110179  0.37948013  0.63301134  1
  C  C218  1  -0.00266559  0.71225329  0.63325401  1
  C  C219  1  0.49988221  0.04659156  0.63168737  1
  C  C220  1  0.49962407  0.38033020  0.63380652  1
  C  C221  1  0.49874942  0.71327522  0.63329635  1
  C  C222  1  0.00438108  0.28613348  0.13434600  1
  C  C223  1  -0.00137389  0.62049212  0.13460528  1
  C  C224  1  0.00002170  0.95494498  0.13193932  1
  C  C225  1  0.50033877  0.28591426  0.13242436  1
  C  C226  1  0.49905452  0.61929000  0.13060159  1
  C  C227  1  0.50188607  0.95332367  0.13300490  1
  C  C228  1  0.00126990  0.04692862  0.86575633  1
  C  C229  1  0.00306799  0.37855538  0.86765255  1
  C  C230  1  0.00062526  0.71465467  0.86628309  1
  C  C231  1  0.50050219  0.04687370  0.86952045  1
  C  C232  1  0.50511353  0.38006743  0.86701563  1
  C  C233  1  0.50132787  0.71323583  0.86634394  1
  C  C234  1  0.00528518  0.28636021  0.36982533  1
  C  C235  1  0.00147855  0.62060375  0.36619760  1
  C  C236  1  -0.00003657  0.95420188  0.36653833  1
  C  C237  1  0.50356435  0.28634119  0.36798579  1
  C  C238  1  0.49627470  0.61919019  0.36799966  1
  C  C239  1  0.49914943  0.95335405  0.36897915  1
  C  C240  1  0.24755234  0.21343279  0.63323586  1
  C  C241  1  0.25137478  0.54582198  0.63121714  1
  C  C242  1  0.25206500  0.87986883  0.63188223  1
  C  C243  1  0.74632260  0.21337671  0.63187386  1
  C  C244  1  0.75064959  0.54642038  0.63416548  1
  C  C245  1  0.75232786  0.88086928  0.63466417  1
  C  C246  1  0.25096015  0.12010563  0.13205962  1
  C  C247  1  0.24690626  0.45284992  0.13236984  1
  C  C248  1  0.24989548  0.78661766  0.13500321  1
  C  C249  1  0.75005248  0.11958227  0.13394218  1
  C  C250  1  0.74676226  0.45273427  0.13267033  1
  C  C251  1  0.74707857  0.78819350  0.13304284  1
  C  C252  1  0.24692481  0.21278187  0.86728108  1
  C  C253  1  0.25072248  0.54722557  0.86907072  1
  C  C254  1  0.25201917  0.87995483  0.86476784  1
  C  C255  1  0.74765556  0.21300782  0.86605427  1
  C  C256  1  0.75083009  0.54731725  0.86604813  1
  C  C257  1  0.74924717  0.88062832  0.87033034  1
  C  C258  1  0.24942530  0.12019013  0.36836017  1
  C  C259  1  0.24925575  0.45385148  0.36707126  1
  C  C260  1  0.25050323  0.78720757  0.36466840  1
  C  C261  1  0.74941582  0.12033713  0.36515014  1
  C  C262  1  0.75028616  0.45292631  0.36441763  1
  C  C263  1  0.75313063  0.78622313  0.36627207  1
  C  C264  1  0.78786297  0.09409953  0.04107703  1
  C  C265  1  0.97602795  0.40260675  0.53494045  1
  C  C266  1  0.29717941  0.09376397  0.04118733  1
  C  C267  1  0.95533415  0.59485306  0.04207731  1
  C  C268  1  0.70747862  0.76170983  0.04008556  1
  C  C269  1  0.31133845  0.90723903  0.54434416  1
  C  C270  1  0.94084602  0.92804042  0.04499291  1
  C  C271  1  0.55836768  0.25883310  0.04391423  1
  C  C272  1  0.72640014  0.76255850  0.46309168  1
  C  C273  1  0.53311831  0.92689328  0.46368506  1
  C  C274  1  0.19720972  0.23654286  0.95853452  1
  C  C275  1  0.47557117  0.93048453  0.03501359  1
  C  C276  1  0.70917882  0.43048462  0.45894953  1
  C  C277  1  0.76834987  0.57378588  0.96249434  1
  C  C278  1  0.45312717  0.59466162  0.03705936  1
  C  C279  1  0.20896326  0.90188607  0.95892569  1
  C  C280  1  0.52430076  0.40330114  0.53563967  1
  C  C281  1  0.45120372  0.07208244  0.96164642  1
  C  C282  1  0.78765733  0.23768103  0.96052500  1
  C  C283  1  0.44373608  0.40238372  0.54413204  1
  C  C284  1  0.19495279  0.42433244  0.04209571  1
  C  C285  1  0.44709973  0.73873864  0.54320957  1
  C  C286  1  0.56614621  0.26287292  0.45495738  1
  C  C287  1  0.45171824  0.92859981  0.46186702  1
  C  C288  1  0.79107256  0.43048698  0.45901909  1
  C  C289  1  0.54611641  0.74035231  0.95892811  1
  C  C290  1  0.77939189  0.23998385  0.53705710  1
  C  C291  1  0.96188439  0.74014535  0.96005979  1
  C  C292  1  0.03267461  0.26233007  0.46579691  1
  C  C293  1  0.05649673  0.40117342  0.54340293  1
  C  C294  1  0.53266767  0.07199710  0.96502907  1
  C  C295  1  0.21787477  0.75949000  0.45810199  1
  C  C296  1  0.27844747  0.23746861  0.96384676  1
  C  C297  1  0.27658080  0.23880084  0.53838803  1
  C  C298  1  0.47583593  0.40621758  0.96276054  1
  C  C299  1  0.70538129  0.23698464  0.96023948  1
  C  C300  1  0.95194770  0.26338609  0.45959778  1
  C  C301  1  0.29099075  0.90186584  0.95995649  1
  C  C302  1  0.78884861  0.90628776  0.54137032  1
  C  C303  1  0.79138272  0.57182412  0.54069776  1
  C  C304  1  0.55620573  0.93182771  0.04278195  1
  C  C305  1  0.30096328  0.57295417  0.54163599  1
  C  C306  1  0.21505008  0.09151661  0.46113003  1
  C  C307  1  0.72597137  0.90582369  0.96666339  1
  C  C308  1  0.46380472  0.74002754  0.96080930  1
  C  C309  1  0.96366358  0.07285873  0.54130232  1
  C  C310  1  0.48581946  0.26083395  0.46637600  1
  C  C311  1  0.80583371  0.90384828  0.95885413  1
  N  N312  1  0.47963514  0.25774177  0.03741626  1
  N  N313  1  0.23289835  0.90882228  0.53689816  1
  N  N314  1  0.19762500  0.23936313  0.54168225  1
  N  N315  1  0.94284764  0.92883838  0.45489495  1
  N  N316  1  0.03493960  0.59212196  0.04239696  1
  N  N317  1  0.80541968  0.76217025  0.45512628  1
  N  N318  1  0.22359966  0.57519085  0.53489135  1
  N  N319  1  0.20774748  0.76207088  0.04142798  1
  N  N320  1  0.70948807  0.90544423  0.54055752  1
  N  N321  1  0.53258423  0.59415308  0.03653779  1
  N  N322  1  0.95219616  0.73953818  0.54150344  1
  N  N323  1  0.01998482  0.92639589  0.03656343  1
  N  N324  1  0.21983453  0.09276861  0.03577155  1
  N  N325  1  0.03531899  0.26213081  0.03826641  1
  N  N326  1  0.70821531  0.09449553  0.45833210  1
  N  N327  1  0.46087000  0.07161478  0.53755415  1
  N  N328  1  0.29714587  0.76060558  0.45702355  1
  N  N329  1  0.02051094  0.92647334  0.46050779  1
  N  N330  1  0.68982693  0.57226230  0.95405595  1
  N  N331  1  0.29234605  0.09125946  0.46125578  1
  N  N332  1  0.97807438  0.40652153  0.96079329  1
  N  N333  1  0.03385709  0.07239282  0.96103600  1
  N  N334  1  0.95884268  0.26287137  0.04155604  1
  N  N335  1  0.27367835  0.42494023  0.03835122  1
  N  N336  1  0.95645406  0.59381413  0.45810767  1
  N  N337  1  0.76530153  0.42702893  0.03768264  1
  N  N338  1  0.30951180  0.56772470  0.95596086  1
  N  N339  1  0.78523331  0.09529135  0.45982705  1
  N  N340  1  0.45577973  0.59281562  0.45872158  1
  N  N341  1  0.55502226  0.40582914  0.95626564  1
  N  N342  1  0.70853884  0.09366830  0.03993422  1
  N  N343  1  0.53459734  0.59306090  0.46196497  1
  N  N344  1  0.02878970  0.73996952  0.53835070  1
  N  N345  1  0.69983514  0.23939889  0.54111508  1
  N  N346  1  0.28465233  0.76146004  0.03987446  1
  N  N347  1  0.04293564  0.07218870  0.54013379  1
  N  N348  1  0.04165434  0.73741434  0.95895401  1
  N  N349  1  0.28853846  0.42679004  0.46040929  1
  N  N350  1  0.68778935  0.42836199  0.04479575  1
  N  N351  1  0.71169691  0.57210163  0.54182896  1
  N  N352  1  0.21240657  0.42675769  0.46097276  1
  N  N353  1  0.78528136  0.76057358  0.03837693  1
  N  N354  1  0.23181527  0.57989228  0.96260372  1
  N  N355  1  0.03289923  0.59299613  0.46111961  1
  N  N356  1  0.53884171  0.07217647  0.54076393  1
  N  N357  1  0.52646479  0.74047257  0.53899875  1
  N  N358  1  0.95727842  0.07069930  0.95874977  1
  N  N359  1  0.05586802  0.40480059  0.95744212  1
  N  N360  1  0.06436933  0.05642599  0.59842646  1
  N  N361  1  0.07138388  0.38745386  0.60243237  1
  N  N362  1  0.05788903  0.72312535  0.59494977  1
  N  N363  1  0.56439422  0.05621134  0.59738532  1
  N  N364  1  0.55871069  0.38955002  0.59295873  1
  N  N365  1  0.55843157  0.72352542  0.59422558  1
  N  N366  1  0.44291015  0.27504649  0.09172532  1
  N  N367  1  0.43246271  0.60957174  0.09573852  1
  N  N368  1  0.44211702  0.94395102  0.09274672  1
  N  N369  1  0.93851460  0.27755929  0.10117557  1
  N  N370  1  0.93247039  0.61086143  0.09965963  1
  N  N371  1  0.92913889  0.94383310  0.10443810  1
  N  N372  1  0.43271539  0.05636384  0.90081609  1
  N  N373  1  0.44460699  0.39054563  0.90731476  1
  N  N374  1  0.43748353  0.72322550  0.90280707  1
  N  N375  1  0.93592727  0.05472496  0.89977521  1
  N  N376  1  0.94407903  0.38899018  0.90723115  1
  N  N377  1  0.93619134  0.72519884  0.90274673  1
  N  N378  1  0.06505989  0.27610320  0.41088706  1
  N  N379  1  0.06216024  0.60977751  0.40440703  1
  N  N380  1  0.05694830  0.94423990  0.40797123  1
  N  N381  1  0.57604885  0.27820768  0.39523595  1
  N  N382  1  0.55863211  0.60898825  0.40515446  1
  N  N383  1  0.56164218  0.94168918  0.40779109  1
  N  N384  1  0.30907501  0.22338097  0.59433516  1
  N  N385  1  0.32025945  0.55555578  0.60016180  1
  N  N386  1  0.32330491  0.88972356  0.60320902  1
  N  N387  1  0.80844502  0.22423390  0.59343203  1
  N  N388  1  0.81584070  0.55623495  0.59822844  1
  N  N389  1  0.81672603  0.89100349  0.59877945  1
  N  N390  1  0.19085730  0.10986706  0.09355699  1
  N  N391  1  0.17801732  0.44150415  0.10033630  1
  N  N392  1  0.18526319  0.77723530  0.10045422  1
  N  N393  1  0.68687305  0.10933578  0.09805129  1
  N  N394  1  0.67686498  0.44439454  0.10403561  1
  N  N395  1  0.68187210  0.77811098  0.09739213  1
  N  N396  1  0.17859174  0.22184401  0.90031187  1
  N  N397  1  0.19492518  0.55658703  0.91181801  1
  N  N398  1  0.18608551  0.88836302  0.89940281  1
  N  N399  1  0.68222951  0.22178413  0.90102189  1
  N  N400  1  0.68096805  0.55594686  0.89383724  1
  N  N401  1  0.69107135  0.89174573  0.91235671  1
  N  N402  1  0.31404952  0.10929892  0.40209246  1
  N  N403  1  0.31305180  0.44344282  0.40225802  1
  N  N404  1  0.31580926  0.77788471  0.39840221  1
  N  N405  1  0.81167892  0.11142448  0.40233174  1
  N  N406  1  0.81548921  0.44429074  0.39987806  1
  N  N407  1  0.82161260  0.77566530  0.39521235  1
  N  N408  1  0.44762689  0.27577860  0.41078884  1
  N  N409  1  0.43164379  0.60895806  0.40199373  1
  N  N410  1  0.43185906  0.94508666  0.40142449  1
  N  N411  1  0.93579123  0.27803252  0.40070345  1
  N  N412  1  0.93565924  0.61063072  0.39918007  1
  N  N413  1  0.93084617  0.94437836  0.39574744  1
  N  N414  1  0.06240031  0.05794877  0.90352177  1
  N  N415  1  0.07082929  0.38874939  0.89874010  1
  N  N416  1  0.06535343  0.72379446  0.90046397  1
  N  N417  1  0.56242680  0.05685406  0.90962517  1
  N  N418  1  0.57283184  0.38937117  0.89744719  1
  N  N419  1  0.56760571  0.72366855  0.89985241  1
  N  N420  1  0.06493445  0.27644135  0.09557198  1
  N  N421  1  0.06168136  0.61126080  0.09861902  1
  N  N422  1  0.05662137  0.94645044  0.08977185  1
  N  N423  1  0.57113293  0.27622302  0.10275872  1
  N  N424  1  0.56119634  0.60953501  0.09412813  1
  N  N425  1  0.57171724  0.94529881  0.10185660  1
  N  N426  1  0.43704262  0.05656128  0.59473659  1
  N  N427  1  0.42923352  0.38871975  0.60325277  1
  N  N428  1  0.42964069  0.72245005  0.60189265  1
  N  N429  1  0.93606713  0.05728669  0.59863905  1
  N  N430  1  0.94199330  0.38895109  0.59223966  1
  N  N431  1  0.93147845  0.72263989  0.60052272  1
  N  N432  1  0.18569195  0.10903121  0.40538685  1
  N  N433  1  0.18633857  0.44365673  0.40319979  1
  N  N434  1  0.18783122  0.77564594  0.40180251  1
  N  N435  1  0.68518569  0.10977612  0.39965980  1
  N  N436  1  0.68492010  0.44418372  0.39972645  1
  N  N437  1  0.69356373  0.77717830  0.40783287  1
  N  N438  1  0.30847695  0.22263940  0.90560190  1
  N  N439  1  0.32105350  0.55731871  0.89570600  1
  N  N440  1  0.31657112  0.88845856  0.90110657  1
  N  N441  1  0.81227262  0.22293681  0.90163704  1
  N  N442  1  0.80743472  0.55859859  0.90884977  1
  N  N443  1  0.81999260  0.88852842  0.89967101  1
  N  N444  1  0.31877289  0.11011146  0.09960673  1
  N  N445  1  0.30689628  0.44339656  0.09343280  1
  N  N446  1  0.31171981  0.77665231  0.09765421  1
  N  N447  1  0.81489429  0.10987440  0.09846620  1
  N  N448  1  0.80268311  0.44146730  0.09085732  1
  N  N449  1  0.80990173  0.77767328  0.09738135  1
  N  N450  1  0.18118472  0.22346955  0.60077177  1
  N  N451  1  0.19257075  0.55766979  0.59200050  1
  N  N452  1  0.19525395  0.89011180  0.59046125  1
  N  N453  1  0.68010934  0.22290551  0.59957396  1
  N  N454  1  0.68674153  0.55643451  0.59933594  1
  N  N455  1  0.68868180  0.88992594  0.59894649  1
  Cl  Cl456  1  0.25126173  0.04843732  0.61629431  1
  Cl  Cl457  1  0.25075060  0.38235883  0.63266089  1
  Cl  Cl458  1  0.24274457  0.72070591  0.61342077  1
  Cl  Cl459  1  0.74806643  0.05333780  0.61923686  1
  Cl  Cl460  1  0.74983961  0.38835975  0.61540335  1
  Cl  Cl461  1  0.74424049  0.72179217  0.60760764  1
  Cl  Cl462  1  0.25539140  0.28069168  0.11326009  1
  Cl  Cl463  1  0.24594192  0.60334818  0.10530665  1
  Cl  Cl464  1  0.24586482  0.94423919  0.11490302  1
  Cl  Cl465  1  0.75424031  0.28221386  0.11627579  1
  Cl  Cl466  1  0.74857673  0.61321272  0.11593092  1
  Cl  Cl467  1  0.75119412  0.94944555  0.12401467  1
  Cl  Cl468  1  0.24656372  0.05301352  0.87926370  1
  Cl  Cl469  1  0.26058717  0.39143096  0.89668238  1
  Cl  Cl470  1  0.24950825  0.71617517  0.87942192  1
  Cl  Cl471  1  0.75055054  0.05165863  0.88395630  1
  Cl  Cl472  1  0.76114322  0.39246816  0.89417159  1
  Cl  Cl473  1  0.75263379  0.71867132  0.87578202  1
  Cl  Cl474  1  0.25843845  0.27666471  0.38347542  1
  Cl  Cl475  1  0.24883409  0.61379913  0.37764107  1
  Cl  Cl476  1  0.23877518  0.94286228  0.39208525  1
  Cl  Cl477  1  0.75510269  0.27982443  0.38168243  1
  Cl  Cl478  1  0.74508035  0.61259314  0.38997301  1
  Cl  Cl479  1  0.74753004  0.94554447  0.38558055  1
  Cl  Cl480  1  -0.00623802  0.22023567  0.61526700  1
  Cl  Cl481  1  0.00307018  0.54939865  0.62521819  1
  Cl  Cl482  1  0.01000311  0.89296402  0.60734867  1
  Cl  Cl483  1  0.49574085  0.22048816  0.61924905  1
  Cl  Cl484  1  0.50259378  0.55336576  0.61515864  1
  Cl  Cl485  1  0.50433487  0.88447263  0.61770550  1
  Cl  Cl486  1  0.00267053  0.11213806  0.12009034  1
  Cl  Cl487  1  -0.01350423  0.44431006  0.10585549  1
  Cl  Cl488  1  -0.00031880  0.77799552  0.10770362  1
  Cl  Cl489  1  0.50158022  0.11597614  0.11811029  1
  Cl  Cl490  1  0.49164374  0.44498195  0.10894717  1
  Cl  Cl491  1  0.49658499  0.77857996  0.11953019  1
  Cl  Cl492  1  -0.00422598  0.21881901  0.87717293  1
  Cl  Cl493  1  0.00610923  0.56106587  0.89961405  1
  Cl  Cl494  1  0.00500516  0.88846415  0.88292900  1
  Cl  Cl495  1  0.49415602  0.22263939  0.89050152  1
  Cl  Cl496  1  0.49918378  0.55214535  0.88391405  1
  Cl  Cl497  1  0.50293527  0.88865453  0.88316605  1
  Cl  Cl498  1  -0.00320724  0.11493208  0.38575665  1
  Cl  Cl499  1  0.00125761  0.44436836  0.37897790  1
  Cl  Cl500  1  0.00387547  0.78493337  0.37618263  1
  Cl  Cl501  1  0.50189474  0.11190084  0.38579295  1
  Cl  Cl502  1  0.49852060  0.44674719  0.38043646  1
  Cl  Cl503  1  0.50711935  0.77518514  0.39355645  1
  Cl  Cl504  1  0.36293531  0.14458648  0.75046641  1
  Cl  Cl505  1  0.36424181  0.47762206  0.75366169  1
  Cl  Cl506  1  0.36232727  0.80965527  0.74663973  1
  Cl  Cl507  1  0.86099070  0.14533535  0.74914763  1
  Cl  Cl508  1  0.85610945  0.47860948  0.75134815  1
  Cl  Cl509  1  0.86293415  0.81126801  0.75156277  1
  Cl  Cl510  1  0.13975781  0.18949260  0.24840563  1
  Cl  Cl511  1  0.13666255  0.52118923  0.24274893  1
  Cl  Cl512  1  0.13979204  0.85783343  0.24766786  1
  Cl  Cl513  1  0.63959881  0.19212151  0.24909004  1
  Cl  Cl514  1  0.63969976  0.52379844  0.24724976  1
  Cl  Cl515  1  0.63749767  0.85487516  0.25096987  1
  Cl  Cl516  1  0.13682842  0.14468050  0.74853764  1
  Cl  Cl517  1  0.14049329  0.47926219  0.75418971  1
  Cl  Cl518  1  0.13762998  0.81102719  0.75238865  1
  Cl  Cl519  1  0.63666297  0.14514685  0.74875704  1
  Cl  Cl520  1  0.63506711  0.47747920  0.75450307  1
  Cl  Cl521  1  0.63705137  0.81094342  0.74819381  1
  Cl  Cl522  1  0.36339785  0.18942420  0.24879868  1
  Cl  Cl523  1  0.36319678  0.52208630  0.24790552  1
  Cl  Cl524  1  0.36291578  0.85522574  0.25415371  1
  Cl  Cl525  1  0.86238221  0.18935440  0.24898898  1
  Cl  Cl526  1  0.85852421  0.52410240  0.24913413  1
  Cl  Cl527  1  0.86283712  0.85507531  0.25178263  1
  Cl  Cl528  1  0.11252921  0.31170716  0.75213759  1
  Cl  Cl529  1  0.10965234  0.64296963  0.75541251  1
  Cl  Cl530  1  0.11308485  0.97618910  0.74880476  1
  Cl  Cl531  1  0.61352586  0.31114398  0.75471236  1
  Cl  Cl532  1  0.61291656  0.64438538  0.75005370  1
  Cl  Cl533  1  0.61172927  0.97829454  0.74834878  1
  Cl  Cl534  1  0.39236680  0.02305975  0.25154336  1
  Cl  Cl535  1  0.39403998  0.35519555  0.24731535  1
  Cl  Cl536  1  0.38665594  0.68792321  0.24900634  1
  Cl  Cl537  1  0.88741524  0.02097519  0.25138266  1
  Cl  Cl538  1  0.88447192  0.35733047  0.25141580  1
  Cl  Cl539  1  0.88955835  0.68998986  0.25096763  1
  Cl  Cl540  1  0.39000670  0.31313079  0.75082518  1
  Cl  Cl541  1  0.38813566  0.64504321  0.74966735  1
  Cl  Cl542  1  0.38650374  0.97747200  0.74988684  1
  Cl  Cl543  1  0.88699591  0.31188915  0.75085573  1
  Cl  Cl544  1  0.88596743  0.64437395  0.74929150  1
  Cl  Cl545  1  0.88841602  0.97671640  0.75011853  1
  Cl  Cl546  1  0.10986147  0.02024923  0.24973932  1
  Cl  Cl547  1  0.10868179  0.35719093  0.24747879  1
  Cl  Cl548  1  0.11378216  0.68913666  0.24435029  1
  Cl  Cl549  1  0.61435397  0.02225947  0.24916371  1
  Cl  Cl550  1  0.61600602  0.35649545  0.24879390  1
  Cl  Cl551  1  0.60949408  0.68774276  0.25198278  1
