# generated using pymatgen
data_H8PbC4(N3Cl2)2
_symmetry_space_group_name_H-M   'P 1'
_cell_length_a   16.62861382
_cell_length_b   22.53150677
_cell_length_c   21.60054879
_cell_angle_alpha   89.99887456
_cell_angle_beta   89.98891288
_cell_angle_gamma   89.99782946
_symmetry_Int_Tables_number   1
_chemical_formula_structural   H8PbC4(N3Cl2)2
_chemical_formula_sum   'H192 Pb24 C96 N144 Cl96'
_cell_volume   8093.02831089
_cell_formula_units_Z   24
loop_
 _symmetry_equiv_pos_site_id
 _symmetry_equiv_pos_as_xyz
  1  'x, y, z'
loop_
 _atom_site_type_symbol
 _atom_site_label
 _atom_site_symmetry_multiplicity
 _atom_site_fract_x
 _atom_site_fract_y
 _atom_site_fract_z
 _atom_site_occupancy
  H  H0  1  -0.00718091  0.02108209  0.67413088  1
  H  H1  1  0.01300570  0.36394516  0.67108303  1
  H  H2  1  -0.00507929  0.69707546  0.68284566  1
  H  H3  1  0.49949275  0.02996778  0.67735646  1
  H  H4  1  0.49173984  0.36444618  0.67836933  1
  H  H5  1  0.50646423  0.69883668  0.68104370  1
  H  H6  1  -0.01630158  0.30912775  0.17736562  1
  H  H7  1  0.02284237  0.63339368  0.17314024  1
  H  H8  1  0.01002628  0.97811479  0.18238369  1
  H  H9  1  0.51465696  0.30227621  0.17807612  1
  H  H10  1  0.48943018  0.63791001  0.17744289  1
  H  H11  1  0.49957513  0.97663523  0.17620515  1
  H  H12  1  0.00777652  0.03728760  0.82627411  1
  H  H13  1  -0.01411436  0.36278598  0.82754756  1
  H  H14  1  0.02057193  0.68932815  0.82674148  1
  H  H15  1  0.50606540  0.02145786  0.82613163  1
  H  H16  1  0.50983791  0.35744819  0.82146834  1
  H  H17  1  0.48175043  0.69594002  0.82252493  1
  H  H18  1  -0.00837793  0.30978190  0.32506392  1
  H  H19  1  -0.01910151  0.63890419  0.31970031  1
  H  H20  1  -0.00820648  0.97387348  0.32680002  1
  H  H21  1  0.51221228  0.30683145  0.32392211  1
  H  H22  1  0.51335257  0.64174539  0.32038079  1
  H  H23  1  0.49960807  0.97128548  0.32308916  1
  H  H24  1  0.26162622  0.19909146  0.67969535  1
  H  H25  1  0.26206003  0.52887539  0.67877104  1
  H  H26  1  0.25524605  0.85989529  0.67370145  1
  H  H27  1  0.73713576  0.19154884  0.67596730  1
  H  H28  1  0.73010743  0.52623073  0.68136750  1
  H  H29  1  0.74634334  0.86529461  0.67946398  1
  H  H30  1  0.24825844  0.14130161  0.17213814  1
  H  H31  1  0.25072407  0.47219309  0.17318161  1
  H  H32  1  0.23904591  0.80717299  0.17739022  1
  H  H33  1  0.74319277  0.13963450  0.17272307  1
  H  H34  1  0.76474818  0.47006916  0.17381189  1
  H  H35  1  0.75426935  0.80430773  0.17426364  1
  H  H36  1  0.23385280  0.19102287  0.82334315  1
  H  H37  1  0.24515492  0.52575377  0.82282738  1
  H  H38  1  0.22662453  0.86376184  0.82234714  1
  H  H39  1  0.74313826  0.18724472  0.82472393  1
  H  H40  1  0.74815562  0.52401525  0.82435733  1
  H  H41  1  0.76876461  0.86137484  0.82397561  1
  H  H42  1  0.25621923  0.13468968  0.32580085  1
  H  H43  1  0.24228970  0.47201210  0.32355006  1
  H  H44  1  0.25150456  0.80556999  0.31736728  1
  H  H45  1  0.74882062  0.13556697  0.32240169  1
  H  H46  1  0.74297879  0.46465996  0.32444668  1
  H  H47  1  0.76422508  0.81079304  0.32557448  1
  H  H48  1  0.13274399  0.04684154  0.62389597  1
  H  H49  1  0.11468688  0.39365704  0.58708805  1
  H  H50  1  0.13200362  0.71685055  0.62784677  1
  H  H51  1  0.63585994  0.05212729  0.61897827  1
  H  H52  1  0.60510100  0.39165361  0.59938834  1
  H  H53  1  0.63218882  0.72353668  0.61204191  1
  H  H54  1  0.37772837  0.28481001  0.12503778  1
  H  H55  1  0.38603507  0.61118442  0.09276431  1
  H  H56  1  0.37487340  0.94505789  0.10773045  1
  H  H57  1  0.86233217  0.28169450  0.10526713  1
  H  H58  1  0.88394245  0.61611730  0.12215490  1
  H  H59  1  0.87935045  0.95159233  0.12073114  1
  H  H60  1  0.36847712  0.04872547  0.87975508  1
  H  H61  1  0.38856425  0.38861038  0.89317649  1
  H  H62  1  0.37828667  0.72615085  0.90930251  1
  H  H63  1  0.86681181  0.05194848  0.87556095  1
  H  H64  1  0.88306321  0.39042969  0.91174706  1
  H  H65  1  0.87392070  0.71073310  0.86639267  1
  H  H66  1  0.12258011  0.28279917  0.38743666  1
  H  H67  1  0.12332459  0.61618586  0.37028599  1
  H  H68  1  0.13127676  0.95352732  0.37945935  1
  H  H69  1  0.61024497  0.27175495  0.41034568  1
  H  H70  1  0.62761942  0.61566393  0.40023208  1
  H  H71  1  0.63703656  0.94939378  0.37995822  1
  H  H72  1  0.38505803  0.22222804  0.60564372  1
  H  H73  1  0.36733045  0.56140056  0.59745015  1
  H  H74  1  0.36215757  0.88889307  0.58991375  1
  H  H75  1  0.87870895  0.21664340  0.62789256  1
  H  H76  1  0.86481248  0.55094321  0.62361730  1
  H  H77  1  0.86602005  0.89473783  0.60698374  1
  H  H78  1  0.13540110  0.10717446  0.09700085  1
  H  H79  1  0.11516380  0.45107601  0.11314979  1
  H  H80  1  0.13338341  0.77233432  0.09571529  1
  H  H81  1  0.63475293  0.11184082  0.09225164  1
  H  H82  1  0.62290395  0.45148168  0.12879520  1
  H  H83  1  0.62677779  0.77876707  0.10745232  1
  H  H84  1  0.12824784  0.22380148  0.90603343  1
  H  H85  1  0.11413167  0.54784325  0.88660055  1
  H  H86  1  0.13093504  0.89531341  0.91027322  1
  H  H87  1  0.62911191  0.22129129  0.89934733  1
  H  H88  1  0.62092503  0.55334871  0.89052607  1
  H  H89  1  0.62294630  0.88047156  0.86363225  1
  H  H90  1  0.36500012  0.10850646  0.40831658  1
  H  H91  1  0.38104265  0.44995981  0.38004949  1
  H  H92  1  0.37017606  0.78116298  0.39273173  1
  H  H93  1  0.86538866  0.10837171  0.39904570  1
  H  H94  1  0.87900656  0.44495713  0.38269035  1
  H  H95  1  0.86382336  0.77371291  0.40977755  1
  H  H96  1  0.36828601  0.28853151  0.37152719  1
  H  H97  1  0.38040247  0.61233326  0.37733501  1
  H  H98  1  0.39059739  0.94443837  0.40471392  1
  H  H99  1  0.87418019  0.27705656  0.39709958  1
  H  H100  1  0.87917996  0.60545699  0.40419248  1
  H  H101  1  0.88647368  0.93968754  0.40853547  1
  H  H102  1  0.11035968  0.06277399  0.91115501  1
  H  H103  1  0.12575307  0.38176091  0.87524071  1
  H  H104  1  0.11251496  0.72408094  0.91685912  1
  H  H105  1  0.61419850  0.06089882  0.90263569  1
  H  H106  1  0.63787994  0.38137106  0.88897769  1
  H  H107  1  0.62183679  0.72065052  0.87495440  1
  H  H108  1  0.11141086  0.28054106  0.11030298  1
  H  H109  1  0.12807008  0.60812980  0.09022229  1
  H  H110  1  0.12822026  0.94936188  0.10718262  1
  H  H111  1  0.62260748  0.27533045  0.09671302  1
  H  H112  1  0.63100182  0.61352517  0.12758351  1
  H  H113  1  0.62301079  0.94914342  0.10445376  1
  H  H114  1  0.38865912  0.05692729  0.59720033  1
  H  H115  1  0.35688462  0.38594328  0.61796976  1
  H  H116  1  0.38332822  0.72429621  0.60937288  1
  H  H117  1  0.88762377  0.05821298  0.59325258  1
  H  H118  1  0.87255083  0.38094640  0.62366524  1
  H  H119  1  0.88525155  0.72499769  0.60306796  1
  H  H120  1  0.11906521  0.11261874  0.38224472  1
  H  H121  1  0.13560145  0.43949218  0.40593438  1
  H  H122  1  0.12164890  0.77855779  0.38196589  1
  H  H123  1  0.61718806  0.11267031  0.38754283  1
  H  H124  1  0.63149087  0.43833445  0.40523166  1
  H  H125  1  0.62114577  0.79036684  0.37212171  1
  H  H126  1  0.37278081  0.21573787  0.87712223  1
  H  H127  1  0.36325791  0.55575966  0.89370596  1
  H  H128  1  0.37260653  0.88558040  0.86644231  1
  H  H129  1  0.87693768  0.21555052  0.88422227  1
  H  H130  1  0.86958863  0.54890637  0.89683843  1
  H  H131  1  0.86233098  0.89578044  0.91180259  1
  H  H132  1  0.38291706  0.11721479  0.11314927  1
  H  H133  1  0.36368289  0.44210824  0.09516259  1
  H  H134  1  0.37860027  0.78322644  0.12584386  1
  H  H135  1  0.88057632  0.11916563  0.11994884  1
  H  H136  1  0.86466243  0.44337498  0.08679239  1
  H  H137  1  0.87578982  0.77493703  0.10443382  1
  H  H138  1  0.13687131  0.22499014  0.60877879  1
  H  H139  1  0.12256926  0.54356207  0.62645129  1
  H  H140  1  0.11717506  0.88852521  0.62181743  1
  H  H141  1  0.63720458  0.22629259  0.58960257  1
  H  H142  1  0.61734043  0.55347692  0.60089228  1
  H  H143  1  0.61785825  0.88836559  0.61026597  1
  H  H144  1  0.35143444  0.08507121  0.00566896  1
  H  H145  1  0.38162168  0.24882390  0.47702887  1
  H  H146  1  0.68606530  0.56853900  0.49700881  1
  H  H147  1  0.62995754  0.75487146  0.48452263  1
  H  H148  1  0.11079696  0.74563020  0.51399647  1
  H  H149  1  0.20938930  0.74324294  -0.00284025  1
  H  H150  1  0.29673286  0.41618435  -0.00777654  1
  H  H151  1  0.46048581  0.58210073  -0.01022459  1
  H  H152  1  0.35686803  0.41975009  0.48875933  1
  H  H153  1  0.92790939  0.24336740  0.50307749  1
  H  H154  1  0.88122810  0.41354876  0.50754016  1
  H  H155  1  0.02216234  0.74759972  1.01131730  1
  H  H156  1  0.29530863  0.59094950  0.49329459  1
  H  H157  1  0.55917169  0.60109004  0.50435328  1
  H  H158  1  0.95065354  0.75415174  0.49722170  1
  H  H159  1  0.29137396  0.07046832  0.50346082  1
  H  H160  1  0.66155459  0.91691418  0.50651188  1
  H  H161  1  0.13813499  0.57545603  0.51255039  1
  H  H162  1  0.31331072  0.74742110  0.49802370  1
  H  H163  1  0.28720709  0.92855692  0.49732549  1
  H  H164  1  0.62948671  0.41678698  1.01370824  1
  H  H165  1  0.08409785  0.25522908  0.49430517  1
  H  H166  1  0.78409081  0.75326571  0.50830386  1
  H  H167  1  0.06758330  0.93054402  0.00213655  1
  H  H168  1  0.81990118  0.58180075  1.00330599  1
  H  H169  1  0.36355455  0.91019896  0.97698109  1
  H  H170  1  0.11572027  0.41524327  -0.00905188  1
  H  H171  1  0.66976790  0.75210876  0.00117444  1
  H  H172  1  0.13819847  0.91178995  0.51002349  1
  H  H173  1  0.83574223  0.58827511  0.51341591  1
  H  H174  1  0.86913848  0.07920394  -0.00065223  1
  H  H175  1  0.65655580  0.08523181  0.49340432  1
  H  H176  1  0.91559786  0.91913151  0.00951284  1
  H  H177  1  0.72052977  0.25094384  0.49279224  1
  H  H178  1  0.30831475  0.59052887  1.00263152  1
  H  H179  1  0.20400634  0.25099580  1.00425854  1
  H  H180  1  0.77798204  0.92744035  1.00970441  1
  H  H181  1  0.91547697  0.24866912  -0.00078868  1
  H  H182  1  0.70048041  0.41056510  0.50700711  1
  H  H183  1  0.52585420  0.25273348  0.50748911  1
  H  H184  1  0.95808140  0.57257307  0.50356241  1
  H  H185  1  0.61321739  0.58512542  0.01845798  1
  H  H186  1  0.41293544  0.57268482  0.48720941  1
  H  H187  1  0.14302112  0.08984995  0.49334629  1
  H  H188  1  0.21366591  0.92480700  1.00935305  1
  H  H189  1  0.62282705  0.91341081  -0.02288632  1
  H  H190  1  0.82983201  0.74508269  -0.00471187  1
  H  H191  1  0.39615320  0.25336110  1.00960032  1
  Pb  Pb192  1  0.24744440  0.05101796  0.75214680  1
  Pb  Pb193  1  0.24907007  0.38368397  0.75278773  1
  Pb  Pb194  1  0.24474244  0.71752256  0.76043080  1
  Pb  Pb195  1  0.74953904  0.04889089  0.74658399  1
  Pb  Pb196  1  0.74345821  0.38261910  0.74770231  1
  Pb  Pb197  1  0.74889417  0.71797743  0.74353822  1
  Pb  Pb198  1  0.24168368  0.28192882  0.24156965  1
  Pb  Pb199  1  0.25332346  0.61873671  0.24224012  1
  Pb  Pb200  1  0.25208882  0.95004876  0.25402799  1
  Pb  Pb201  1  0.74924267  0.28235999  0.25467327  1
  Pb  Pb202  1  0.74654029  0.61331090  0.25982544  1
  Pb  Pb203  1  0.75297185  0.95249660  0.25352323  1
  Pb  Pb204  1  -0.00129646  0.21878667  0.75051519  1
  Pb  Pb205  1  -0.00565211  0.54796238  0.74843128  1
  Pb  Pb206  1  -0.00454919  0.88583891  0.76622409  1
  Pb  Pb207  1  0.50024798  0.21492756  0.74538054  1
  Pb  Pb208  1  0.49468755  0.55244499  0.74533010  1
  Pb  Pb209  1  0.49448439  0.88298137  0.73587762  1
  Pb  Pb210  1  0.00146128  0.11795933  0.24964147  1
  Pb  Pb211  1  0.00063011  0.45174584  0.24999153  1
  Pb  Pb212  1  -0.00605075  0.77950443  0.24896986  1
  Pb  Pb213  1  0.49915634  0.11767790  0.25109620  1
  Pb  Pb214  1  0.49416596  0.44728332  0.24878268  1
  Pb  Pb215  1  0.50191884  0.78623478  0.25164843  1
  C  C216  1  0.00453629  0.04157935  0.62980332  1
  C  C217  1  -0.00103945  0.37944882  0.62484426  1
  C  C218  1  0.00451464  0.71224985  0.63569302  1
  C  C219  1  0.50847291  0.04628631  0.63089677  1
  C  C220  1  0.48460793  0.38064263  0.63157439  1
  C  C221  1  0.50721107  0.71471069  0.63380683  1
  C  C222  1  -0.01399162  0.29168969  0.13058567  1
  C  C223  1  0.01110411  0.61905435  0.12618364  1
  C  C224  1  0.00629613  0.96074840  0.13545623  1
  C  C225  1  0.50385916  0.28777663  0.13097488  1
  C  C226  1  0.50299442  0.62141597  0.13125712  1
  C  C227  1  0.49915722  0.95818266  0.12978520  1
  C  C228  1  -0.00570049  0.05061073  0.87337638  1
  C  C229  1  -0.00068840  0.37829153  0.87388831  1
  C  C230  1  0.00237581  0.70642499  0.87159855  1
  C  C231  1  0.49575207  0.04199995  0.87053654  1
  C  C232  1  0.51187345  0.37455960  0.86813206  1
  C  C233  1  0.49361920  0.71300252  0.86864676  1
  C  C234  1  -0.00341799  0.29068533  0.37109445  1
  C  C235  1  -0.00511655  0.62087075  0.36509881  1
  C  C236  1  0.00340882  0.95585157  0.37226619  1
  C  C237  1  0.49660686  0.28989052  0.36957456  1
  C  C238  1  0.50763108  0.62520511  0.36746026  1
  C  C239  1  0.50953046  0.95562181  0.36968735  1
  C  C240  1  0.26137356  0.21390173  0.63185665  1
  C  C241  1  0.25012787  0.54415339  0.63196125  1
  C  C242  1  0.24452922  0.87783923  0.62763252  1
  C  C243  1  0.75078466  0.20959718  0.63071966  1
  C  C244  1  0.73696907  0.54194844  0.63399350  1
  C  C245  1  0.74287534  0.88143821  0.63230817  1
  C  C246  1  0.25610742  0.12327233  0.12603900  1
  C  C247  1  0.24361041  0.45575921  0.12624701  1
  C  C248  1  0.25026099  0.78934080  0.13172980  1
  C  C249  1  0.75339769  0.12394094  0.12593295  1
  C  C250  1  0.74952916  0.45491413  0.12765370  1
  C  C251  1  0.75188637  0.78686863  0.12735393  1
  C  C252  1  0.24483692  0.20897054  0.86916881  1
  C  C253  1  0.24120283  0.54305737  0.86946415  1
  C  C254  1  0.24447392  0.87942126  0.86806075  1
  C  C255  1  0.75009685  0.20706718  0.86992830  1
  C  C256  1  0.74590910  0.54143296  0.87118240  1
  C  C257  1  0.75056303  0.87855417  0.86890476  1
  C  C258  1  0.24651448  0.11925802  0.37293119  1
  C  C259  1  0.25345173  0.45498380  0.36972388  1
  C  C260  1  0.24741992  0.78933767  0.36459763  1
  C  C261  1  0.74335683  0.11940534  0.36947902  1
  C  C262  1  0.75078578  0.44968613  0.37177204  1
  C  C263  1  0.74958921  0.79306231  0.37104217  1
  C  C264  1  0.23680910  0.91078349  0.96451569  1
  C  C265  1  0.45467945  0.59109784  0.45362473  1
  C  C266  1  0.27741943  0.75961373  0.45783346  1
  C  C267  1  0.94871419  0.59374288  0.04069161  1
  C  C268  1  0.98380056  0.58740362  0.45967666  1
  C  C269  1  0.98408628  0.40860804  0.97007383  1
  C  C270  1  0.95695584  0.92976666  0.04686781  1
  C  C271  1  0.26716502  0.57528006  0.53567496  1
  C  C272  1  0.02868654  0.59068697  0.03006893  1
  C  C273  1  0.95295614  0.26060459  0.03848065  1
  C  C274  1  0.68184404  0.42686408  0.04376486  1
  C  C275  1  0.76150922  0.42502976  0.03091331  1
  C  C276  1  0.06147001  0.92467085  0.45687879  1
  C  C277  1  0.27283253  0.57649518  0.96297594  1
  C  C278  1  0.48963042  0.92492759  0.46475656  1
  C  C279  1  0.44427152  0.26217724  0.04276401  1
  C  C280  1  0.51518546  0.08120575  0.96227347  1
  C  C281  1  0.96359002  0.25636821  0.46324363  1
  C  C282  1  0.55314441  0.40359597  0.95911898  1
  C  C283  1  0.98212645  0.74123530  0.53925130  1
  C  C284  1  0.54656580  0.74186098  0.54127840  1
  C  C285  1  0.00893937  0.07696016  0.97047288  1
  C  C286  1  0.67618445  0.90532358  0.94904879  1
  C  C287  1  0.22848702  0.08623857  0.03314893  1
  C  C288  1  0.92901414  0.07293637  0.95927041  1
  C  C289  1  0.81287824  0.09586173  0.03945749  1
  C  C290  1  0.78992158  0.75624073  0.03472676  1
  C  C291  1  0.92650589  0.73530989  0.95027830  1
  C  C292  1  0.06309075  0.07615846  0.54679273  1
  C  C293  1  0.78020194  0.57093382  0.96384839  1
  C  C294  1  0.06420950  0.40598650  0.95924730  1
  C  C295  1  0.73232306  0.09370897  0.03085809  1
  C  C296  1  0.01317402  0.41008673  0.52857429  1
  C  C297  1  0.72433273  0.24444155  0.96142646  1
  C  C298  1  0.19141169  0.57322918  0.95891469  1
  C  C299  1  0.31354635  0.75522691  0.04851036  1
  C  C300  1  0.75500114  0.91153114  0.96561492  1
  C  C301  1  0.80888328  0.42395445  0.46029173  1
  C  C302  1  0.93307124  0.40575216  0.53942432  1
  C  C303  1  0.68137502  0.76302225  0.45260175  1
  C  C304  1  0.48710105  0.59230678  0.03463171  1
  C  C305  1  0.79186139  0.57363581  0.54763954  1
  C  C306  1  0.48656547  0.07857075  0.53659518  1
  C  C307  1  0.06339091  0.73741424  0.54768368  1
  C  C308  1  0.18673767  0.56817345  0.54551367  1
  C  C309  1  0.43446699  0.40725033  0.54233412  1
  C  C310  1  0.52506773  0.25917137  0.03470843  1
  C  C311  1  0.18758999  0.42684045  0.03813069  1
  N  N312  1  0.70186709  0.90884345  0.54237790  1
  N  N313  1  0.53372806  0.59487376  0.46149884  1
  N  N314  1  0.18539998  0.91059298  0.54499904  1
  N  N315  1  0.03219614  0.25914116  0.04018196  1
  N  N316  1  0.26627502  0.42344668  0.03309452  1
  N  N317  1  0.30687959  0.09127121  0.03935705  1
  N  N318  1  0.56665407  0.92684503  0.45767096  1
  N  N319  1  0.98502511  0.91941585  0.46711693  1
  N  N320  1  0.56365987  0.07665149  0.54275354  1
  N  N321  1  0.29855947  0.23749267  0.53734191  1
  N  N322  1  0.26677465  0.09683639  0.46927480  1
  N  N323  1  0.23200617  0.42317048  0.46485686  1
  N  N324  1  0.26214009  0.90248476  0.53160312  1
  N  N325  1  0.77998347  0.91087494  0.53913226  1
  N  N326  1  0.50600566  0.25192696  0.46157359  1
  N  N327  1  0.22971779  0.24368170  0.96128983  1
  N  N328  1  0.69825442  0.09222184  0.45821793  1
  N  N329  1  0.47941367  0.74524462  0.96449139  1
  N  N330  1  0.00260930  0.74022957  0.96591390  1
  N  N331  1  0.75934329  0.75740282  0.46456567  1
  N  N332  1  0.43823393  0.07668383  0.95610633  1
  N  N333  1  0.30896980  0.42693066  0.45501531  1
  N  N334  1  0.42977366  0.26580671  0.45159788  1
  N  N335  1  0.71283164  0.57165433  0.53969598  1
  N  N336  1  0.81862577  0.24003504  0.54901776  1
  N  N337  1  0.80150538  0.24246786  0.95770376  1
  N  N338  1  0.03654130  0.92963251  0.04306817  1
  N  N339  1  0.53582241  0.92633398  0.03787318  1
  N  N340  1  0.04308621  0.25795873  0.45897109  1
  N  N341  1  0.55454026  0.74304361  0.95380385  1
  N  N342  1  0.74217636  0.24361686  0.53774330  1
  N  N343  1  0.56478882  0.59183182  0.04803547  1
  N  N344  1  0.73032190  0.42129114  0.46659604  1
  N  N345  1  0.77609806  0.09088005  0.46387632  1
  N  N346  1  0.45967026  0.92434324  0.03907391  1
  N  N347  1  0.31358880  0.90613136  0.94887280  1
  N  N348  1  0.23573187  0.75314537  0.03925569  1
  N  N349  1  0.46907766  0.74165010  0.53873582  1
  N  N350  1  0.22160781  0.23992926  0.53845079  1
  N  N351  1  0.19821207  0.75938551  0.45492550  1
  N  N352  1  0.30684982  0.23994707  0.95318665  1
  N  N353  1  0.70087245  0.57306784  0.96233461  1
  N  N354  1  0.06127242  0.59076409  0.44830420  1
  N  N355  1  0.47580651  0.40700246  0.96160468  1
  N  N356  1  0.51180846  0.41009808  0.53528294  1
  N  N357  1  0.18925369  0.09036842  0.45776518  1
  N  N358  1  0.71020021  0.75686912  0.03706430  1
  N  N359  1  0.98678764  0.08052528  0.53592997  1
  N  N360  1  0.07674976  0.05348805  0.60460322  1
  N  N361  1  0.05273442  0.39419511  0.57989689  1
  N  N362  1  0.07569694  0.71965874  0.60760520  1
  N  N363  1  0.57743951  0.05627609  0.60267174  1
  N  N364  1  0.54261752  0.39327839  0.59214235  1
  N  N365  1  0.57255285  0.72578672  0.59880272  1
  N  N366  1  0.43265429  0.27995946  0.10383162  1
  N  N367  1  0.44825015  0.60981639  0.08650379  1
  N  N368  1  0.43545447  0.94375692  0.09614592  1
  N  N369  1  0.92314079  0.28035526  0.09361976  1
  N  N370  1  0.93856849  0.61063767  0.09959637  1
  N  N371  1  0.93795023  0.94714646  0.10474738  1
  N  N372  1  0.42595124  0.05209766  0.89761009  1
  N  N373  1  0.45014580  0.38806111  0.90372581  1
  N  N374  1  0.44030105  0.72641409  0.91207778  1
  N  N375  1  0.92120704  0.05681466  0.89829237  1
  N  N376  1  0.94500397  0.39182799  0.91883919  1
  N  N377  1  0.92623893  0.71632921  0.89120985  1
  N  N378  1  0.06306459  0.28143623  0.40301765  1
  N  N379  1  0.06668138  0.61101282  0.38927130  1
  N  N380  1  0.07548817  0.94607493  0.39857169  1
  N  N381  1  0.54789137  0.27680042  0.41464150  1
  N  N382  1  0.56593557  0.61954432  0.40882373  1
  N  N383  1  0.57906212  0.94620793  0.39726128  1
  N  N384  1  0.32429821  0.22112333  0.59505286  1
  N  N385  1  0.30557640  0.56008032  0.59000039  1
  N  N386  1  0.29969503  0.89176824  0.58578473  1
  N  N387  1  0.82319298  0.22081994  0.60766519  1
  N  N388  1  0.80691456  0.55649137  0.60624196  1
  N  N389  1  0.80512500  0.89440455  0.59570239  1
  N  N390  1  0.19680867  0.10582214  0.08676019  1
  N  N391  1  0.17323873  0.44566943  0.09637890  1
  N  N392  1  0.19548650  0.77624232  0.08941934  1
  N  N393  1  0.69646244  0.11072612  0.08343932  1
  N  N394  1  0.67607261  0.44558544  0.10512003  1
  N  N395  1  0.68709774  0.77748038  0.09345805  1
  N  N396  1  0.19045412  0.22198022  0.91170247  1
  N  N397  1  0.17293487  0.55328602  0.90226539  1
  N  N398  1  0.19351108  0.89462405  0.91423417  1
  N  N399  1  0.69043791  0.22337945  0.90878995  1
  N  N400  1  0.68100025  0.55437253  0.90387912  1
  N  N401  1  0.67514560  0.88529276  0.88917268  1
  N  N402  1  0.30280869  0.10504759  0.41384433  1
  N  N403  1  0.32323277  0.44689661  0.39757235  1
  N  N404  1  0.30891121  0.77805745  0.40291386  1
  N  N405  1  0.80383825  0.10707616  0.40795752  1
  N  N406  1  0.82192703  0.44089985  0.40119543  1
  N  N407  1  0.80162262  0.77971334  0.41535553  1
  N  N408  1  0.42372300  0.27991105  0.39159064  1
  N  N409  1  0.43849579  0.60872332  0.39533977  1
  N  N410  1  0.45250113  0.94234264  0.41199782  1
  N  N411  1  0.93457025  0.27513604  0.40814012  1
  N  N412  1  0.94141170  0.60580397  0.40897531  1
  N  N413  1  0.94908748  0.93979363  0.41344357  1
  N  N414  1  0.04831755  0.06339078  0.91829505  1
  N  N415  1  0.07200168  0.38717485  0.89802714  1
  N  N416  1  0.05026755  0.71899933  0.91857438  1
  N  N417  1  0.55240309  0.06063056  0.91090814  1
  N  N418  1  0.57803167  0.38466671  0.90242354  1
  N  N419  1  0.56458639  0.72336745  0.89412275  1
  N  N420  1  0.05080729  0.27865542  0.09765241  1
  N  N421  1  0.06652111  0.60619143  0.08246507  1
  N  N422  1  0.06672295  0.95188714  0.09677156  1
  N  N423  1  0.56084207  0.27453511  0.08777532  1
  N  N424  1  0.57433299  0.61055633  0.10723105  1
  N  N425  1  0.56195224  0.94740551  0.09376480  1
  N  N426  1  0.45050044  0.06035227  0.58959598  1
  N  N427  1  0.41523916  0.38987041  0.60115348  1
  N  N428  1  0.44448892  0.72460465  0.59787163  1
  N  N429  1  0.95033826  0.05816756  0.58865845  1
  N  N430  1  0.92596028  0.38693802  0.60068914  1
  N  N431  1  0.94682426  0.72533794  0.59450562  1
  N  N432  1  0.17638263  0.11253146  0.40114423  1
  N  N433  1  0.19781202  0.44024913  0.41152693  1
  N  N434  1  0.18103629  0.77800000  0.39631737  1
  N  N435  1  0.67679249  0.11021519  0.40145896  1
  N  N436  1  0.69371736  0.43787516  0.41229021  1
  N  N437  1  0.67568164  0.78297005  0.39385627  1
  N  N438  1  0.31566534  0.22086960  0.89495813  1
  N  N439  1  0.30290758  0.55753995  0.90612740  1
  N  N440  1  0.31804965  0.88460694  0.89025786  1
  N  N441  1  0.81780479  0.21869168  0.89939068  1
  N  N442  1  0.80880770  0.55208862  0.90823531  1
  N  N443  1  0.80033828  0.89455367  0.91510036  1
  N  N444  1  0.32451193  0.11507607  0.09629111  1
  N  N445  1  0.30159004  0.44355095  0.08653167  1
  N  N446  1  0.32271216  0.77699766  0.10602993  1
  N  N447  1  0.82481393  0.11455609  0.09917766  1
  N  N448  1  0.80242631  0.44184889  0.08130362  1
  N  N449  1  0.81580625  0.77373612  0.09142339  1
  N  N450  1  0.19778133  0.22541494  0.59685121  1
  N  N451  1  0.17766962  0.54926376  0.60528332  1
  N  N452  1  0.17369325  0.88715221  0.60133173  1
  N  N453  1  0.69944521  0.22282144  0.58603008  1
  N  N454  1  0.67912551  0.54881540  0.59243587  1
  N  N455  1  0.67794342  0.88978456  0.59818997  1
  Cl  Cl456  1  0.26586045  0.04996791  0.60764628  1
  Cl  Cl457  1  0.23320976  0.38831218  0.62152624  1
  Cl  Cl458  1  0.26109663  0.72711392  0.62743070  1
  Cl  Cl459  1  0.76383413  0.05743225  0.61384680  1
  Cl  Cl460  1  0.72680974  0.39086602  0.60665264  1
  Cl  Cl461  1  0.76059573  0.72774283  0.60543270  1
  Cl  Cl462  1  0.23512825  0.27327776  0.10497295  1
  Cl  Cl463  1  0.26013040  0.61129987  0.10685502  1
  Cl  Cl464  1  0.24946873  0.94347024  0.11338281  1
  Cl  Cl465  1  0.74166298  0.27682384  0.12291645  1
  Cl  Cl466  1  0.75538321  0.61212207  0.12732959  1
  Cl  Cl467  1  0.74995405  0.94712472  0.11879364  1
  Cl  Cl468  1  0.23485368  0.05750722  0.88681221  1
  Cl  Cl469  1  0.26771131  0.39468516  0.88992955  1
  Cl  Cl470  1  0.23793997  0.72743103  0.90202279  1
  Cl  Cl471  1  0.73392609  0.06031484  0.87723651  1
  Cl  Cl472  1  0.76252484  0.38565864  0.88030414  1
  Cl  Cl473  1  0.74569746  0.72577559  0.87717969  1
  Cl  Cl474  1  0.24399938  0.28383564  0.37393896  1
  Cl  Cl475  1  0.25660508  0.61272962  0.37495326  1
  Cl  Cl476  1  0.26733801  0.94929252  0.39366953  1
  Cl  Cl477  1  0.73288405  0.27047056  0.40009851  1
  Cl  Cl478  1  0.75079237  0.60349791  0.40161175  1
  Cl  Cl479  1  0.76458815  0.94086237  0.38605484  1
  Cl  Cl480  1  0.01369558  0.22818042  0.61445863  1
  Cl  Cl481  1  -0.01040720  0.55478348  0.61396252  1
  Cl  Cl482  1  -0.00972995  0.89557761  0.63346821  1
  Cl  Cl483  1  0.51386919  0.23133395  0.60108968  1
  Cl  Cl484  1  0.49558232  0.56663382  0.60322732  1
  Cl  Cl485  1  0.48693575  0.89073380  0.60052679  1
  Cl  Cl486  1  0.01408887  0.10813447  0.11788282  1
  Cl  Cl487  1  -0.01251822  0.44813819  0.11646855  1
  Cl  Cl488  1  0.01030312  0.76983147  0.10269794  1
  Cl  Cl489  1  0.51034042  0.11129926  0.11726857  1
  Cl  Cl490  1  0.48373385  0.44729730  0.11811998  1
  Cl  Cl491  1  0.50615362  0.77913561  0.12070727  1
  Cl  Cl492  1  0.00611349  0.22417141  0.88360819  1
  Cl  Cl493  1  -0.00945292  0.54880330  0.87913150  1
  Cl  Cl494  1  0.00262878  0.89544141  0.90432693  1
  Cl  Cl495  1  0.50560320  0.22047355  0.87682470  1
  Cl  Cl496  1  0.49230792  0.55905341  0.88091998  1
  Cl  Cl497  1  0.49546280  0.89595487  0.86677564  1
  Cl  Cl498  1  -0.00897506  0.11205114  0.38143604  1
  Cl  Cl499  1  0.01079083  0.43924455  0.38473841  1
  Cl  Cl500  1  -0.01628206  0.77076243  0.38312276  1
  Cl  Cl501  1  0.48873502  0.11230389  0.38677912  1
  Cl  Cl502  1  0.50920338  0.44544400  0.38347596  1
  Cl  Cl503  1  0.49309161  0.78398301  0.38273383  1
  Cl  Cl504  1  0.36732205  0.14599466  0.76080850  1
  Cl  Cl505  1  0.36040265  0.48469704  0.74726519  1
  Cl  Cl506  1  0.36007256  0.81581485  0.75520279  1
  Cl  Cl507  1  0.86255335  0.15015829  0.75155223  1
  Cl  Cl508  1  0.85667395  0.48240017  0.73933358  1
  Cl  Cl509  1  0.85549414  0.82132239  0.74998039  1
  Cl  Cl510  1  0.14361714  0.18180833  0.25674968  1
  Cl  Cl511  1  0.14296521  0.51665068  0.24871708  1
  Cl  Cl512  1  0.13857244  0.85242725  0.25141903  1
  Cl  Cl513  1  0.63979240  0.18130327  0.25527428  1
  Cl  Cl514  1  0.63991492  0.52064326  0.24395834  1
  Cl  Cl515  1  0.64034685  0.85215817  0.25510028  1
  Cl  Cl516  1  0.14744274  0.15026009  0.73832035  1
  Cl  Cl517  1  0.13581770  0.48368974  0.74985880  1
  Cl  Cl518  1  0.13928098  0.81245795  0.74680730  1
  Cl  Cl519  1  0.63685550  0.14785265  0.74057303  1
  Cl  Cl520  1  0.63856595  0.47890642  0.76047551  1
  Cl  Cl521  1  0.63025437  0.81263844  0.75034747  1
  Cl  Cl522  1  0.36102215  0.18498749  0.24561558  1
  Cl  Cl523  1  0.36193733  0.51657229  0.25586218  1
  Cl  Cl524  1  0.35949419  0.84787618  0.24314156  1
  Cl  Cl525  1  0.86034404  0.18148551  0.24671469  1
  Cl  Cl526  1  0.85902839  0.51392834  0.26180801  1
  Cl  Cl527  1  0.85943749  0.84776385  0.24235558  1
  Cl  Cl528  1  0.11324057  0.31770866  0.75980033  1
  Cl  Cl529  1  0.11132615  0.64689927  0.74801147  1
  Cl  Cl530  1  0.11634463  0.97960817  0.74725452  1
  Cl  Cl531  1  0.60560524  0.31863964  0.74195033  1
  Cl  Cl532  1  0.62061711  0.64380583  0.74799671  1
  Cl  Cl533  1  0.61311623  0.97969396  0.73884472  1
  Cl  Cl534  1  0.38980741  0.01547004  0.24598783  1
  Cl  Cl535  1  0.39074317  0.35019005  0.24954322  1
  Cl  Cl536  1  0.39554010  0.68219907  0.25065247  1
  Cl  Cl537  1  0.89692908  0.01351463  0.24786117  1
  Cl  Cl538  1  0.88426301  0.35254656  0.25977929  1
  Cl  Cl539  1  0.89493454  0.68161145  0.23905108  1
  Cl  Cl540  1  0.38396341  0.31279131  0.75073104  1
  Cl  Cl541  1  0.39588850  0.65087134  0.74703160  1
  Cl  Cl542  1  0.38478077  0.98213985  0.75158998  1
  Cl  Cl543  1  0.89290558  0.31444332  0.73867125  1
  Cl  Cl544  1  0.88728467  0.65168951  0.75222834  1
  Cl  Cl545  1  0.89370199  0.98445882  0.76317913  1
  Cl  Cl546  1  0.12051787  0.02145062  0.26527514  1
  Cl  Cl547  1  0.10382275  0.34630030  0.23944263  1
  Cl  Cl548  1  0.11592444  0.68582279  0.25758427  1
  Cl  Cl549  1  0.61229641  0.01710113  0.25779442  1
  Cl  Cl550  1  0.61323516  0.35070165  0.25133294  1
  Cl  Cl551  1  0.61753748  0.68688660  0.24886508  1
