# generated using pymatgen
data_H8PbC4(N3Cl2)2
_symmetry_space_group_name_H-M   'P 1'
_cell_length_a   16.62737837
_cell_length_b   22.51993302
_cell_length_c   21.59658073
_cell_angle_alpha   89.99802113
_cell_angle_beta   90.06776264
_cell_angle_gamma   89.99045648
_symmetry_Int_Tables_number   1
_chemical_formula_structural   H8PbC4(N3Cl2)2
_chemical_formula_sum   'H192 Pb24 C96 N144 Cl96'
_cell_volume   8086.77875027
_cell_formula_units_Z   24
loop_
 _symmetry_equiv_pos_site_id
 _symmetry_equiv_pos_as_xyz
  1  'x, y, z'
loop_
 _atom_site_type_symbol
 _atom_site_label
 _atom_site_symmetry_multiplicity
 _atom_site_fract_x
 _atom_site_fract_y
 _atom_site_fract_z
 _atom_site_occupancy
  H  H0  1  0.00941420  0.03239261  0.67577360  1
  H  H1  1  0.01733080  0.35750139  0.67707037  1
  H  H2  1  0.00202566  0.69636121  0.67491497  1
  H  H3  1  0.49872658  0.02744551  0.67961548  1
  H  H4  1  0.49246431  0.35808147  0.67771640  1
  H  H5  1  0.50555206  0.69558843  0.68372348  1
  H  H6  1  0.00710191  0.30341142  0.17434919  1
  H  H7  1  0.00652558  0.63862230  0.18026683  1
  H  H8  1  0.01407991  0.96915416  0.18062692  1
  H  H9  1  0.49130210  0.30342295  0.18037086  1
  H  H10  1  0.50802493  0.64052926  0.18121065  1
  H  H11  1  0.49154007  0.96572204  0.18553061  1
  H  H12  1  0.01023202  0.03074682  0.82098326  1
  H  H13  1  -0.00921168  0.36440927  0.82485296  1
  H  H14  1  0.00727129  0.69664932  0.81805570  1
  H  H15  1  0.48671812  0.03211639  0.82223874  1
  H  H16  1  0.50033101  0.36107886  0.82348052  1
  H  H17  1  0.50045130  0.69205692  0.82851541  1
  H  H18  1  -0.00440922  0.30203595  0.32336547  1
  H  H19  1  0.02543782  0.63138132  0.34267019  1
  H  H20  1  -0.00738816  0.97252693  0.32234551  1
  H  H21  1  0.51076836  0.30438128  0.32059746  1
  H  H22  1  0.50187307  0.63708879  0.31605466  1
  H  H23  1  0.48941538  0.97416459  0.32685947  1
  H  H24  1  0.25597480  0.19572222  0.67134573  1
  H  H25  1  0.22426239  0.53738099  0.65923997  1
  H  H26  1  0.24949537  0.86315181  0.67618716  1
  H  H27  1  0.74992316  0.19327693  0.68132375  1
  H  H28  1  0.75558596  0.52420153  0.67807351  1
  H  H29  1  0.75165999  0.86416300  0.67675927  1
  H  H30  1  0.25139897  0.13342799  0.18048652  1
  H  H31  1  0.24232859  0.47264594  0.17691913  1
  H  H32  1  0.24021896  0.80313054  0.17777846  1
  H  H33  1  0.75067860  0.13972428  0.17642506  1
  H  H34  1  0.75869884  0.47263429  0.17641493  1
  H  H35  1  0.76282741  0.80353895  0.17794990  1
  H  H36  1  0.24167330  0.19465706  0.82062350  1
  H  H37  1  0.24366999  0.52941755  0.82082213  1
  H  H38  1  0.26204128  0.86705818  0.81555825  1
  H  H39  1  0.74499155  0.19739659  0.82255309  1
  H  H40  1  0.74878761  0.53127014  0.82566195  1
  H  H41  1  0.73921233  0.86815389  0.81804554  1
  H  H42  1  0.24661314  0.14141960  0.32178405  1
  H  H43  1  0.24014259  0.47400846  0.32378155  1
  H  H44  1  0.24779007  0.80583411  0.31846885  1
  H  H45  1  0.74243251  0.13655361  0.32165471  1
  H  H46  1  0.75587880  0.47074964  0.32099667  1
  H  H47  1  0.74893130  0.80522145  0.32535329  1
  H  H48  1  0.12105170  0.05773615  0.59657662  1
  H  H49  1  0.11443402  0.39151354  0.58886229  1
  H  H50  1  0.11140056  0.72674074  0.59446518  1
  H  H51  1  0.62132715  0.05364870  0.60803895  1
  H  H52  1  0.62130950  0.38533661  0.61330881  1
  H  H53  1  0.61624180  0.72314271  0.60338077  1
  H  H54  1  0.37233877  0.27571843  0.10566400  1
  H  H55  1  0.37462788  0.61608468  0.11728392  1
  H  H56  1  0.37139106  0.95035929  0.10999521  1
  H  H57  1  0.86466863  0.28669189  0.12253131  1
  H  H58  1  0.87025897  0.61466014  0.12143327  1
  H  H59  1  0.87377696  0.95038418  0.12502931  1
  H  H60  1  0.36984732  0.05715578  0.89995183  1
  H  H61  1  0.38375830  0.39016963  0.89730413  1
  H  H62  1  0.37254280  0.71770647  0.89389185  1
  H  H63  1  0.86804793  0.04682437  0.86844423  1
  H  H64  1  0.89336836  0.39596043  0.91284972  1
  H  H65  1  0.87650739  0.72110208  0.88302007  1
  H  H66  1  0.13561079  0.28396074  0.37588982  1
  H  H67  1  0.16163689  0.61040112  0.39808900  1
  H  H68  1  0.13041477  0.94951931  0.38063075  1
  H  H69  1  0.62908200  0.27722795  0.39793109  1
  H  H70  1  0.63451807  0.61519339  0.37569204  1
  H  H71  1  0.62882919  0.95184047  0.38087434  1
  H  H72  1  0.36310341  0.22552893  0.59085758  1
  H  H73  1  0.33428316  0.56219581  0.57884999  1
  H  H74  1  0.36772588  0.89104670  0.60158967  1
  H  H75  1  0.86396045  0.21970619  0.60362614  1
  H  H76  1  0.86172370  0.55457855  0.59515842  1
  H  H77  1  0.86762890  0.89105322  0.59952257  1
  H  H78  1  0.13483326  0.11140859  0.10544677  1
  H  H79  1  0.11376174  0.44584952  0.11005891  1
  H  H80  1  0.13659783  0.77368805  0.09191969  1
  H  H81  1  0.63022206  0.11206975  0.10444889  1
  H  H82  1  0.61582814  0.45305274  0.12915412  1
  H  H83  1  0.62746880  0.77950345  0.11982838  1
  H  H84  1  0.13822467  0.22631634  0.90609301  1
  H  H85  1  0.13323734  0.55645274  0.90080844  1
  H  H86  1  0.12999966  0.88497620  0.87779387  1
  H  H87  1  0.63416490  0.22334406  0.90372207  1
  H  H88  1  0.63341530  0.55948729  0.90076899  1
  H  H89  1  0.63198600  0.88891012  0.90063737  1
  H  H90  1  0.37802018  0.11427474  0.38619981  1
  H  H91  1  0.38373461  0.45124633  0.36859941  1
  H  H92  1  0.38443316  0.78760174  0.37459045  1
  H  H93  1  0.87889434  0.11498236  0.37942228  1
  H  H94  1  0.87921638  0.44709992  0.38943864  1
  H  H95  1  0.88814807  0.78408697  0.37786811  1
  H  H96  1  0.38086902  0.28096408  0.38687223  1
  H  H97  1  0.38674783  0.61268389  0.39153466  1
  H  H98  1  0.38337001  0.94055071  0.40738661  1
  H  H99  1  0.88887874  0.27498804  0.40524216  1
  H  H100  1  0.91393546  0.60274496  0.42126009  1
  H  H101  1  0.88405694  0.94242602  0.40525862  1
  H  H102  1  0.11121923  0.05831743  0.90669840  1
  H  H103  1  0.13539224  0.38494176  0.86985463  1
  H  H104  1  0.12424770  0.71978299  0.89727669  1
  H  H105  1  0.61817137  0.05469714  0.88781939  1
  H  H106  1  0.63197202  0.38754257  0.88613421  1
  H  H107  1  0.62106036  0.72130734  0.89877435  1
  H  H108  1  0.10860714  0.26962458  0.08942325  1
  H  H109  1  0.11777731  0.61285356  0.09917192  1
  H  H110  1  0.11957156  0.94234285  0.09667606  1
  H  H111  1  0.62068356  0.28078885  0.11437562  1
  H  H112  1  0.62222555  0.60942940  0.10329276  1
  H  H113  1  0.62078167  0.94778843  0.12038779  1
  H  H114  1  0.37191180  0.05425678  0.61210928  1
  H  H115  1  0.37242362  0.38473730  0.60494418  1
  H  H116  1  0.36921768  0.71862597  0.62454654  1
  H  H117  1  0.87430082  0.04833546  0.61852452  1
  H  H118  1  0.87346107  0.38079661  0.63063045  1
  H  H119  1  0.86516235  0.71635446  0.61656773  1
  H  H120  1  0.12995355  0.11139539  0.39854927  1
  H  H121  1  0.14219327  0.43843801  0.41024951  1
  H  H122  1  0.13773942  0.77552418  0.39698417  1
  H  H123  1  0.63210923  0.10728953  0.40279139  1
  H  H124  1  0.63040114  0.44668812  0.38919546  1
  H  H125  1  0.64296254  0.77505428  0.40841329  1
  H  H126  1  0.38168212  0.21548013  0.87423376  1
  H  H127  1  0.37971848  0.54847173  0.87622300  1
  H  H128  1  0.37890995  0.88255024  0.89380483  1
  H  H129  1  0.88064307  0.21726879  0.88094581  1
  H  H130  1  0.88137562  0.55288558  0.88851171  1
  H  H131  1  0.87831027  0.88384897  0.87327183  1
  H  H132  1  0.38351786  0.11523847  0.11721360  1
  H  H133  1  0.36137827  0.44496012  0.10222148  1
  H  H134  1  0.38045489  0.78298709  0.12658842  1
  H  H135  1  0.87884065  0.11340728  0.11073236  1
  H  H136  1  0.85829662  0.43831012  0.09098208  1
  H  H137  1  0.87512349  0.77744742  0.09875779  1
  H  H138  1  0.11789454  0.21327354  0.61904333  1
  H  H139  1  0.08743804  0.55631665  0.60377866  1
  H  H140  1  0.11941885  0.88799091  0.61002167  1
  H  H141  1  0.61572555  0.21800019  0.61981700  1
  H  H142  1  0.61775722  0.54926134  0.62347899  1
  H  H143  1  0.61958985  0.88815855  0.61266259  1
  H  H144  1  0.87636339  0.07363280  -0.01693068  1
  H  H145  1  0.57656039  0.08437925  0.99329489  1
  H  H146  1  0.16271411  0.90429996  0.99389366  1
  H  H147  1  0.22644181  0.41255193  0.50685119  1
  H  H148  1  0.97561983  0.57527322  0.52832239  1
  H  H149  1  0.03817295  0.74410497  0.49153207  1
  H  H150  1  0.02832853  0.41697833  0.49368020  1
  H  H151  1  0.20294714  0.74779066  0.50373203  1
  H  H152  1  0.02763477  0.25152044  -0.00985845  1
  H  H153  1  0.88971546  0.75020981  0.50763747  1
  H  H154  1  0.32128995  0.89698601  1.00557789  1
  H  H155  1  0.44141020  0.42301996  1.00475107  1
  H  H156  1  0.84632660  0.58451564  0.99512037  1
  H  H157  1  0.71770132  0.75076081  0.50901033  1
  H  H158  1  0.03512230  0.08412415  1.00980764  1
  H  H159  1  0.54825580  0.75398352  0.49935038  1
  H  H160  1  0.79890742  0.25123693  0.49799184  1
  H  H161  1  0.60549278  0.58661587  0.48910291  1
  H  H162  1  0.12870888  0.24644346  0.49655546  1
  H  H163  1  0.42065256  0.41447594  0.49691376  1
  H  H164  1  0.35741761  0.58056909  -0.00967889  1
  H  H165  1  0.70255684  0.91381492  1.00859485  1
  H  H166  1  0.88094210  0.24985910  0.01445622  1
  H  H167  1  0.42470714  0.94265228  -0.00349499  1
  H  H168  1  0.42838061  0.24429535  0.00040271  1
  H  H169  1  0.16172394  0.91783798  0.50542263  1
  H  H170  1  0.83589109  0.41747551  0.50056051  1
  H  H171  1  0.15351091  0.42087000  0.00200112  1
  H  H172  1  0.21773890  0.25023303  1.00478929  1
  H  H173  1  0.59936551  0.41492269  0.99488725  1
  H  H174  1  0.44518900  0.58439342  0.50109073  1
  H  H175  1  0.19189197  0.08177524  -0.00467384  1
  H  H176  1  0.77728013  0.41444231  -0.00739559  1
  H  H177  1  0.65835987  0.91610234  0.50637283  1
  H  H178  1  0.95969155  0.24290733  0.50938451  1
  H  H179  1  0.27190237  0.59222035  0.47266702  1
  H  H180  1  0.04311006  0.91603922  -0.00723047  1
  H  H181  1  0.81215794  0.74863976  -0.00738379  1
  H  H182  1  0.36253891  0.75617130  0.48759384  1
  H  H183  1  0.05053846  0.58489243  -0.00507802  1
  H  H184  1  0.97739950  0.41828981  1.01065306  1
  H  H185  1  0.78567115  0.58163793  0.49463173  1
  H  H186  1  0.58159796  0.41250952  0.50664533  1
  H  H187  1  0.65478449  0.75326028  0.01174210  1
  H  H188  1  0.41804612  0.08673750  0.50397407  1
  H  H189  1  0.89642977  0.07801594  0.50341441  1
  H  H190  1  0.41127763  0.74952057  0.99959546  1
  H  H191  1  0.58294778  0.92810904  0.00492042  1
  Pb  Pb192  1  0.24568479  0.04912432  0.75522307  1
  Pb  Pb193  1  0.25487974  0.38489059  0.74191640  1
  Pb  Pb194  1  0.24510627  0.71331144  0.74903226  1
  Pb  Pb195  1  0.74548645  0.04843522  0.75119530  1
  Pb  Pb196  1  0.74710511  0.38037075  0.76048757  1
  Pb  Pb197  1  0.74529653  0.71638021  0.75031626  1
  Pb  Pb198  1  0.25741330  0.28318884  0.23636825  1
  Pb  Pb199  1  0.25098221  0.62123356  0.23905998  1
  Pb  Pb200  1  0.25391023  0.95087485  0.24814770  1
  Pb  Pb201  1  0.75127080  0.28651342  0.25958600  1
  Pb  Pb202  1  0.76067533  0.61466881  0.25733956  1
  Pb  Pb203  1  0.75465161  0.95250054  0.25582522  1
  Pb  Pb204  1  -0.00058529  0.21609822  0.75506140  1
  Pb  Pb205  1  -0.00309845  0.54708478  0.75951221  1
  Pb  Pb206  1  -0.00140492  0.88243527  0.74663692  1
  Pb  Pb207  1  0.49878174  0.21380079  0.75044037  1
  Pb  Pb208  1  0.49653216  0.54801008  0.74270255  1
  Pb  Pb209  1  0.49452047  0.88184945  0.75353741  1
  Pb  Pb210  1  0.00356970  0.11906036  0.25103572  1
  Pb  Pb211  1  0.00913403  0.44786968  0.25420156  1
  Pb  Pb212  1  0.00416467  0.78421605  0.24874484  1
  Pb  Pb213  1  0.50892248  0.11751815  0.25097074  1
  Pb  Pb214  1  0.50052424  0.45351835  0.24852965  1
  Pb  Pb215  1  0.50884766  0.78479107  0.25499185  1
  C  C216  1  0.00081899  0.04604387  0.62816372  1
  C  C217  1  0.00189369  0.37537215  0.63193529  1
  C  C218  1  -0.00736626  0.71246284  0.62791604  1
  C  C219  1  0.49721105  0.04471624  0.63280292  1
  C  C220  1  0.49580001  0.37550824  0.63081268  1
  C  C221  1  0.49655353  0.71171334  0.63691129  1
  C  C222  1  -0.00671230  0.28688745  0.12817543  1
  C  C223  1  -0.00203389  0.62259219  0.13328456  1
  C  C224  1  0.00209145  0.95427011  0.13371613  1
  C  C225  1  0.49470106  0.28664275  0.13340543  1
  C  C226  1  0.50139700  0.62295595  0.13467357  1
  C  C227  1  0.49458166  0.95419851  0.13673945  1
  C  C228  1  -0.00422253  0.04518969  0.86764539  1
  C  C229  1  0.00646151  0.38057729  0.87072661  1
  C  C230  1  0.00263488  0.71193340  0.86559806  1
  C  C231  1  0.49169944  0.04757235  0.86967018  1
  C  C232  1  0.50617881  0.37835195  0.87036477  1
  C  C233  1  0.49768112  0.71013079  0.87502775  1
  C  C234  1  0.00676312  0.28680953  0.37030235  1
  C  C235  1  0.03396045  0.61478891  0.38950717  1
  C  C236  1  0.00235860  0.95581618  0.36894316  1
  C  C237  1  0.50712455  0.28774340  0.36767729  1
  C  C238  1  0.50823476  0.62167826  0.36346488  1
  C  C239  1  0.50102094  0.95605728  0.37227515  1
  C  C240  1  0.24506646  0.21148644  0.62468092  1
  C  C241  1  0.21503156  0.55224661  0.61183785  1
  C  C242  1  0.24518362  0.88035647  0.62942431  1
  C  C243  1  0.74295506  0.20964007  0.63440416  1
  C  C244  1  0.74507084  0.54115030  0.63177100  1
  C  C245  1  0.74588323  0.88042447  0.62971596  1
  C  C246  1  0.25639358  0.11984694  0.13259516  1
  C  C247  1  0.23860922  0.45579513  0.12993705  1
  C  C248  1  0.25236042  0.78719357  0.13146525  1
  C  C249  1  0.75346032  0.12224948  0.12999758  1
  C  C250  1  0.74434781  0.45636024  0.13044161  1
  C  C251  1  0.75465247  0.78745208  0.13085296  1
  C  C252  1  0.25354539  0.21053604  0.86715000  1
  C  C253  1  0.25311368  0.54457311  0.86784361  1
  C  C254  1  0.25672214  0.87820138  0.86434559  1
  C  C255  1  0.75351164  0.21251555  0.86959240  1
  C  C256  1  0.75504088  0.54739259  0.87270117  1
  C  C257  1  0.74993177  0.87994449  0.86600502  1
  C  C258  1  0.25152103  0.12399109  0.36848835  1
  C  C259  1  0.25512255  0.45650749  0.36913624  1
  C  C260  1  0.25712152  0.79026566  0.36551977  1
  C  C261  1  0.75093366  0.12044464  0.36833325  1
  C  C262  1  0.75573148  0.45553883  0.36858289  1
  C  C263  1  0.75994744  0.78952224  0.37210414  1
  C  C264  1  0.01652971  0.92600636  0.03765819  1
  C  C265  1  0.47905562  0.59538595  0.45952456  1
  C  C266  1  0.45997332  0.40486604  0.53715897  1
  C  C267  1  0.47519606  0.41009035  0.96375209  1
  C  C268  1  0.98918122  0.25655592  0.46672720  1
  C  C269  1  0.54166163  0.93676927  0.04278948  1
  C  C270  1  0.56077956  0.59633398  0.45367125  1
  C  C271  1  0.71973768  0.08925328  0.03804644  1
  C  C272  1  0.23432314  0.76073524  0.46163052  1
  C  C273  1  0.80612467  0.23715629  0.95868473  1
  C  C274  1  0.46481881  0.25651408  0.04018431  1
  C  C275  1  0.09152458  0.58896606  0.47882751  1
  C  C276  1  0.73150698  0.90297440  0.96493466  1
  C  C277  1  0.48423950  0.92097480  0.46599814  1
  C  C278  1  0.71304652  0.42783648  0.46114659  1
  C  C279  1  0.79481170  0.42762026  0.46260208  1
  C  C280  1  0.72420337  0.57969532  0.96702565  1
  C  C281  1  0.28733649  0.89426538  0.96265696  1
  C  C282  1  0.22905417  0.57407377  0.96361110  1
  C  C283  1  0.31000049  0.57129122  0.95671400  1
  C  C284  1  0.77997873  0.75918393  0.03502843  1
  C  C285  1  0.00765568  0.07189614  0.96589009  1
  C  C286  1  0.94486246  0.06977273  0.53784649  1
  C  C287  1  0.67576464  0.42754214  0.04784839  1
  C  C288  1  1.00904676  0.58616218  0.48640457  1
  C  C289  1  0.07718319  0.40857516  0.95260613  1
  C  C290  1  0.82287150  0.76258828  0.45789617  1
  C  C291  1  0.31340869  0.76046321  0.04605653  1
  C  C292  1  0.45996830  0.94097152  0.03877691  1
  C  C293  1  0.06974085  0.25993091  0.45583858  1
  C  C294  1  0.26488816  0.24177375  0.52925999  1
  C  C295  1  0.92772813  0.06704466  0.95244936  1
  C  C296  1  0.15662981  0.57747619  0.52255870  1
  C  C297  1  0.30764264  0.09624528  0.04192053  1
  C  C298  1  0.20574809  0.89637150  0.95692490  1
  C  C299  1  0.02593426  0.07283708  0.53183638  1
  C  C300  1  0.51763767  0.74173229  0.54218255  1
  C  C301  1  0.81143673  0.89983812  0.95371373  1
  C  C302  1  0.18442732  0.23727019  0.53775350  1
  C  C303  1  0.31558342  0.76480468  0.45361884  1
  C  C304  1  0.01930488  0.59494714  0.03790682  1
  C  C305  1  0.76697932  0.23976578  0.54036648  1
  C  C306  1  0.23897992  0.58003611  0.51440404  1
  C  C307  1  0.45819720  0.07508263  0.54192052  1
  C  C308  1  0.80470340  0.09086247  0.45544291  1
  C  C309  1  0.32589323  0.42467253  0.44958472  1
  C  C310  1  0.53487146  0.74285701  0.96808075  1
  C  C311  1  0.22651324  0.09356643  0.03628669  1
  N  N312  1  0.79729112  0.08901634  0.03974534  1
  N  N313  1  0.24134921  0.24258227  0.96061136  1
  N  N314  1  0.72912902  0.24033544  0.96678877  1
  N  N315  1  0.54392567  0.25771377  0.04259955  1
  N  N316  1  0.53747411  0.07530194  0.54001903  1
  N  N317  1  0.93850756  0.92688923  0.04792134  1
  N  N318  1  0.23746612  0.75683532  0.03369057  1
  N  N319  1  1.00007688  0.41208066  0.96587824  1
  N  N320  1  0.43911114  0.74019266  0.54929292  1
  N  N321  1  0.68431316  0.57239433  0.54755389  1
  N  N322  1  0.98263406  0.92440498  0.46429471  1
  N  N323  1  0.72817619  0.08820266  0.46450218  1
  N  N324  1  0.68824209  0.24045362  0.54609994  1
  N  N325  1  0.46160344  0.25866130  0.45854822  1
  N  N326  1  0.05833575  0.92713841  0.45633729  1
  N  N327  1  0.45826576  0.07468429  0.96463183  1
  N  N328  1  0.27431596  0.42728652  0.03625755  1
  N  N329  1  0.74472684  0.75843786  0.46657950  1
  N  N330  1  0.77808993  0.90951309  0.53538849  1
  N  N331  1  0.55460610  0.40843606  0.95889757  1
  N  N332  1  0.70093736  0.75946821  0.04352364  1
  N  N333  1  0.94056587  0.59479807  0.04504229  1
  N  N334  1  0.56092756  0.92476057  0.45834015  1
  N  N335  1  0.53765890  0.25769074  0.46193622  1
  N  N336  1  0.95548554  0.74211686  0.95563082  1
  N  N337  1  0.29867011  0.09371025  0.45860725  1
  N  N338  1  0.01379064  0.74692934  0.53562953  1
  N  N339  1  0.45558862  0.74125262  0.96496405  1
  N  N340  1  0.53953640  0.40625568  0.54132050  1
  N  N341  1  0.92983835  0.26506567  0.04398949  1
  N  N342  1  0.80290039  0.57640533  0.96154566  1
  N  N343  1  0.70024831  0.90826388  0.54125033  1
  N  N344  1  0.75318860  0.42227716  0.03652461  1
  N  N345  1  0.93177085  0.40580199  0.55152844  1
  N  N346  1  0.22267753  0.09238165  0.46244906  1
  N  N347  1  0.00785362  0.40991162  0.53889331  1
  N  N348  1  0.20234019  0.90909017  0.54047659  1
  N  N349  1  0.00597862  0.25108288  0.03564986  1
  N  N350  1  0.53605107  0.07344273  0.95925378  1
  N  N351  1  0.93649195  0.73577097  0.54100030  1
  N  N352  1  0.19631623  0.42833971  0.03981265  1
  N  N353  1  0.24894550  0.42068400  0.46250997  1
  N  N354  1  0.28036217  0.91006370  0.53581651  1
  N  N355  1  0.31816462  0.23887897  0.95125996  1
  N  N356  1  0.45226857  0.59358089  0.04513640  1
  N  N357  1  0.76118378  0.57422008  0.53881372  1
  N  N358  1  0.03174259  0.74117157  0.96032807  1
  N  N359  1  0.52794761  0.59101823  0.04042918  1
  N  N360  1  0.05974037  0.05880065  0.58618917  1
  N  N361  1  0.05182525  0.38865857  0.58637452  1
  N  N362  1  0.04936927  0.72305070  0.58613915  1
  N  N363  1  0.56010263  0.05631500  0.59703496  1
  N  N364  1  0.56145540  0.38690070  0.59854052  1
  N  N365  1  0.55431962  0.72455522  0.59569280  1
  N  N366  1  0.43289079  0.27422803  0.09561666  1
  N  N367  1  0.43419481  0.61316838  0.10351806  1
  N  N368  1  0.43175425  0.95095658  0.09763684  1
  N  N369  1  0.92119997  0.27822996  0.10389928  1
  N  N370  1  0.92898663  0.61203670  0.10493351  1
  N  N371  1  0.93129741  0.94453227  0.10744142  1
  N  N372  1  0.43112758  0.05841976  0.90853969  1
  N  N373  1  0.44484037  0.39208830  0.90876439  1
  N  N374  1  0.43246887  0.72086168  0.90771842  1
  N  N375  1  0.92200178  0.05094364  0.89165231  1
  N  N376  1  0.95578307  0.39167219  0.91632307  1
  N  N377  1  0.93614304  0.72438886  0.89675339  1
  N  N378  1  0.07938163  0.27819938  0.39636272  1
  N  N379  1  0.10440357  0.60678012  0.41770514  1
  N  N380  1  0.07190634  0.94646753  0.39714576  1
  N  N381  1  0.56754185  0.27586192  0.40580034  1
  N  N382  1  0.57761169  0.61241398  0.39385070  1
  N  N383  1  0.57142315  0.94658395  0.39856264  1
  N  N384  1  0.30130919  0.22621059  0.58220495  1
  N  N385  1  0.27292613  0.56403596  0.57012170  1
  N  N386  1  0.30652344  0.89260729  0.59180813  1
  N  N387  1  0.80230986  0.22117315  0.59412969  1
  N  N388  1  0.79949924  0.55236582  0.58866042  1
  N  N389  1  0.80610763  0.89284803  0.59105872  1
  N  N390  1  0.19548995  0.10857281  0.09398879  1
  N  N391  1  0.17327914  0.44669069  0.09632891  1
  N  N392  1  0.19904815  0.77414498  0.08821185  1
  N  N393  1  0.69079690  0.10931854  0.09277090  1
  N  N394  1  0.66993899  0.44707417  0.10682042  1
  N  N395  1  0.68581643  0.77793914  0.10211366  1
  N  N396  1  0.20051330  0.22280320  0.91089047  1
  N  N397  1  0.19485174  0.55799299  0.91004566  1
  N  N398  1  0.18811699  0.88650794  0.89569280  1
  N  N399  1  0.69665747  0.22443999  0.91019923  1
  N  N400  1  0.69429694  0.56175957  0.91208807  1
  N  N401  1  0.69365727  0.89010958  0.90889170  1
  N  N402  1  0.31806264  0.11342643  0.40028746  1
  N  N403  1  0.32982965  0.44551194  0.39124698  1
  N  N404  1  0.32822971  0.78273336  0.39391254  1
  N  N405  1  0.82145262  0.11020686  0.39708054  1
  N  N406  1  0.82013855  0.44465891  0.40367807  1
  N  N407  1  0.83249851  0.78011784  0.39857410  1
  N  N408  1  0.44103457  0.27674849  0.39999074  1
  N  N409  1  0.44790302  0.61108073  0.40308385  1
  N  N410  1  0.44519384  0.93954918  0.41446247  1
  N  N411  1  0.95085673  0.27371396  0.41245518  1
  N  N412  1  0.97563877  0.60213626  0.43056227  1
  N  N413  1  0.94656894  0.94215485  0.41040664  1
  N  N414  1  0.04903638  0.05813748  0.91239310  1
  N  N415  1  0.08131646  0.39070525  0.89291801  1
  N  N416  1  0.06233814  0.72216137  0.90489789  1
  N  N417  1  0.55786498  0.05719277  0.90192645  1
  N  N418  1  0.57330677  0.38717876  0.90182888  1
  N  N419  1  0.56104300  0.72411821  0.91201180  1
  N  N420  1  0.04632481  0.27424326  0.08413315  1
  N  N421  1  0.05585560  0.61118735  0.09171896  1
  N  N422  1  0.05737607  0.94258303  0.09001099  1
  N  N423  1  0.56068575  0.27599814  0.10090208  1
  N  N424  1  0.56013633  0.60902343  0.09568111  1
  N  N425  1  0.56189194  0.94488647  0.10388623  1
  N  N426  1  0.43191020  0.05681240  0.59870777  1
  N  N427  1  0.43272830  0.38705868  0.59337815  1
  N  N428  1  0.42746470  0.72156143  0.60834853  1
  N  N429  1  0.93084883  0.05313330  0.59909573  1
  N  N430  1  0.92875131  0.38663988  0.60999669  1
  N  N431  1  0.92292924  0.72262382  0.60023325  1
  N  N432  1  0.19180803  0.11103992  0.40686189  1
  N  N433  1  0.20440624  0.44383878  0.41429017  1
  N  N434  1  0.19929296  0.77669891  0.40634141  1
  N  N435  1  0.69434955  0.10729230  0.40886407  1
  N  N436  1  0.69015510  0.44471837  0.40421842  1
  N  N437  1  0.70535594  0.77764626  0.41452403  1
  N  N438  1  0.32508894  0.22072503  0.89254321  1
  N  N439  1  0.32345286  0.55291243  0.89613813  1
  N  N440  1  0.31793152  0.88330585  0.90462085  1
  N  N441  1  0.82384047  0.22104657  0.89911023  1
  N  N442  1  0.82250935  0.55610182  0.90362217  1
  N  N443  1  0.82223458  0.88649305  0.89409743  1
  N  N444  1  0.32529141  0.11157115  0.10013174  1
  N  N445  1  0.29997115  0.44369582  0.09241553  1
  N  N446  1  0.32482438  0.77846851  0.10577404  1
  N  N447  1  0.81879133  0.10969150  0.09775292  1
  N  N448  1  0.79620077  0.44319034  0.08635453  1
  N  N449  1  0.81365833  0.77561445  0.08961800  1
  N  N450  1  0.17321070  0.21893238  0.59787417  1
  N  N451  1  0.14430585  0.56012711  0.58404392  1
  N  N452  1  0.17943208  0.89078619  0.59681923  1
  N  N453  1  0.67490214  0.22154922  0.60474247  1
  N  N454  1  0.67458435  0.55373010  0.60584008  1
  N  N455  1  0.67909766  0.88953868  0.59785242  1
  Cl  Cl456  1  0.24518676  0.05453863  0.62362163  1
  Cl  Cl457  1  0.23628708  0.39561510  0.59956824  1
  Cl  Cl458  1  0.23204757  0.72452480  0.61348048  1
  Cl  Cl459  1  0.74500533  0.05115132  0.62394314  1
  Cl  Cl460  1  0.74407532  0.38549733  0.62864930  1
  Cl  Cl461  1  0.73880674  0.72440270  0.60550627  1
  Cl  Cl462  1  0.23092227  0.27106980  0.09684672  1
  Cl  Cl463  1  0.24439024  0.61107026  0.10834779  1
  Cl  Cl464  1  0.24406720  0.93988170  0.11297158  1
  Cl  Cl465  1  0.74362236  0.28958796  0.12811401  1
  Cl  Cl466  1  0.74501280  0.60953489  0.11781619  1
  Cl  Cl467  1  0.74472499  0.94948399  0.12309879  1
  Cl  Cl468  1  0.23837348  0.05850885  0.89119731  1
  Cl  Cl469  1  0.26231358  0.38717609  0.87389140  1
  Cl  Cl470  1  0.24845526  0.71621224  0.88054248  1
  Cl  Cl471  1  0.73530395  0.05653965  0.88465033  1
  Cl  Cl472  1  0.76943286  0.39618161  0.89990191  1
  Cl  Cl473  1  0.74712625  0.72060734  0.88503766  1
  Cl  Cl474  1  0.25966468  0.28938372  0.36727441  1
  Cl  Cl475  1  0.27313166  0.61359776  0.37194141  1
  Cl  Cl476  1  0.25772540  0.94288276  0.38102983  1
  Cl  Cl477  1  0.76076418  0.27688223  0.39474862  1
  Cl  Cl478  1  0.78675643  0.60560084  0.40099873  1
  Cl  Cl479  1  0.76022152  0.94291711  0.38781339  1
  Cl  Cl480  1  -0.01473777  0.22096627  0.62319205  1
  Cl  Cl481  1  -0.02860317  0.55106521  0.62572986  1
  Cl  Cl482  1  -0.00521446  0.88598246  0.61506541  1
  Cl  Cl483  1  0.48540633  0.22335523  0.62004737  1
  Cl  Cl484  1  0.47181869  0.55441948  0.60844497  1
  Cl  Cl485  1  0.49473322  0.89062367  0.61988476  1
  Cl  Cl486  1  0.00895844  0.11552452  0.11633028  1
  Cl  Cl487  1  -0.01608748  0.43556692  0.10410322  1
  Cl  Cl488  1  0.00523756  0.77769202  0.11837621  1
  Cl  Cl489  1  0.51005547  0.11089575  0.11652854  1
  Cl  Cl490  1  0.48404154  0.44353165  0.11367594  1
  Cl  Cl491  1  0.50532869  0.77630453  0.12063599  1
  Cl  Cl492  1  0.01802461  0.23390886  0.89708437  1
  Cl  Cl493  1  0.00909892  0.55378143  0.89279588  1
  Cl  Cl494  1  0.00604357  0.89250487  0.88095486  1
  Cl  Cl495  1  0.51152047  0.22067958  0.88499364  1
  Cl  Cl496  1  0.51099881  0.55399737  0.87418344  1
  Cl  Cl497  1  0.50484145  0.88679615  0.88934191  1
  Cl  Cl498  1  0.00663795  0.11048869  0.38388028  1
  Cl  Cl499  1  0.01960373  0.43723440  0.39808197  1
  Cl  Cl500  1  0.01588022  0.76489716  0.39297699  1
  Cl  Cl501  1  0.50319620  0.10732214  0.38383068  1
  Cl  Cl502  1  0.51038818  0.44174208  0.38272383  1
  Cl  Cl503  1  0.52212563  0.77714324  0.39021760  1
  Cl  Cl504  1  0.35870440  0.14934894  0.75552460  1
  Cl  Cl505  1  0.35567041  0.48393877  0.74650854  1
  Cl  Cl506  1  0.35688801  0.81462086  0.74163067  1
  Cl  Cl507  1  0.86551332  0.14487018  0.76319149  1
  Cl  Cl508  1  0.85886670  0.48090081  0.75465300  1
  Cl  Cl509  1  0.86315927  0.81225398  0.74972540  1
  Cl  Cl510  1  0.13920036  0.18838300  0.25273727  1
  Cl  Cl511  1  0.14074827  0.51801584  0.25218405  1
  Cl  Cl512  1  0.14516062  0.84775716  0.25292605  1
  Cl  Cl513  1  0.64732309  0.18160412  0.24907550  1
  Cl  Cl514  1  0.63946474  0.51917324  0.25137900  1
  Cl  Cl515  1  0.64495491  0.85083678  0.24370471  1
  Cl  Cl516  1  0.13783693  0.15222772  0.74461783  1
  Cl  Cl517  1  0.13856012  0.48358345  0.74688460  1
  Cl  Cl518  1  0.13747734  0.81689602  0.75265521  1
  Cl  Cl519  1  0.64265599  0.15285751  0.74881130  1
  Cl  Cl520  1  0.63989954  0.48315672  0.75073968  1
  Cl  Cl521  1  0.64319966  0.81701422  0.74555952  1
  Cl  Cl522  1  0.36049981  0.18716733  0.24117160  1
  Cl  Cl523  1  0.36034472  0.51866587  0.24941610  1
  Cl  Cl524  1  0.37167883  0.85340230  0.24767310  1
  Cl  Cl525  1  0.86688665  0.18799067  0.24717209  1
  Cl  Cl526  1  0.85992434  0.51697779  0.24557994  1
  Cl  Cl527  1  0.86494628  0.85031030  0.25352320  1
  Cl  Cl528  1  0.10954937  0.31665963  0.75144541  1
  Cl  Cl529  1  0.10320273  0.64927976  0.74157235  1
  Cl  Cl530  1  0.10366950  0.98632102  0.74909634  1
  Cl  Cl531  1  0.60792974  0.31709735  0.75283698  1
  Cl  Cl532  1  0.61101228  0.64795852  0.74590796  1
  Cl  Cl533  1  0.60659381  0.98310498  0.75214670  1
  Cl  Cl534  1  0.38969122  0.02096006  0.25075674  1
  Cl  Cl535  1  0.38917779  0.35311183  0.24833766  1
  Cl  Cl536  1  0.39231934  0.68697239  0.24798676  1
  Cl  Cl537  1  0.89054879  0.01962769  0.24274917  1
  Cl  Cl538  1  0.89237413  0.35111823  0.25431899  1
  Cl  Cl539  1  0.88758862  0.68599302  0.25023911  1
  Cl  Cl540  1  0.39023151  0.31723131  0.75271050  1
  Cl  Cl541  1  0.38827728  0.65077181  0.75137255  1
  Cl  Cl542  1  0.38631132  0.98158820  0.75729757  1
  Cl  Cl543  1  0.88814922  0.31670704  0.75441343  1
  Cl  Cl544  1  0.88180405  0.64626279  0.74891539  1
  Cl  Cl545  1  0.88009037  0.97858414  0.75441184  1
  Cl  Cl546  1  0.11363933  0.01681041  0.25206450  1
  Cl  Cl547  1  0.10995816  0.35560780  0.23875447  1
  Cl  Cl548  1  0.10671651  0.67850504  0.25802720  1
  Cl  Cl549  1  0.61162921  0.01545687  0.25718852  1
  Cl  Cl550  1  0.60842488  0.35090251  0.24499789  1
  Cl  Cl551  1  0.61576322  0.68393529  0.25043378  1
