# generated using pymatgen
data_H8PbC4(N3Cl2)2
_symmetry_space_group_name_H-M   'P 1'
_cell_length_a   16.62963786
_cell_length_b   22.51742770
_cell_length_c   21.59456501
_cell_angle_alpha   90.00037879
_cell_angle_beta   89.98142392
_cell_angle_gamma   89.99630373
_symmetry_Int_Tables_number   1
_chemical_formula_structural   H8PbC4(N3Cl2)2
_chemical_formula_sum   'H192 Pb24 C96 N144 Cl96'
_cell_volume   8086.22842147
_cell_formula_units_Z   24
loop_
 _symmetry_equiv_pos_site_id
 _symmetry_equiv_pos_as_xyz
  1  'x, y, z'
loop_
 _atom_site_type_symbol
 _atom_site_label
 _atom_site_symmetry_multiplicity
 _atom_site_fract_x
 _atom_site_fract_y
 _atom_site_fract_z
 _atom_site_occupancy
  H  H0  1  0.00569275  0.02975291  0.67716675  1
  H  H1  1  -0.00668114  0.35942407  0.68154012  1
  H  H2  1  0.00458683  0.69711975  0.67884613  1
  H  H3  1  0.51158752  0.03022002  0.68048304  1
  H  H4  1  0.50899269  0.36172023  0.67663381  1
  H  H5  1  0.50820379  0.69580948  0.67533020  1
  H  H6  1  -0.00098999  0.31018537  0.17504383  1
  H  H7  1  0.01190522  0.63417795  0.17795921  1
  H  H8  1  -0.00332311  0.96834179  0.18167796  1
  H  H9  1  0.49949701  0.30330303  0.17843223  1
  H  H10  1  0.49317026  0.63724128  0.17660589  1
  H  H11  1  0.48966399  0.97044733  0.17714289  1
  H  H12  1  -0.01141150  0.02987245  0.81834125  1
  H  H13  1  0.00164780  0.36531131  0.82378821  1
  H  H14  1  -0.00925815  0.69468115  0.82494218  1
  H  H15  1  0.50832329  0.03154201  0.82217709  1
  H  H16  1  0.50326072  0.36039423  0.81642747  1
  H  H17  1  0.50863284  0.69401733  0.81959567  1
  H  H18  1  -0.00205136  0.30202672  0.32418655  1
  H  H19  1  0.00950957  0.63637367  0.32158342  1
  H  H20  1  0.00123537  0.97063884  0.31828484  1
  H  H21  1  0.50399152  0.30830220  0.32544306  1
  H  H22  1  0.50121408  0.63586807  0.31675684  1
  H  H23  1  0.49957090  0.97033621  0.32433401  1
  H  H24  1  0.26269743  0.19579900  0.67771568  1
  H  H25  1  0.24446600  0.53054952  0.68328317  1
  H  H26  1  0.26075407  0.86178026  0.67689694  1
  H  H27  1  0.73751569  0.19646053  0.67879945  1
  H  H28  1  0.74397976  0.53169308  0.67634810  1
  H  H29  1  0.73463178  0.85857115  0.67710600  1
  H  H30  1  0.23745609  0.13912760  0.18032156  1
  H  H31  1  0.23735424  0.47041965  0.17611521  1
  H  H32  1  0.25007220  0.80368843  0.17573756  1
  H  H33  1  0.76311907  0.13652855  0.18257394  1
  H  H34  1  0.75782392  0.47123400  0.18029092  1
  H  H35  1  0.76092174  0.80524369  0.17638523  1
  H  H36  1  0.23932136  0.19728295  0.82141139  1
  H  H37  1  0.25143064  0.52944731  0.82879786  1
  H  H38  1  0.25748985  0.86482710  0.82091698  1
  H  H39  1  0.76267912  0.19814897  0.81963478  1
  H  H40  1  0.75765732  0.52776231  0.81987538  1
  H  H41  1  0.74375269  0.86263391  0.82297714  1
  H  H42  1  0.25290895  0.13782271  0.32150094  1
  H  H43  1  0.23341294  0.46522909  0.31943531  1
  H  H44  1  0.25271213  0.80739642  0.32581204  1
  H  H45  1  0.73895569  0.13907488  0.32405582  1
  H  H46  1  0.76664494  0.47139825  0.32444839  1
  H  H47  1  0.74477576  0.80524898  0.32610632  1
  H  H48  1  0.12289657  0.05256124  0.60077216  1
  H  H49  1  0.12331191  0.38356856  0.61810870  1
  H  H50  1  0.11782202  0.72595008  0.60085555  1
  H  H51  1  0.61567761  0.06162744  0.59485488  1
  H  H52  1  0.62050155  0.39218255  0.59589477  1
  H  H53  1  0.61678218  0.72736716  0.59529547  1
  H  H54  1  0.38017178  0.28224645  0.10512332  1
  H  H55  1  0.37747304  0.60940778  0.09967252  1
  H  H56  1  0.38890207  0.93967473  0.09046163  1
  H  H57  1  0.88367266  0.27923839  0.09893502  1
  H  H58  1  0.87692372  0.61575888  0.11705440  1
  H  H59  1  0.88124918  0.94158453  0.10333491  1
  H  H60  1  0.36972387  0.05029102  0.87483761  1
  H  H61  1  0.37355136  0.38620389  0.88426636  1
  H  H62  1  0.38473439  0.71908307  0.89109373  1
  H  H63  1  0.86829609  0.04700552  0.89393415  1
  H  H64  1  0.87340387  0.38848236  0.89091539  1
  H  H65  1  0.89062555  0.72818913  0.91058330  1
  H  H66  1  0.12520087  0.27816573  0.39040073  1
  H  H67  1  0.11346821  0.60876610  0.40768242  1
  H  H68  1  0.11897231  0.94867216  0.39447321  1
  H  H69  1  0.62427658  0.27743727  0.39634100  1
  H  H70  1  0.61620974  0.61261293  0.39399369  1
  H  H71  1  0.61086933  0.93909596  0.40499425  1
  H  H72  1  0.37054723  0.22322595  0.59370453  1
  H  H73  1  0.38164461  0.55302978  0.62465309  1
  H  H74  1  0.38024112  0.88814184  0.60303629  1
  H  H75  1  0.87471147  0.21726275  0.62004487  1
  H  H76  1  0.88033667  0.54971602  0.61742511  1
  H  H77  1  0.87635085  0.88361659  0.62726510  1
  H  H78  1  0.13140393  0.11148148  0.09613594  1
  H  H79  1  0.12969646  0.44395278  0.09433480  1
  H  H80  1  0.11806315  0.77644958  0.11444701  1
  H  H81  1  0.63072195  0.11305574  0.12000429  1
  H  H82  1  0.63313950  0.44543998  0.11045014  1
  H  H83  1  0.61864092  0.78364530  0.12931810  1
  H  H84  1  0.12597624  0.22548095  0.90154746  1
  H  H85  1  0.12470589  0.55071293  0.89473135  1
  H  H86  1  0.11682605  0.88105608  0.87146516  1
  H  H87  1  0.62142271  0.21529397  0.86895330  1
  H  H88  1  0.62642362  0.55265702  0.88335413  1
  H  H89  1  0.61496587  0.88961856  0.88929324  1
  H  H90  1  0.37455787  0.11646507  0.39277580  1
  H  H91  1  0.37788863  0.45090320  0.36646791  1
  H  H92  1  0.38134933  0.78190479  0.39143812  1
  H  H93  1  0.88118358  0.11571171  0.37188294  1
  H  H94  1  0.87104653  0.44074985  0.40827257  1
  H  H95  1  0.87960315  0.78249494  0.38506343  1
  H  H96  1  0.37543075  0.28049540  0.39049802  1
  H  H97  1  0.36806363  0.61655776  0.37724285  1
  H  H98  1  0.36421460  0.94870278  0.38393289  1
  H  H99  1  0.87542411  0.27669556  0.39635524  1
  H  H100  1  0.86974206  0.61667687  0.37557518  1
  H  H101  1  0.87137836  0.94789673  0.37918905  1
  H  H102  1  0.11504583  0.05772494  0.88446902  1
  H  H103  1  0.12195401  0.38985130  0.89727603  1
  H  H104  1  0.13389457  0.71257632  0.87365660  1
  H  H105  1  0.61552049  0.05809071  0.90404562  1
  H  H106  1  0.62200192  0.38807633  0.89204371  1
  H  H107  1  0.63343077  0.72190361  0.88818626  1
  H  H108  1  0.13201098  0.28408998  0.11509523  1
  H  H109  1  0.12432331  0.60554648  0.09914571  1
  H  H110  1  0.12897720  0.94676362  0.11620204  1
  H  H111  1  0.62932306  0.28108124  0.11354878  1
  H  H112  1  0.62523284  0.61414628  0.11281144  1
  H  H113  1  0.63131002  0.94830574  0.12653368  1
  H  H114  1  0.37164882  0.04630057  0.62491860  1
  H  H115  1  0.37404445  0.38028866  0.61712986  1
  H  H116  1  0.37072334  0.71955682  0.61957831  1
  H  H117  1  0.87507129  0.05160798  0.61666521  1
  H  H118  1  0.87436806  0.38995698  0.60735764  1
  H  H119  1  0.86997890  0.71999768  0.61821174  1
  H  H120  1  0.12580872  0.11387194  0.38775634  1
  H  H121  1  0.13509169  0.43933942  0.40704345  1
  H  H122  1  0.13256021  0.77860486  0.39720188  1
  H  H123  1  0.63732731  0.10954290  0.41078481  1
  H  H124  1  0.62677217  0.44589242  0.37390453  1
  H  H125  1  0.63242450  0.77328745  0.40269121  1
  H  H126  1  0.37309326  0.21947625  0.88073960  1
  H  H127  1  0.37347514  0.55369972  0.89819415  1
  H  H128  1  0.36158127  0.89188848  0.90470922  1
  H  H129  1  0.86592912  0.22496027  0.90427920  1
  H  H130  1  0.87505621  0.55360919  0.89568669  1
  H  H131  1  0.86310398  0.88718528  0.89792488  1
  H  H132  1  0.37716519  0.11741456  0.12574917  1
  H  H133  1  0.37494379  0.45285572  0.12315794  1
  H  H134  1  0.36663300  0.77647328  0.10033488  1
  H  H135  1  0.87968301  0.11403756  0.10524478  1
  H  H136  1  0.88274112  0.44596045  0.10957459  1
  H  H137  1  0.86128714  0.77308405  0.09006866  1
  H  H138  1  0.12487516  0.21431987  0.62150872  1
  H  H139  1  0.13481120  0.55599640  0.60125825  1
  H  H140  1  0.13138625  0.88510147  0.61445387  1
  H  H141  1  0.62861363  0.22489115  0.59524111  1
  H  H142  1  0.63431724  0.56124716  0.59618817  1
  H  H143  1  0.63353769  0.89079311  0.59120229  1
  H  H144  1  0.32682206  0.08449376  0.50280986  1
  H  H145  1  0.34011447  0.75203797  0.49703089  1
  H  H146  1  0.94896727  0.25114959  -0.00406033  1
  H  H147  1  0.90550370  0.08037183  0.50174046  1
  H  H148  1  0.28992039  0.91963191  1.00867826  1
  H  H149  1  0.68275692  0.41354952  0.00257895  1
  H  H150  1  0.54470771  0.08667407  1.01005842  1
  H  H151  1  0.16698890  0.92200475  0.50353537  1
  H  H152  1  0.81679427  0.58337748  1.00183843  1
  H  H153  1  0.53902948  0.91302933  0.50577128  1
  H  H154  1  0.21584215  0.41284375  0.50983146  1
  H  H155  1  0.70642272  0.57686873  0.49315368  1
  H  H156  1  0.08557982  0.41614144  0.50706459  1
  H  H157  1  0.39646943  0.58756411  0.49003183  1
  H  H158  1  0.84814220  0.75085525  0.49277638  1
  H  H159  1  0.92564369  0.24468398  0.49884438  1
  H  H160  1  0.82111348  0.09333980  -0.00424646  1
  H  H161  1  0.58769504  0.74889840  0.99817969  1
  H  H162  1  0.58627501  0.58321475  0.00718828  1
  H  H163  1  0.79212034  0.25627462  1.00654300  1
  H  H164  1  0.93502518  0.04390266  0.99819407  1
  H  H165  1  0.55687626  0.58650062  0.50315120  1
  H  H166  1  0.97079984  0.75035860  1.00957407  1
  H  H167  1  0.35702556  0.42095001  1.00871746  1
  H  H168  1  0.03468190  0.58249294  0.50622349  1
  H  H169  1  0.08689260  0.24404598  0.49983662  1
  H  H170  1  0.42998091  0.25275752  -0.00487795  1
  H  H171  1  0.77951391  0.74970768  -0.00826728  1
  H  H172  1  0.47062685  0.91548897  -0.00747051  1
  H  H173  1  0.71825199  0.08505273  0.50911092  1
  H  H174  1  0.53672121  0.08761278  0.49710864  1
  H  H175  1  0.20425456  0.58468921  0.49710876  1
  H  H176  1  0.93322489  0.40686104  0.50129713  1
  H  H177  1  0.71584127  0.91742848  0.49386975  1
  H  H178  1  0.40090976  0.41487301  0.50535495  1
  H  H179  1  0.14950190  0.74761023  0.00565756  1
  H  H180  1  0.65836329  0.91652348  0.99510506  1
  H  H181  1  0.30751833  0.74190638  -0.00597044  1
  H  H182  1  0.20549918  0.08144518  -0.00570068  1
  H  H183  1  0.05771293  0.10835731  0.97726498  1
  H  H184  1  0.05388894  0.75848063  0.49674705  1
  H  H185  1  0.66868675  0.09618120  0.00967276  1
  H  H186  1  0.79248437  0.41484530  0.50760674  1
  H  H187  1  0.38708296  0.08139567  -0.01177726  1
  H  H188  1  0.90282158  0.92220892  0.49414312  1
  H  H189  1  0.63116128  0.24808298  0.98312460  1
  H  H190  1  0.12974054  0.91236808  -0.01544756  1
  H  H191  1  0.85249453  0.58686650  0.51209108  1
  Pb  Pb192  1  0.23978409  0.04930509  0.75026208  1
  Pb  Pb193  1  0.24775973  0.38124707  0.75235404  1
  Pb  Pb194  1  0.24538389  0.71657213  0.74682291  1
  Pb  Pb195  1  0.74184814  0.05144219  0.75289779  1
  Pb  Pb196  1  0.74332881  0.38472702  0.74619461  1
  Pb  Pb197  1  0.74906500  0.71553806  0.75257261  1
  Pb  Pb198  1  0.25268010  0.28615969  0.25051349  1
  Pb  Pb199  1  0.24482316  0.61558024  0.25168811  1
  Pb  Pb200  1  0.25057392  0.95334544  0.24772320  1
  Pb  Pb201  1  0.75126563  0.28572264  0.24953287  1
  Pb  Pb202  1  0.74759890  0.61987675  0.25272793  1
  Pb  Pb203  1  0.74627207  0.94973540  0.25342488  1
  Pb  Pb204  1  -0.00636712  0.21799143  0.75784119  1
  Pb  Pb205  1  0.00059207  0.54803618  0.74608784  1
  Pb  Pb206  1  -0.00601366  0.88141640  0.75176291  1
  Pb  Pb207  1  0.49258360  0.21548773  0.73872153  1
  Pb  Pb208  1  0.49668867  0.55032780  0.74863961  1
  Pb  Pb209  1  0.49196652  0.88467948  0.75028372  1
  Pb  Pb210  1  0.00207103  0.11944719  0.23639008  1
  Pb  Pb211  1  -0.00290848  0.44899030  0.25712670  1
  Pb  Pb212  1  -0.00095821  0.78613965  0.24658758  1
  Pb  Pb213  1  0.50339926  0.11956355  0.26084811  1
  Pb  Pb214  1  0.50323921  0.45265815  0.24477638  1
  Pb  Pb215  1  0.49400944  0.78426569  0.25245778  1
  C  C216  1  0.00047229  0.04449190  0.62959626  1
  C  C217  1  -0.00365145  0.37609962  0.63429885  1
  C  C218  1  -0.00284768  0.71342587  0.63190041  1
  C  C219  1  0.49989466  0.04511176  0.63356116  1
  C  C220  1  0.50130461  0.37758256  0.62967704  1
  C  C221  1  0.49815963  0.71348708  0.62954419  1
  C  C222  1  0.00448410  0.29241425  0.12870131  1
  C  C223  1  0.00404033  0.61883976  0.13096253  1
  C  C224  1  0.00252980  0.95295522  0.13427475  1
  C  C225  1  0.50257265  0.28868393  0.13068696  1
  C  C226  1  0.49902768  0.62072368  0.12963965  1
  C  C227  1  0.50318875  0.95402967  0.13101636  1
  C  C228  1  -0.00939894  0.04466573  0.86614447  1
  C  C229  1  -0.00125139  0.38063903  0.87111766  1
  C  C230  1  0.00490159  0.71029222  0.87123583  1
  C  C231  1  0.49741911  0.04630855  0.86928597  1
  C  C232  1  0.49956134  0.37699327  0.86356304  1
  C  C233  1  0.50900099  0.71124076  0.86642154  1
  C  C234  1  -0.00086895  0.28532208  0.37147887  1
  C  C235  1  -0.00262080  0.62119874  0.36840938  1
  C  C236  1  -0.00358937  0.95612599  0.36598355  1
  C  C237  1  0.50104743  0.28894624  0.37115778  1
  C  C238  1  0.49480347  0.62183773  0.36465729  1
  C  C239  1  0.49194698  0.95397059  0.37123433  1
  C  C240  1  0.25285429  0.21065946  0.63073120  1
  C  C241  1  0.25410618  0.54600315  0.63622110  1
  C  C242  1  0.25687424  0.87817493  0.62992071  1
  C  C243  1  0.74690271  0.21237989  0.63187695  1
  C  C244  1  0.75333131  0.54752017  0.62926961  1
  C  C245  1  0.74806872  0.87633284  0.63156982  1
  C  C246  1  0.24894501  0.12310179  0.13379197  1
  C  C247  1  0.24829156  0.45588261  0.12905359  1
  C  C248  1  0.24412443  0.78632806  0.12890306  1
  C  C249  1  0.75720716  0.12152046  0.13493035  1
  C  C250  1  0.75804313  0.45464255  0.13317618  1
  C  C251  1  0.74707987  0.78915687  0.13027224  1
  C  C252  1  0.24572884  0.21356533  0.86820327  1
  C  C253  1  0.24983495  0.54480416  0.87656696  1
  C  C254  1  0.24464852  0.87919199  0.86787244  1
  C  C255  1  0.74935123  0.21287686  0.86644738  1
  C  C256  1  0.75284220  0.54442068  0.86690730  1
  C  C257  1  0.73998005  0.87964094  0.86985487  1
  C  C258  1  0.25161514  0.12276401  0.36908122  1
  C  C259  1  0.24874878  0.45241526  0.36642968  1
  C  C260  1  0.25599460  0.79004301  0.37252366  1
  C  C261  1  0.75230754  0.12280992  0.37025776  1
  C  C262  1  0.75492065  0.45436090  0.37033278  1
  C  C263  1  0.75284812  0.78779321  0.37240856  1
  C  C264  1  0.95079759  0.07090587  0.53795758  1
  C  C265  1  0.54688581  0.73933863  0.95886024  1
  C  C266  1  0.17998888  0.90383796  0.95343025  1
  C  C267  1  0.67853792  0.75981893  0.04797265  1
  C  C268  1  0.46941414  0.26260866  0.03461135  1
  C  C269  1  0.28813335  0.09539405  0.46393070  1
  C  C270  1  0.30835358  0.43013373  0.04118448  1
  C  C271  1  0.21952233  0.75724059  0.46563256  1
  C  C272  1  0.68325635  0.23897511  0.95134490  1
  C  C273  1  0.04471940  0.40572561  0.54480748  1
  C  C274  1  0.07289027  0.73650219  0.95491056  1
  C  C275  1  0.94727476  0.93123260  0.45817621  1
  C  C276  1  0.22761503  0.42769784  0.03261328  1
  C  C277  1  0.29169961  0.90950824  0.53677616  1
  C  C278  1  0.05822447  0.25888131  0.04131607  1
  C  C279  1  0.24093127  0.42581083  0.46530513  1
  C  C280  1  0.51630832  0.07468026  0.96636953  1
  C  C281  1  0.43550763  0.07191434  0.95577291  1
  C  C282  1  0.02108680  0.74457361  0.53797055  1
  C  C283  1  0.03118966  0.41016907  0.96393973  1
  C  C284  1  0.78113681  0.57276812  0.96100241  1
  C  C285  1  0.21022092  0.90908416  0.53914641  1
  C  C286  1  0.69049228  0.42032979  0.45308857  1
  C  C287  1  0.04391315  0.25540633  0.46238867  1
  C  C288  1  0.78844538  0.09766278  0.03907896  1
  C  C289  1  0.20672651  0.57222542  0.96723590  1
  C  C290  1  0.27418394  0.75452530  0.03539419  1
  C  C291  1  0.76375361  0.24263294  0.96339491  1
  C  C292  1  0.53322217  0.25230256  0.46126662  1
  C  C293  1  0.55087365  0.26285179  0.03932159  1
  C  C294  1  0.02726274  0.58710785  0.03691237  1
  C  C295  1  0.23332512  0.09374509  0.03822482  1
  C  C296  1  0.03216137  0.07094644  0.53431254  1
  C  C297  1  0.28692275  0.57332603  0.96833181  1
  C  C298  1  0.51769924  0.74718398  0.53541825  1
  C  C299  1  0.26056497  0.90715220  0.96541293  1
  C  C300  1  0.29716485  0.24336601  0.95632365  1
  C  C301  1  0.44159928  0.59729214  0.45496196  1
  C  C302  1  0.72553611  0.75232581  0.46612800  1
  C  C303  1  0.72144668  0.42550355  0.04125584  1
  C  C304  1  0.44908064  0.40493348  0.54130229  1
  C  C305  1  0.02852446  0.93181330  0.46182624  1
  C  C306  1  0.20671507  0.09504324  0.46081450  1
  C  C307  1  0.23438208  0.57350098  0.54049611  1
  C  C308  1  0.52334263  0.59653843  0.46116345  1
  C  C309  1  0.19618371  0.23625526  0.54310896  1
  C  C310  1  0.31956257  0.43051412  0.44966837  1
  C  C311  1  0.81954587  0.09326924  0.45314994  1
  N  N312  1  0.29838009  0.75912744  0.46223972  1
  N  N313  1  0.93368449  0.59781350  0.45421669  1
  N  N314  1  0.70914003  0.09564670  0.04524042  1
  N  N315  1  0.45569827  0.40551477  0.95499897  1
  N  N316  1  0.49310085  0.92264089  0.03695960  1
  N  N317  1  0.51183645  0.92213191  0.46375586  1
  N  N318  1  0.03595693  0.07003957  0.95747152  1
  N  N319  1  0.73143298  0.58076502  0.53665784  1
  N  N320  1  0.53174219  0.40606942  0.95776590  1
  N  N321  1  0.72701699  0.24224323  0.53592452  1
  N  N322  1  0.43428622  0.92488309  0.45808468  1
  N  N323  1  0.81403539  0.90862175  0.55002395  1
  N  N324  1  0.94209213  0.74197598  0.54303376  1
  N  N325  1  0.31123795  0.09539801  0.04814103  1
  N  N326  1  0.75583816  0.75676837  0.03565430  1
  N  N327  1  0.27257872  0.24009204  0.53330085  1
  N  N328  1  0.01046622  0.59414055  0.46352335  1
  N  N329  1  0.97958755  0.25862961  0.03651804  1
  N  N330  1  0.51237675  0.07464423  0.53932764  1
  N  N331  1  0.70171340  0.57277009  0.95756202  1
  N  N332  1  0.31279670  0.57242025  0.54835651  1
  N  N333  1  0.96509692  0.40722810  0.54188854  1
  N  N334  1  0.22027678  0.24550245  0.96400844  1
  N  N335  1  0.95004171  0.59080927  0.04101845  1
  N  N336  1  0.74223461  0.09145688  0.46524224  1
  N  N337  1  0.80285362  0.23942614  0.54369358  1
  N  N338  1  0.45593945  0.25319593  0.46052225  1
  N  N339  1  0.97421748  0.92555582  0.03897618  1
  N  N340  1  0.95399373  0.40949402  0.96339096  1
  N  N341  1  0.46699986  0.59103767  0.03536763  1
  N  N342  1  0.69817813  0.90945962  0.95881688  1
  N  N343  1  0.73759401  0.91084562  0.53880901  1
  N  N344  1  0.46765966  0.73922860  0.95990725  1
  N  N345  1  0.80072531  0.42582420  0.04033504  1
  N  N346  1  0.43565248  0.06924494  0.54799771  1
  N  N347  1  0.99551143  0.74201588  0.96615368  1
  N  N348  1  0.80392140  0.75718432  0.45953669  1
  N  N349  1  0.52742928  0.40955834  0.53424298  1
  N  N350  1  0.80898008  0.56890282  0.54163571  1
  N  N351  1  0.05023069  0.92760435  0.04334685  1
  N  N352  1  0.19490020  0.75458173  0.04131176  1
  N  N353  1  0.56963827  0.92653600  0.04764427  1
  N  N354  1  0.54485356  0.59261256  0.04129204  1
  N  N355  1  0.76803601  0.42068558  0.46414468  1
  N  N356  1  0.96402781  0.25479039  0.46311471  1
  N  N357  1  0.44072074  0.74449719  0.54235278  1
  N  N358  1  0.77610499  0.90864688  0.96343399  1
  N  N359  1  0.95299280  0.06836013  0.96035991  1
  N  N360  1  0.06183264  0.05524807  0.58960281  1
  N  N361  1  0.06426528  0.38819337  0.60251041  1
  N  N362  1  0.05613285  0.72685521  0.59191053  1
  N  N363  1  0.55313587  0.05886903  0.59047096  1
  N  N364  1  0.55850818  0.39198282  0.58966672  1
  N  N365  1  0.55505138  0.72864401  0.58775548  1
  N  N366  1  0.44068579  0.27882873  0.09314008  1
  N  N367  1  0.43895717  0.60819288  0.09087825  1
  N  N368  1  0.45124405  0.94214258  0.08632863  1
  N  N369  1  0.94527744  0.28109121  0.08955712  1
  N  N370  1  0.93559663  0.61073760  0.10124773  1
  N  N371  1  0.94323918  0.94108412  0.09529475  1
  N  N372  1  0.42531039  0.05452723  0.89567033  1
  N  N373  1  0.43413152  0.38784728  0.89658048  1
  N  N374  1  0.44590655  0.72153462  0.90223378  1
  N  N375  1  0.92912264  0.04531329  0.90491925  1
  N  N376  1  0.93342381  0.39066031  0.90433905  1
  N  N377  1  0.95280992  0.72295207  0.91538588  1
  N  N378  1  0.06558590  0.27409397  0.40516829  1
  N  N379  1  0.05084126  0.60938244  0.41207084  1
  N  N380  1  0.05796176  0.94661240  0.40612926  1
  N  N381  1  0.56389817  0.27368352  0.40744877  1
  N  N382  1  0.55507225  0.61178057  0.40456241  1
  N  N383  1  0.54862762  0.94163122  0.41214251  1
  N  N384  1  0.30826069  0.22340030  0.58900708  1
  N  N385  1  0.32350783  0.55528983  0.60796413  1
  N  N386  1  0.31983853  0.89082597  0.59149710  1
  N  N387  1  0.81632691  0.22101616  0.60328800  1
  N  N388  1  0.82292018  0.55805030  0.60169038  1
  N  N389  1  0.81997469  0.88917608  0.60827526  1
  N  N390  1  0.19349992  0.11032149  0.09059538  1
  N  N391  1  0.19139142  0.44309712  0.08554349  1
  N  N392  1  0.17679003  0.77560685  0.09852345  1
  N  N393  1  0.68999428  0.11313148  0.10366133  1
  N  N394  1  0.69361574  0.44275272  0.09795122  1
  N  N395  1  0.67295003  0.77839198  0.10694037  1
  N  N396  1  0.18787225  0.22664967  0.90783676  1
  N  N397  1  0.18327928  0.55519510  0.91103715  1
  N  N398  1  0.17177204  0.88682506  0.89294936  1
  N  N399  1  0.67627108  0.22070259  0.89101113  1
  N  N400  1  0.68605972  0.55514991  0.89820579  1
  N  N401  1  0.67463271  0.89091668  0.90260963  1
  N  N402  1  0.31503178  0.11287710  0.40557714  1
  N  N403  1  0.32387953  0.44650919  0.38997975  1
  N  N404  1  0.32153477  0.77996151  0.40521312  1
  N  N405  1  0.82604736  0.11098927  0.39383190  1
  N  N406  1  0.80894321  0.44399366  0.41400748  1
  N  N407  1  0.82143060  0.78011417  0.40207880  1
  N  N408  1  0.43560240  0.27639273  0.40332189  1
  N  N409  1  0.42542433  0.61288732  0.39499718  1
  N  N410  1  0.42243768  0.94373380  0.39997309  1
  N  N411  1  0.93662882  0.27349069  0.40716991  1
  N  N412  1  0.92603369  0.61331320  0.39460523  1
  N  N413  1  0.92850812  0.94625195  0.39730399  1
  N  N414  1  0.05470116  0.06303572  0.89674637  1
  N  N415  1  0.06160073  0.39266305  0.90857872  1
  N  N416  1  0.07913349  0.71832857  0.89549245  1
  N  N417  1  0.55383444  0.05854229  0.91190918  1
  N  N418  1  0.56045010  0.38809208  0.90149568  1
  N  N419  1  0.57370711  0.72315360  0.90125505  1
  N  N420  1  0.07380246  0.27890697  0.09863930  1
  N  N421  1  0.06289851  0.60410754  0.09058023  1
  N  N422  1  0.06951048  0.94467659  0.10215175  1
  N  N423  1  0.57058118  0.27818048  0.09759493  1
  N  N424  1  0.56585402  0.61083469  0.09819326  1
  N  N425  1  0.57532638  0.94386624  0.10683022  1
  N  N426  1  0.42838951  0.05167201  0.60681694  1
  N  N427  1  0.43163961  0.38582297  0.59980455  1
  N  N428  1  0.42858542  0.72350073  0.60226029  1
  N  N429  1  0.93235658  0.05452690  0.59876823  1
  N  N430  1  0.93534427  0.38524666  0.59619711  1
  N  N431  1  0.92882322  0.72267587  0.60217257  1
  N  N432  1  0.18503001  0.11124078  0.40358016  1
  N  N433  1  0.19712595  0.44016502  0.41196547  1
  N  N434  1  0.19297754  0.77616714  0.40989378  1
  N  N435  1  0.69988384  0.11268630  0.41499715  1
  N  N436  1  0.68235298  0.44064198  0.39492947  1
  N  N437  1  0.69370283  0.77103063  0.41227106  1
  N  N438  1  0.31521673  0.22409259  0.89833768  1
  N  N439  1  0.31408901  0.55677778  0.91304303  1
  N  N440  1  0.29950060  0.89146198  0.91158613  1
  N  N441  1  0.80378940  0.22609004  0.91015503  1
  N  N442  1  0.81366845  0.55611321  0.90573718  1
  N  N443  1  0.80167877  0.89119612  0.90733016  1
  N  N444  1  0.31964949  0.11371184  0.10757237  1
  N  N445  1  0.31955819  0.44774123  0.10225610  1
  N  N446  1  0.30519632  0.77374297  0.08977059  1
  N  N447  1  0.81858676  0.11162395  0.09522705  1
  N  N448  1  0.82181590  0.44403578  0.09794878  1
  N  N449  1  0.79907048  0.77792352  0.08552237  1
  N  N450  1  0.18157196  0.21884715  0.60247019  1
  N  N451  1  0.19689827  0.55747622  0.59410860  1
  N  N452  1  0.18989069  0.88932229  0.59812532  1
  N  N453  1  0.69105806  0.22581253  0.59035520  1
  N  N454  1  0.69644321  0.55806499  0.58773977  1
  N  N455  1  0.69601481  0.88846546  0.58697596  1
  Cl  Cl456  1  0.24447141  0.05014180  0.61834931  1
  Cl  Cl457  1  0.24606683  0.38424513  0.61852041  1
  Cl  Cl458  1  0.24206229  0.72536690  0.61289343  1
  Cl  Cl459  1  0.73454619  0.06200452  0.60579099  1
  Cl  Cl460  1  0.75130330  0.39746772  0.60330109  1
  Cl  Cl461  1  0.74154223  0.72323469  0.61807077  1
  Cl  Cl462  1  0.25579089  0.28524699  0.11996086  1
  Cl  Cl463  1  0.25143091  0.61109679  0.11824894  1
  Cl  Cl464  1  0.26563632  0.94324458  0.11279391  1
  Cl  Cl465  1  0.76063149  0.27582621  0.11426142  1
  Cl  Cl466  1  0.74906561  0.61623015  0.12018306  1
  Cl  Cl467  1  0.76051888  0.94581315  0.12076148  1
  Cl  Cl468  1  0.23739174  0.05622175  0.88553618  1
  Cl  Cl469  1  0.24860861  0.38907741  0.88457842  1
  Cl  Cl470  1  0.26198758  0.72022084  0.88205217  1
  Cl  Cl471  1  0.74276777  0.05926315  0.89202702  1
  Cl  Cl472  1  0.74527741  0.39124299  0.87897362  1
  Cl  Cl473  1  0.76835154  0.73064102  0.89648308  1
  Cl  Cl474  1  0.24898960  0.27983743  0.38087163  1
  Cl  Cl475  1  0.23244828  0.61156702  0.38944095  1
  Cl  Cl476  1  0.23977467  0.94689016  0.38017367  1
  Cl  Cl477  1  0.75242610  0.28248372  0.38136821  1
  Cl  Cl478  1  0.73930900  0.60676914  0.39190595  1
  Cl  Cl479  1  0.72923000  0.93576314  0.39878974  1
  Cl  Cl480  1  -0.00147960  0.22156536  0.62219663  1
  Cl  Cl481  1  0.01195707  0.55690135  0.60071474  1
  Cl  Cl482  1  0.00509440  0.88570532  0.62121198  1
  Cl  Cl483  1  0.50258960  0.22137274  0.60504668  1
  Cl  Cl484  1  0.51479750  0.56181869  0.61359816  1
  Cl  Cl485  1  0.51337224  0.89402851  0.60723480  1
  Cl  Cl486  1  0.00510740  0.11168605  0.09852481  1
  Cl  Cl487  1  0.00792153  0.44429929  0.12429617  1
  Cl  Cl488  1  -0.01589178  0.76960797  0.10431817  1
  Cl  Cl489  1  0.50754567  0.11019162  0.12673443  1
  Cl  Cl490  1  0.50897194  0.44677681  0.11577563  1
  Cl  Cl491  1  0.48831558  0.78170124  0.11971293  1
  Cl  Cl492  1  -0.00677024  0.22148900  0.89869400  1
  Cl  Cl493  1  -0.00226639  0.55130008  0.87658310  1
  Cl  Cl494  1  -0.01562478  0.88067082  0.88256166  1
  Cl  Cl495  1  0.49437510  0.21913398  0.87054929  1
  Cl  Cl496  1  0.50177956  0.55574341  0.88025155  1
  Cl  Cl497  1  0.48527822  0.89509731  0.89577758  1
  Cl  Cl498  1  0.00540137  0.11614446  0.36750088  1
  Cl  Cl499  1  -0.00202439  0.43723632  0.40156257  1
  Cl  Cl500  1  0.00924853  0.77786406  0.38049906  1
  Cl  Cl501  1  0.51571198  0.10768820  0.40060978  1
  Cl  Cl502  1  0.50378814  0.44606422  0.37191716  1
  Cl  Cl503  1  0.50770904  0.77921500  0.38674328  1
  Cl  Cl504  1  0.36120760  0.14399644  0.75158988  1
  Cl  Cl505  1  0.36215054  0.48072949  0.75013772  1
  Cl  Cl506  1  0.36347668  0.81411799  0.74542653  1
  Cl  Cl507  1  0.86217827  0.14655134  0.74883103  1
  Cl  Cl508  1  0.86832256  0.47681344  0.73438379  1
  Cl  Cl509  1  0.85930523  0.81580362  0.74342375  1
  Cl  Cl510  1  0.14215172  0.18443838  0.24659648  1
  Cl  Cl511  1  0.14617052  0.51715267  0.24914764  1
  Cl  Cl512  1  0.13908191  0.85125066  0.24052656  1
  Cl  Cl513  1  0.64369446  0.18324911  0.24768383  1
  Cl  Cl514  1  0.64025668  0.51780670  0.25381397  1
  Cl  Cl515  1  0.64185672  0.85509429  0.24267661  1
  Cl  Cl516  1  0.14058341  0.14747620  0.74933821  1
  Cl  Cl517  1  0.13935232  0.48308209  0.74922196  1
  Cl  Cl518  1  0.14121544  0.81230118  0.75810806  1
  Cl  Cl519  1  0.64149595  0.14744103  0.75323570  1
  Cl  Cl520  1  0.64840068  0.48372603  0.74971610  1
  Cl  Cl521  1  0.64037951  0.81543042  0.75648608  1
  Cl  Cl522  1  0.36593705  0.18545065  0.24633954  1
  Cl  Cl523  1  0.36801610  0.52150399  0.25118248  1
  Cl  Cl524  1  0.35647610  0.84960574  0.25433627  1
  Cl  Cl525  1  0.86455852  0.18543521  0.25363467  1
  Cl  Cl526  1  0.86201972  0.51987989  0.25272272  1
  Cl  Cl527  1  0.86251405  0.85204513  0.26147869  1
  Cl  Cl528  1  0.10962096  0.31543971  0.74808413  1
  Cl  Cl529  1  0.10906066  0.65029740  0.75166083  1
  Cl  Cl530  1  0.10733058  0.98053274  0.76148849  1
  Cl  Cl531  1  0.60930063  0.31446177  0.74625433  1
  Cl  Cl532  1  0.61481724  0.64747865  0.75296377  1
  Cl  Cl533  1  0.60830361  0.98274177  0.75666242  1
  Cl  Cl534  1  0.39395072  0.01723841  0.25496939  1
  Cl  Cl535  1  0.38819859  0.35550127  0.25340532  1
  Cl  Cl536  1  0.39263151  0.68633749  0.25433482  1
  Cl  Cl537  1  0.89277963  0.01924526  0.24999127  1
  Cl  Cl538  1  0.89500130  0.35297545  0.25085496  1
  Cl  Cl539  1  0.88521486  0.68662238  0.25485401  1
  Cl  Cl540  1  0.38616088  0.31211258  0.74525340  1
  Cl  Cl541  1  0.39417480  0.64712993  0.74161325  1
  Cl  Cl542  1  0.38829550  0.97852944  0.74906763  1
  Cl  Cl543  1  0.88970196  0.31240437  0.75427517  1
  Cl  Cl544  1  0.88589319  0.64682771  0.74113875  1
  Cl  Cl545  1  0.88936179  0.98163095  0.74351327  1
  Cl  Cl546  1  0.11075076  0.01710132  0.24251102  1
  Cl  Cl547  1  0.11107094  0.34928036  0.25570179  1
  Cl  Cl548  1  0.10786801  0.68357581  0.24697753  1
  Cl  Cl549  1  0.61443069  0.01817421  0.24648194  1
  Cl  Cl550  1  0.61102675  0.34989214  0.24578296  1
  Cl  Cl551  1  0.61315375  0.68809526  0.24274944  1
