# generated using pymatgen
data_H8PbC4(N3Cl2)2
_symmetry_space_group_name_H-M   'P 1'
_cell_length_a   16.63225005
_cell_length_b   22.53300539
_cell_length_c   21.59759064
_cell_angle_alpha   89.99734248
_cell_angle_beta   89.93345305
_cell_angle_gamma   90.01551479
_symmetry_Int_Tables_number   1
_chemical_formula_structural   H8PbC4(N3Cl2)2
_chemical_formula_sum   'H192 Pb24 C96 N144 Cl96'
_cell_volume   8094.22219573
_cell_formula_units_Z   24
loop_
 _symmetry_equiv_pos_site_id
 _symmetry_equiv_pos_as_xyz
  1  'x, y, z'
loop_
 _atom_site_type_symbol
 _atom_site_label
 _atom_site_symmetry_multiplicity
 _atom_site_fract_x
 _atom_site_fract_y
 _atom_site_fract_z
 _atom_site_occupancy
  H  H0  1  0.00814093  0.02921110  0.67522119  1
  H  H1  1  -0.00758783  0.35694297  0.67477852  1
  H  H2  1  0.01182992  0.69773497  0.68469895  1
  H  H3  1  0.49977743  0.02605690  0.68529928  1
  H  H4  1  0.50942324  0.36280504  0.67603104  1
  H  H5  1  0.52735343  0.69041189  0.65270932  1
  H  H6  1  0.01491319  0.30481907  0.16975189  1
  H  H7  1  -0.00558196  0.63957743  0.17527179  1
  H  H8  1  0.01417472  0.96920469  0.17454714  1
  H  H9  1  0.48735736  0.29997029  0.17868952  1
  H  H10  1  0.51541669  0.64237359  0.17601704  1
  H  H11  1  0.47969072  0.97208035  0.17354179  1
  H  H12  1  -0.00304904  0.02479448  0.82809400  1
  H  H13  1  -0.01968178  0.35909107  0.82636300  1
  H  H14  1  0.01901637  0.69306007  0.82242391  1
  H  H15  1  0.49667431  0.02242932  0.82802144  1
  H  H16  1  0.51569598  0.36412958  0.82528121  1
  H  H17  1  0.49998540  0.69565976  0.82801016  1
  H  H18  1  -0.01053461  0.30514888  0.31851875  1
  H  H19  1  -0.01878174  0.64333670  0.34658791  1
  H  H20  1  -0.00051830  0.97105260  0.32418868  1
  H  H21  1  0.51549798  0.30669505  0.32642614  1
  H  H22  1  0.48834425  0.63594946  0.32257008  1
  H  H23  1  0.50434407  0.96709377  0.32087413  1
  H  H24  1  0.25198423  0.19544789  0.67330495  1
  H  H25  1  0.24434433  0.52487964  0.68091643  1
  H  H26  1  0.24252183  0.86460335  0.67523422  1
  H  H27  1  0.74300272  0.19740432  0.68473382  1
  H  H28  1  0.76521343  0.53084987  0.65042815  1
  H  H29  1  0.74513670  0.86372301  0.68468531  1
  H  H30  1  0.27118880  0.13545039  0.17289163  1
  H  H31  1  0.24696535  0.47236265  0.17517380  1
  H  H32  1  0.24351833  0.80717361  0.17732748  1
  H  H33  1  0.73227221  0.13850827  0.17070406  1
  H  H34  1  0.75888460  0.46973841  0.18307926  1
  H  H35  1  0.75246298  0.80526209  0.17828387  1
  H  H36  1  0.26815838  0.18922930  0.82650866  1
  H  H37  1  0.25562916  0.53025120  0.81914421  1
  H  H38  1  0.25101985  0.86146064  0.82119626  1
  H  H39  1  0.72236022  0.19223521  0.83241293  1
  H  H40  1  0.74447853  0.53152347  0.81690863  1
  H  H41  1  0.74826956  0.86088022  0.82344587  1
  H  H42  1  0.27541287  0.14152901  0.32432720  1
  H  H43  1  0.23748556  0.46728492  0.32203538  1
  H  H44  1  0.24996472  0.81205548  0.32516166  1
  H  H45  1  0.72621315  0.13853886  0.32408361  1
  H  H46  1  0.76923957  0.47835605  0.32672601  1
  H  H47  1  0.72164382  0.80041301  0.34013619  1
  H  H48  1  0.12367248  0.05531411  0.59996147  1
  H  H49  1  0.13043093  0.38169113  0.62137456  1
  H  H50  1  0.13676823  0.72501573  0.61423277  1
  H  H51  1  0.62587775  0.05172003  0.61864504  1
  H  H52  1  0.62828917  0.39532060  0.60554461  1
  H  H53  1  0.66639406  0.71299041  0.60157919  1
  H  H54  1  0.38485467  0.26902278  0.09234463  1
  H  H55  1  0.37017377  0.61876929  0.13348814  1
  H  H56  1  0.37691623  0.94461312  0.08844625  1
  H  H57  1  0.87890009  0.28020561  0.11463796  1
  H  H58  1  0.86993773  0.61388538  0.10483491  1
  H  H59  1  0.87377132  0.94872566  0.12092364  1
  H  H60  1  0.37748421  0.05532402  0.89885445  1
  H  H61  1  0.37100811  0.37909252  0.87379088  1
  H  H62  1  0.36686088  0.72059800  0.88857360  1
  H  H63  1  0.87710272  0.05623512  0.89977228  1
  H  H64  1  0.87722417  0.39281234  0.91026475  1
  H  H65  1  0.87665691  0.71877718  0.86919072  1
  H  H66  1  0.11702134  0.28094243  0.38430594  1
  H  H67  1  0.08394347  0.59852022  0.42460979  1
  H  H68  1  0.12157944  0.94591216  0.39478170  1
  H  H69  1  0.60913813  0.27327720  0.41571121  1
  H  H70  1  0.61666571  0.61433839  0.38771235  1
  H  H71  1  0.61314796  0.93973953  0.40387429  1
  H  H72  1  0.38082873  0.22383926  0.60840002  1
  H  H73  1  0.38610453  0.55127230  0.63306409  1
  H  H74  1  0.38132576  0.88255346  0.61824324  1
  H  H75  1  0.88053107  0.21373325  0.62920413  1
  H  H76  1  0.90404188  0.55066436  0.59994992  1
  H  H77  1  0.87810265  0.88645199  0.62068516  1
  H  H78  1  0.12825403  0.11888992  0.12301687  1
  H  H79  1  0.13299606  0.44240503  0.09712056  1
  H  H80  1  0.13961720  0.77405477  0.09492140  1
  H  H81  1  0.63002629  0.10282016  0.08805219  1
  H  H82  1  0.63302258  0.44468674  0.11353669  1
  H  H83  1  0.63111419  0.78147618  0.10684084  1
  H  H84  1  0.12298632  0.21342786  0.86928022  1
  H  H85  1  0.13557182  0.55259358  0.89303023  1
  H  H86  1  0.12689525  0.89046185  0.89188075  1
  H  H87  1  0.62718881  0.22698700  0.92012479  1
  H  H88  1  0.64195424  0.56324725  0.90176709  1
  H  H89  1  0.63350542  0.89005640  0.90110654  1
  H  H90  1  0.36826940  0.10312564  0.41369023  1
  H  H91  1  0.37395382  0.44942589  0.37956665  1
  H  H92  1  0.34951984  0.77265314  0.40913779  1
  H  H93  1  0.87319228  0.12211498  0.36431380  1
  H  H94  1  0.86170723  0.43951007  0.41469981  1
  H  H95  1  0.83605402  0.77001375  0.41434332  1
  H  H96  1  0.36948959  0.28589187  0.36773288  1
  H  H97  1  0.36839023  0.61072064  0.39374633  1
  H  H98  1  0.36695681  0.94658719  0.37636051  1
  H  H99  1  0.86861629  0.28044028  0.39354664  1
  H  H100  1  0.83850448  0.61842393  0.39366884  1
  H  H101  1  0.87289693  0.94561805  0.38920703  1
  H  H102  1  0.12549726  0.05184157  0.89121206  1
  H  H103  1  0.12067101  0.38472373  0.87476262  1
  H  H104  1  0.11710884  0.72643658  0.90910726  1
  H  H105  1  0.62590362  0.05220262  0.89127801  1
  H  H106  1  0.61257649  0.39456279  0.91382890  1
  H  H107  1  0.61548319  0.72725418  0.90322241  1
  H  H108  1  0.12524454  0.27335446  0.08986084  1
  H  H109  1  0.11920906  0.61055155  0.10902162  1
  H  H110  1  0.11822053  0.94040081  0.08895114  1
  H  H111  1  0.62847487  0.28002754  0.12599512  1
  H  H112  1  0.61153680  0.60873149  0.08779739  1
  H  H113  1  0.62035621  0.95414575  0.12538607  1
  H  H114  1  0.37714256  0.05474204  0.61374354  1
  H  H115  1  0.37986493  0.38442488  0.61234840  1
  H  H116  1  0.42128730  0.73349048  0.57626921  1
  H  H117  1  0.87516096  0.04945680  0.61310450  1
  H  H118  1  0.88468832  0.39332104  0.59521884  1
  H  H119  1  0.88907701  0.71852551  0.61040688  1
  H  H120  1  0.12930121  0.12003512  0.36728592  1
  H  H121  1  0.12819053  0.43883034  0.40504199  1
  H  H122  1  0.10781792  0.78638334  0.36937614  1
  H  H123  1  0.63512867  0.10196280  0.41446357  1
  H  H124  1  0.62268015  0.45830914  0.36767015  1
  H  H125  1  0.58879575  0.77785465  0.39916231  1
  H  H126  1  0.36155511  0.22515079  0.91562575  1
  H  H127  1  0.38357253  0.55218009  0.88256566  1
  H  H128  1  0.37542293  0.89065972  0.89185295  1
  H  H129  1  0.86742823  0.21277804  0.87612583  1
  H  H130  1  0.88621765  0.54797228  0.86976069  1
  H  H131  1  0.88093366  0.88588212  0.88310303  1
  H  H132  1  0.37073088  0.09985805  0.08951554  1
  H  H133  1  0.38012810  0.44961743  0.11440901  1
  H  H134  1  0.38435753  0.78677904  0.12455914  1
  H  H135  1  0.87365760  0.11904234  0.11893517  1
  H  H136  1  0.88198811  0.44133701  0.11407973  1
  H  H137  1  0.87931721  0.78426783  0.11272878  1
  H  H138  1  0.13187234  0.22378736  0.60211322  1
  H  H139  1  0.14514625  0.55477983  0.59300257  1
  H  H140  1  0.13597897  0.89561913  0.59221855  1
  H  H141  1  0.63403335  0.22661601  0.60466479  1
  H  H142  1  0.66030080  0.56719419  0.57147749  1
  H  H143  1  0.63002466  0.88608440  0.60620101  1
  H  H144  1  0.95684787  0.42045820  1.00823256  1
  H  H145  1  0.14130708  0.08457723  0.01502212  1
  H  H146  1  0.27064897  0.74973682  0.50740252  1
  H  H147  1  0.77217352  0.41917945  0.51098562  1
  H  H148  1  0.93026029  0.08391452  1.00314131  1
  H  H149  1  0.55405977  0.75665477  1.00541755  1
  H  H150  1  0.41802184  0.58038250  0.50422171  1
  H  H151  1  0.35727554  0.91325409  0.50908879  1
  H  H152  1  0.52168341  0.24908567  0.51130882  1
  H  H153  1  0.87571597  0.08519866  0.47694499  1
  H  H154  1  0.72428425  0.08215908  0.50858345  1
  H  H155  1  0.41294426  0.41911961  0.50202421  1
  H  H156  1  0.11789351  0.75266037  0.48147081  1
  H  H157  1  0.78081981  0.73875473  0.52208728  1
  H  H158  1  0.71917013  0.59666214  1.00053580  1
  H  H159  1  0.68142735  0.42467164  0.00596829  1
  H  H160  1  0.27608152  0.07830435  0.50656682  1
  H  H161  1  0.36844809  0.75897072  0.01411788  1
  H  H162  1  0.03189907  0.75380547  1.00525586  1
  H  H163  1  0.69203067  0.91496001  0.49994863  1
  H  H164  1  0.86117009  0.24493870  0.51653133  1
  H  H165  1  0.34865915  0.57977961  -0.00302711  1
  H  H166  1  0.60900928  0.92190724  1.01069235  1
  H  H167  1  0.07433785  0.57238015  0.00104063  1
  H  H168  1  0.91679057  0.58244800  0.00136136  1
  H  H169  1  0.89410680  0.91979926  0.01166082  1
  H  H170  1  0.34325837  0.25084132  0.50005183  1
  H  H171  1  0.70068411  0.25569893  0.49931639  1
  H  H172  1  0.06740706  0.08353796  0.49100160  1
  H  H173  1  0.27256556  0.25258639  1.00841224  1
  H  H174  1  0.58276241  0.08191505  0.50781647  1
  H  H175  1  0.38113369  0.41511525  0.98179939  1
  H  H176  1  0.84093140  0.75593568  0.99943781  1
  H  H177  1  0.52514951  0.58213270  -0.00770630  1
  H  H178  1  0.00945075  0.57404139  0.52446850  1
  H  H179  1  0.83287666  0.40485486  0.00630535  1
  H  H180  1  0.85988583  0.24515335  0.98592862  1
  H  H181  1  0.46542522  0.24380400  -0.00504652  1
  H  H182  1  0.22693181  0.58250498  0.49686788  1
  H  H183  1  0.52655266  0.41007383  1.01121173  1
  H  H184  1  0.95842450  0.41810166  0.49417013  1
  H  H185  1  0.06008743  0.24631815  -0.00988707  1
  H  H186  1  0.57985778  0.42319525  0.49599095  1
  H  H187  1  0.91234231  0.91283587  0.50024524  1
  H  H188  1  0.18351176  0.25783971  0.49444461  1
  H  H189  1  0.21383824  0.74270027  -0.00725712  1
  H  H190  1  0.49149129  0.75680365  0.47439958  1
  H  H191  1  0.43035504  0.07317521  0.50682716  1
  Pb  Pb192  1  0.25358437  0.05115128  0.74762925  1
  Pb  Pb193  1  0.25632951  0.38208328  0.74865951  1
  Pb  Pb194  1  0.26268949  0.71807682  0.74416574  1
  Pb  Pb195  1  0.75765241  0.05129878  0.74938371  1
  Pb  Pb196  1  0.75858125  0.38747001  0.76154593  1
  Pb  Pb197  1  0.75171445  0.71502395  0.75985993  1
  Pb  Pb198  1  0.24246870  0.28029726  0.24097785  1
  Pb  Pb199  1  0.23736107  0.61491437  0.26404166  1
  Pb  Pb200  1  0.24252461  0.95071028  0.24078472  1
  Pb  Pb201  1  0.74451480  0.28371695  0.25913183  1
  Pb  Pb202  1  0.74206190  0.61769333  0.23608358  1
  Pb  Pb203  1  0.74624019  0.94539756  0.25763967  1
  Pb  Pb204  1  0.00624240  0.21770354  0.74959789  1
  Pb  Pb205  1  0.01198629  0.55078717  0.75189009  1
  Pb  Pb206  1  0.00620176  0.88341596  0.74456112  1
  Pb  Pb207  1  0.50376927  0.21672307  0.75994285  1
  Pb  Pb208  1  0.51337496  0.55220266  0.75040448  1
  Pb  Pb209  1  0.50843319  0.88468849  0.75489228  1
  Pb  Pb210  1  -0.00744318  0.11628147  0.24196217  1
  Pb  Pb211  1  -0.00737508  0.44770937  0.25482423  1
  Pb  Pb212  1  -0.00457083  0.78030827  0.24718975  1
  Pb  Pb213  1  0.49592285  0.11182109  0.24984563  1
  Pb  Pb214  1  0.49398866  0.44994117  0.24263294  1
  Pb  Pb215  1  0.49097064  0.78265684  0.24924456  1
  C  C216  1  0.00273412  0.04428393  0.62771439  1
  C  C217  1  0.00220480  0.37521576  0.62910585  1
  C  C218  1  0.01293023  0.71304880  0.63707867  1
  C  C219  1  0.50018494  0.04210242  0.63782770  1
  C  C220  1  0.50586435  0.38055043  0.62928625  1
  C  C221  1  0.53782707  0.71089947  0.60784201  1
  C  C222  1  0.00690332  0.28707278  0.12343769  1
  C  C223  1  -0.00608929  0.62153005  0.12853821  1
  C  C224  1  0.00166509  0.95340123  0.12809379  1
  C  C225  1  0.49994585  0.28379303  0.13238622  1
  C  C226  1  0.49916066  0.62455891  0.13111563  1
  C  C227  1  0.49338226  0.95638218  0.12731271  1
  C  C228  1  -0.00058520  0.04308128  0.87447095  1
  C  C229  1  -0.00763308  0.37725236  0.87179423  1
  C  C230  1  0.00427888  0.71116725  0.86753104  1
  C  C231  1  0.50026257  0.04232310  0.87346115  1
  C  C232  1  0.49945423  0.37916342  0.87153635  1
  C  C233  1  0.49451284  0.71356183  0.87450183  1
  C  C234  1  -0.00868592  0.28952237  0.36574789  1
  C  C235  1  -0.03169418  0.62199338  0.39067751  1
  C  C236  1  -0.00259201  0.95458519  0.37129435  1
  C  C237  1  0.49804919  0.28955713  0.37153731  1
  C  C238  1  0.49060906  0.62045995  0.37000904  1
  C  C239  1  0.49491070  0.95158730  0.36772543  1
  C  C240  1  0.25565175  0.21292577  0.62641286  1
  C  C241  1  0.25847083  0.54234054  0.63548385  1
  C  C242  1  0.25379944  0.88070826  0.62872696  1
  C  C243  1  0.75305608  0.21220730  0.63748336  1
  C  C244  1  0.77728975  0.54875095  0.60477255  1
  C  C245  1  0.75140221  0.87863365  0.63715508  1
  C  C246  1  0.25603882  0.11896031  0.12724991  1
  C  C247  1  0.25329313  0.45583171  0.12837312  1
  C  C248  1  0.25677799  0.79183975  0.13064344  1
  C  C249  1  0.74560562  0.12096915  0.12525301  1
  C  C250  1  0.75724694  0.45427332  0.13540761  1
  C  C251  1  0.75499016  0.79091095  0.13051599  1
  C  C252  1  0.25107255  0.20795562  0.87080697  1
  C  C253  1  0.25893755  0.54471837  0.86685447  1
  C  C254  1  0.25107594  0.87950014  0.86777759  1
  C  C255  1  0.73957708  0.21004345  0.87706586  1
  C  C256  1  0.75816126  0.54618932  0.86365376  1
  C  C257  1  0.75408826  0.87819869  0.86989313  1
  C  C258  1  0.25810005  0.12247271  0.36856063  1
  C  C259  1  0.24608634  0.45253088  0.36917116  1
  C  C260  1  0.23585233  0.79258391  0.36991522  1
  C  C261  1  0.74481448  0.12222751  0.36936976  1
  C  C262  1  0.75142677  0.46039485  0.37130783  1
  C  C263  1  0.71524787  0.78453409  0.38749849  1
  C  C264  1  0.16819016  0.76106808  0.45050905  1
  C  C265  1  0.90301166  0.58917729  0.47319745  1
  C  C266  1  0.03144218  0.07221058  0.53135177  1
  C  C267  1  0.45819506  0.40897313  0.53798121  1
  C  C268  1  0.74498107  0.75260746  0.48257440  1
  C  C269  1  0.75639488  0.58397544  0.50936123  1
  C  C270  1  0.43909095  0.92511930  0.45511578  1
  C  C271  1  0.71728860  0.76485460  0.03643439  1
  C  C272  1  0.54027246  0.41185701  0.53533640  1
  C  C273  1  0.03561628  0.92519220  0.46420089  1
  C  C274  1  0.04737649  0.07362051  0.96502994  1
  C  C275  1  0.82068164  0.09411676  0.44751785  1
  C  C276  1  0.03523517  0.58676288  0.03873085  1
  C  C277  1  0.26905167  0.08341695  0.03154069  1
  C  C278  1  0.06340343  0.40912445  0.54479455  1
  C  C279  1  0.03451410  0.25997694  0.45665026  1
  C  C280  1  0.95048373  0.06920667  0.53755785  1
  C  C281  1  0.30142670  0.42616080  0.45715346  1
  C  C282  1  0.53728413  0.59302007  0.46121474  1
  C  C283  1  0.44187034  0.74553580  0.96265053  1
  C  C284  1  0.30268678  0.42957445  0.03846576  1
  C  C285  1  0.55833949  0.93025355  0.04155437  1
  C  C286  1  0.80382810  0.90764472  0.95871561  1
  C  C287  1  0.73327356  0.08502934  0.03149038  1
  C  C288  1  0.66224963  0.75624713  0.47805011  1
  C  C289  1  0.42416841  0.26181219  0.45179148  1
  C  C290  1  0.79883895  0.76522515  0.03699381  1
  C  C291  1  0.54398312  0.07181763  0.54694898  1
  C  C292  1  0.73186451  0.24194347  0.54122838  1
  C  C293  1  0.24073238  0.75833678  0.03575942  1
  C  C294  1  0.05812807  0.41315862  0.95324987  1
  C  C295  1  0.81297810  0.23668999  0.54962443  1
  C  C296  1  0.72549274  0.90462605  0.54194873  1
  C  C297  1  0.22022674  0.24449818  0.53394349  1
  C  C298  1  0.45591925  0.59161163  0.46480628  1
  C  C299  1  0.46906383  0.07986824  0.96350058  1
  C  C300  1  0.59988816  0.74365016  0.52355410  1
  C  C301  1  0.94877543  0.25735189  0.03644672  1
  C  C302  1  0.74646980  0.57977908  0.95794245  1
  C  C303  1  0.79662344  0.42209280  0.04420025  1
  C  C304  1  0.73164611  0.24534242  0.97326938  1
  C  C305  1  0.42742446  0.59274127  0.05159519  1
  C  C306  1  0.22327406  0.57045655  0.96159702  1
  C  C307  1  0.95429056  0.92413869  0.46351060  1
  C  C308  1  0.67630738  0.43153546  0.45047892  1
  C  C309  1  0.47817669  0.92720416  0.03037158  1
  C  C310  1  0.83895513  0.57736478  0.51745079  1
  C  C311  1  0.30473971  0.57044330  0.95972373  1
  N  N312  1  0.52011192  0.75234402  0.51737035  1
  N  N313  1  0.22484854  0.42199656  0.46623046  1
  N  N314  1  0.54624728  0.07939557  0.96216530  1
  N  N315  1  0.94280670  0.92596650  0.04386488  1
  N  N316  1  0.01165908  0.74694375  0.95994693  1
  N  N317  1  0.32573756  0.57349902  0.55406360  1
  N  N318  1  0.31852521  0.76459393  0.04642442  1
  N  N319  1  0.01965617  0.92233949  0.03214872  1
  N  N320  1  0.46433021  0.07316993  0.54640218  1
  N  N321  1  0.43149969  0.39997529  0.95411285  1
  N  N322  1  0.98534851  0.41103582  0.53663554  1
  N  N323  1  0.50051981  0.25694926  0.46652748  1
  N  N324  1  0.50399511  0.58930596  0.03737151  1
  N  N325  1  0.19231275  0.09145990  0.04381078  1
  N  N326  1  0.80957791  0.09044860  0.04015509  1
  N  N327  1  0.95694157  0.25962057  0.46037489  1
  N  N328  1  0.05198810  0.74293625  0.54559746  1
  N  N329  1  0.29982209  0.24386380  0.53691695  1
  N  N330  1  0.50748952  0.41305935  0.96535340  1
  N  N331  1  0.93549061  0.74402534  0.94764796  1
  N  N332  1  0.30974904  0.90660390  0.54287525  1
  N  N333  1  0.74419714  0.08793263  0.46362255  1
  N  N334  1  0.71700124  0.42450551  0.04465216  1
  N  N335  1  0.17768211  0.23973368  0.94913354  1
  N  N336  1  0.51579537  0.92250986  0.46515381  1
  N  N337  1  0.80762293  0.23940213  0.95784716  1
  N  N338  1  0.18339709  0.09135807  0.44628923  1
  N  N339  1  0.52074401  0.74775678  0.96644377  1
  N  N340  1  0.72637678  0.90980468  0.96550331  1
  N  N341  1  0.24956448  0.57538052  0.54203787  1
  N  N342  1  0.56547833  0.25587452  0.04852398  1
  N  N343  1  0.98069953  0.41356979  0.96483759  1
  N  N344  1  0.48874758  0.25201395  0.03888105  1
  N  N345  1  0.75245861  0.42524749  0.46524034  1
  N  N346  1  0.22565343  0.42621840  0.03215468  1
  N  N347  1  0.21310444  0.91166751  0.95960031  1
  N  N348  1  0.97583936  0.74145341  0.54404108  1
  N  N349  1  0.96805122  0.07532627  0.96645401  1
  N  N350  1  0.24571583  0.75628947  0.46315878  1
  N  N351  1  0.25330604  0.24452626  0.96297937  1
  N  N352  1  0.82425114  0.57304582  0.94835734  1
  N  N353  1  0.25876477  0.08583792  0.46073897  1
  N  N354  1  0.28922338  0.91213234  0.95933874  1
  N  N355  1  0.95556152  0.58816862  0.03858644  1
  N  N356  1  0.80432864  0.90441391  0.54662711  1
  N  N357  1  0.02742795  0.25534947  0.02940762  1
  N  N358  1  -0.01763268  0.57953400  0.48107440  1
  N  N359  1  0.23280660  0.91123374  0.53310965  1
  N  N360  1  0.06296839  0.05647372  0.58906240  1
  N  N361  1  0.07396788  0.38805045  0.60245260  1
  N  N362  1  0.07690811  0.72358520  0.60219672  1
  N  N363  1  0.56638584  0.05435887  0.60406934  1
  N  N364  1  0.56831170  0.39451656  0.59280559  1
  N  N365  1  0.60993401  0.72054304  0.58159226  1
  N  N366  1  0.44716995  0.27093232  0.08858274  1
  N  N367  1  0.42395701  0.61292985  0.11024480  1
  N  N368  1  0.43895674  0.94265843  0.08212353  1
  N  N369  1  0.93591870  0.27576201  0.09509905  1
  N  N370  1  0.93044747  0.61134738  0.09337958  1
  N  N371  1  0.93093519  0.94573089  0.10167417  1
  N  N372  1  0.43794816  0.05789751  0.91009450  1
  N  N373  1  0.42636207  0.38831864  0.89362804  1
  N  N374  1  0.42517223  0.72523702  0.90512356  1
  N  N375  1  0.93813553  0.05538119  0.91097728  1
  N  N376  1  0.93881545  0.38894257  0.91557335  1
  N  N377  1  0.93168737  0.72397908  0.88949996  1
  N  N378  1  0.05770995  0.27812827  0.39948272  1
  N  N379  1  0.02211410  0.60387543  0.43165913  1
  N  N380  1  0.06152127  0.94335092  0.40865985  1
  N  N381  1  0.54674751  0.27660896  0.41777243  1
  N  N382  1  0.55772899  0.61030603  0.40420685  1
  N  N383  1  0.55050358  0.93945382  0.40927471  1
  N  N384  1  0.32130523  0.22281280  0.59351483  1
  N  N385  1  0.33067656  0.55509510  0.61277113  1
  N  N386  1  0.32373333  0.88807308  0.60077987  1
  N  N387  1  0.82442738  0.21834704  0.60941050  1
  N  N388  1  0.84891935  0.55568206  0.57827932  1
  N  N389  1  0.81886748  0.88828233  0.60621755  1
  N  N390  1  0.18399397  0.11385593  0.10260783  1
  N  N391  1  0.19486775  0.44318951  0.08928184  1
  N  N392  1  0.20204040  0.77520869  0.08794353  1
  N  N393  1  0.69168192  0.10316397  0.08222209  1
  N  N394  1  0.69302403  0.44789819  0.09994182  1
  N  N395  1  0.69126490  0.78035691  0.09278898  1
  N  N396  1  0.17721886  0.21950346  0.89089326  1
  N  N397  1  0.19612513  0.55514695  0.90541166  1
  N  N398  1  0.18789200  0.89116666  0.90310223  1
  N  N399  1  0.68900303  0.22763031  0.92326797  1
  N  N400  1  0.70471978  0.56288560  0.90678145  1
  N  N401  1  0.69538048  0.89077887  0.90891349  1
  N  N402  1  0.30582980  0.10694330  0.41474885  1
  N  N403  1  0.31686136  0.44421223  0.39814692  1
  N  N404  1  0.28751128  0.77904315  0.41432481  1
  N  N405  1  0.82079399  0.11375242  0.38865095  1
  N  N406  1  0.79984010  0.44644967  0.41757512  1
  N  N407  1  0.77542061  0.77054562  0.42635918  1
  N  N408  1  0.42228871  0.28022278  0.39215441  1
  N  N409  1  0.42771395  0.60891902  0.40666150  1
  N  N410  1  0.42377510  0.94207531  0.39560485  1
  N  N411  1  0.92975627  0.27821866  0.40264943  1
  N  N412  1  0.89501829  0.61301091  0.41535664  1
  N  N413  1  0.93158081  0.94256778  0.40442667  1
  N  N414  1  0.06681920  0.05488867  0.90749033  1
  N  N415  1  0.06540696  0.39142669  0.89557941  1
  N  N416  1  0.05478238  0.72390733  0.91284516  1
  N  N417  1  0.56599922  0.05540836  0.90485796  1
  N  N418  1  0.55029967  0.39027340  0.91747722  1
  N  N419  1  0.55373323  0.72625421  0.91278888  1
  N  N420  1  0.06377402  0.27542872  0.08264116  1
  N  N421  1  0.05921834  0.60640879  0.09486477  1
  N  N422  1  0.05594334  0.93892345  0.08511157  1
  N  N423  1  0.57190606  0.27398697  0.10736489  1
  N  N424  1  0.54913827  0.61218908  0.08526083  1
  N  N425  1  0.56609073  0.94808982  0.10292705  1
  N  N426  1  0.43749668  0.05064723  0.60133841  1
  N  N427  1  0.43862827  0.38963020  0.59674244  1
  N  N428  1  0.48233969  0.72780348  0.56764400  1
  N  N429  1  0.93329641  0.05265546  0.59589589  1
  N  N430  1  0.94638181  0.38788252  0.58752815  1
  N  N431  1  0.95033216  0.72403017  0.60101061  1
  N  N432  1  0.18376709  0.11203949  0.38834899  1
  N  N433  1  0.19005215  0.43891551  0.41010402  1
  N  N434  1  0.16169073  0.78173680  0.39224673  1
  N  N435  1  0.69704879  0.10865845  0.41646816  1
  N  N436  1  0.67546169  0.45142655  0.39168551  1
  N  N437  1  0.64613647  0.77653844  0.41787581  1
  N  N438  1  0.29924983  0.22212499  0.91715329  1
  N  N439  1  0.32569337  0.55438304  0.89941327  1
  N  N440  1  0.31447714  0.89249204  0.90246926  1
  N  N441  1  0.81287388  0.21712687  0.89868212  1
  N  N442  1  0.82975201  0.55177900  0.88949429  1
  N  N443  1  0.82277911  0.88933291  0.90029748  1
  N  N444  1  0.30880740  0.10084878  0.08294825  1
  N  N445  1  0.32242590  0.44677381  0.09742250  1
  N  N446  1  0.32809970  0.78737841  0.10405783  1
  N  N447  1  0.81700803  0.11334453  0.10000064  1
  N  N448  1  0.82179980  0.43964691  0.10065288  1
  N  N449  1  0.82104314  0.78140240  0.09683809  1
  N  N450  1  0.19259365  0.22567930  0.58944713  1
  N  N451  1  0.20749230  0.55376994  0.59009573  1
  N  N452  1  0.19831768  0.89551603  0.58693278  1
  N  N453  1  0.69589594  0.22657911  0.59642429  1
  N  N454  1  0.72127028  0.56629463  0.56199513  1
  N  N455  1  0.69146715  0.88898450  0.59705698  1
  Cl  Cl456  1  0.25536566  0.06317768  0.60286316  1
  Cl  Cl457  1  0.25574503  0.38121242  0.62029554  1
  Cl  Cl458  1  0.28766808  0.73042416  0.60087340  1
  Cl  Cl459  1  0.74774269  0.06053273  0.60979719  1
  Cl  Cl460  1  0.76333100  0.40669520  0.60407346  1
  Cl  Cl461  1  0.77686283  0.70464314  0.62583961  1
  Cl  Cl462  1  0.26097249  0.26971820  0.10001078  1
  Cl  Cl463  1  0.23884597  0.61923343  0.13306597  1
  Cl  Cl464  1  0.24704043  0.94819094  0.10862366  1
  Cl  Cl465  1  0.75568140  0.28223013  0.12576347  1
  Cl  Cl466  1  0.73753262  0.61046051  0.10040157  1
  Cl  Cl467  1  0.75154120  0.94890882  0.12740005  1
  Cl  Cl468  1  0.25201680  0.06003803  0.88052826  1
  Cl  Cl469  1  0.24774085  0.38076046  0.87972470  1
  Cl  Cl470  1  0.23846526  0.72564056  0.88417768  1
  Cl  Cl471  1  0.75372731  0.05763508  0.88186020  1
  Cl  Cl472  1  0.73995041  0.39506289  0.90190157  1
  Cl  Cl473  1  0.73800360  0.72657693  0.89101449  1
  Cl  Cl474  1  0.23995640  0.27574513  0.37459880  1
  Cl  Cl475  1  0.21056153  0.60062168  0.40720844  1
  Cl  Cl476  1  0.24303545  0.94418808  0.37413460  1
  Cl  Cl477  1  0.73467129  0.27849529  0.39501917  1
  Cl  Cl478  1  0.73145989  0.61784774  0.36878044  1
  Cl  Cl479  1  0.73687225  0.93884885  0.39341728  1
  Cl  Cl480  1  0.01073187  0.22360734  0.62157093  1
  Cl  Cl481  1  0.02813765  0.55255978  0.61314686  1
  Cl  Cl482  1  0.01093745  0.89390298  0.61033207  1
  Cl  Cl483  1  0.50985020  0.22947677  0.60608739  1
  Cl  Cl484  1  0.52593678  0.56588258  0.61922818  1
  Cl  Cl485  1  0.50594330  0.88022803  0.62269841  1
  Cl  Cl486  1  0.00070496  0.11385788  0.10623373  1
  Cl  Cl487  1  0.00508318  0.43907978  0.11080200  1
  Cl  Cl488  1  0.01811430  0.76933007  0.10118012  1
  Cl  Cl489  1  0.49532725  0.10464457  0.11722908  1
  Cl  Cl490  1  0.51055429  0.43431312  0.10498987  1
  Cl  Cl491  1  0.51088748  0.77230404  0.11358925  1
  Cl  Cl492  1  -0.00535502  0.22215525  0.88556669  1
  Cl  Cl493  1  0.01427660  0.55324101  0.88571345  1
  Cl  Cl494  1  0.00470975  0.89161453  0.87681584  1
  Cl  Cl495  1  0.48544366  0.22729379  0.90003165  1
  Cl  Cl496  1  0.52090997  0.56340286  0.89914907  1
  Cl  Cl497  1  0.50394155  0.89092596  0.89064200  1
  Cl  Cl498  1  0.00216820  0.12282886  0.37007841  1
  Cl  Cl499  1  -0.01324568  0.43770097  0.39817956  1
  Cl  Cl500  1  -0.03699260  0.76967166  0.37595021  1
  Cl  Cl501  1  0.49648565  0.10073205  0.40756361  1
  Cl  Cl502  1  0.49609554  0.44888174  0.37304517  1
  Cl  Cl503  1  0.46482628  0.77082148  0.38635770  1
  Cl  Cl504  1  0.37199520  0.14793560  0.73410965  1
  Cl  Cl505  1  0.37520021  0.47847654  0.75215014  1
  Cl  Cl506  1  0.36206902  0.81231543  0.74925591  1
  Cl  Cl507  1  0.85957502  0.15011030  0.75700600  1
  Cl  Cl508  1  0.86684738  0.47674277  0.74957917  1
  Cl  Cl509  1  0.86958532  0.81215996  0.75374155  1
  Cl  Cl510  1  0.14403030  0.18292911  0.24003531  1
  Cl  Cl511  1  0.14473087  0.51341857  0.24947307  1
  Cl  Cl512  1  0.13719810  0.84719980  0.24799890  1
  Cl  Cl513  1  0.64242242  0.18443111  0.24833525  1
  Cl  Cl514  1  0.63727160  0.51348130  0.24572813  1
  Cl  Cl515  1  0.64616262  0.84452241  0.25508010  1
  Cl  Cl516  1  0.14688179  0.15504245  0.75066857  1
  Cl  Cl517  1  0.14869046  0.48474933  0.75289138  1
  Cl  Cl518  1  0.14154880  0.81332963  0.73864745  1
  Cl  Cl519  1  0.63819951  0.14861825  0.75017626  1
  Cl  Cl520  1  0.64952350  0.48804695  0.74225011  1
  Cl  Cl521  1  0.64718781  0.81942028  0.75091973  1
  Cl  Cl522  1  0.36449147  0.18538572  0.24908898  1
  Cl  Cl523  1  0.36423015  0.52428145  0.24546306  1
  Cl  Cl524  1  0.36058069  0.85320585  0.24959419  1
  Cl  Cl525  1  0.86185032  0.18656882  0.24870193  1
  Cl  Cl526  1  0.86072818  0.52045367  0.25213758  1
  Cl  Cl527  1  0.87289578  0.85602163  0.23431101  1
  Cl  Cl528  1  0.10851649  0.32071041  0.75462191  1
  Cl  Cl529  1  0.11229089  0.64885484  0.74580041  1
  Cl  Cl530  1  0.11550787  0.98578508  0.75271136  1
  Cl  Cl531  1  0.60926703  0.31860411  0.75142839  1
  Cl  Cl532  1  0.60327601  0.66127759  0.74970848  1
  Cl  Cl533  1  0.60669481  0.98435175  0.75536540  1
  Cl  Cl534  1  0.39165597  0.01803989  0.25522912  1
  Cl  Cl535  1  0.38897651  0.35086041  0.25118496  1
  Cl  Cl536  1  0.38103197  0.68986055  0.24601766  1
  Cl  Cl537  1  0.88750282  0.02222308  0.24920066  1
  Cl  Cl538  1  0.89094843  0.35512075  0.24109811  1
  Cl  Cl539  1  0.87976751  0.68344892  0.23608517  1
  Cl  Cl540  1  0.39039973  0.31318053  0.75296968  1
  Cl  Cl541  1  0.38518383  0.64259505  0.76150081  1
  Cl  Cl542  1  0.38435989  0.97794813  0.74650987  1
  Cl  Cl543  1  0.88451031  0.31379097  0.74774456  1
  Cl  Cl544  1  0.88732667  0.64215555  0.76342280  1
  Cl  Cl545  1  0.89274644  0.98386580  0.74262669  1
  Cl  Cl546  1  0.10597130  0.01674351  0.24984716  1
  Cl  Cl547  1  0.10858988  0.34963687  0.24686102  1
  Cl  Cl548  1  0.09767637  0.67538661  0.26722184  1
  Cl  Cl549  1  0.61333596  0.01471851  0.24712018  1
  Cl  Cl550  1  0.60869531  0.35057285  0.24646529  1
  Cl  Cl551  1  0.60141735  0.68135852  0.25419513  1
