# generated using pymatgen
data_H8PbC4(N3Cl2)2
_symmetry_space_group_name_H-M   'P 1'
_cell_length_a   16.63805022
_cell_length_b   22.52943185
_cell_length_c   21.60063417
_cell_angle_alpha   89.99937445
_cell_angle_beta   90.03594648
_cell_angle_gamma   89.99471196
_symmetry_Int_Tables_number   1
_chemical_formula_structural   H8PbC4(N3Cl2)2
_chemical_formula_sum   'H192 Pb24 C96 N144 Cl96'
_cell_volume   8096.90576424
_cell_formula_units_Z   24
loop_
 _symmetry_equiv_pos_site_id
 _symmetry_equiv_pos_as_xyz
  1  'x, y, z'
loop_
 _atom_site_type_symbol
 _atom_site_label
 _atom_site_symmetry_multiplicity
 _atom_site_fract_x
 _atom_site_fract_y
 _atom_site_fract_z
 _atom_site_occupancy
  H  H0  1  0.00579912  0.03004129  0.67607809  1
  H  H1  1  0.00850370  0.35903118  0.67432241  1
  H  H2  1  0.01033950  0.70318304  0.67674711  1
  H  H3  1  0.48939444  0.03075952  0.68046377  1
  H  H4  1  0.48885300  0.36020884  0.68004649  1
  H  H5  1  0.51129379  0.69401452  0.67574975  1
  H  H6  1  -0.01070193  0.30781179  0.17821438  1
  H  H7  1  -0.01879230  0.63528814  0.17700535  1
  H  H8  1  -0.01276037  0.98007332  0.17264971  1
  H  H9  1  0.51404596  0.30846990  0.17482304  1
  H  H10  1  0.50931815  0.63523784  0.17889323  1
  H  H11  1  0.51750362  0.97296768  0.17213486  1
  H  H12  1  -0.00288486  0.03182068  0.82590732  1
  H  H13  1  0.00888506  0.36068664  0.82549610  1
  H  H14  1  0.00684658  0.69406987  0.82260374  1
  H  H15  1  0.49624086  0.02748757  0.82161801  1
  H  H16  1  0.50546921  0.36185359  0.81939639  1
  H  H17  1  0.48620720  0.69242628  0.81829292  1
  H  H18  1  -0.01103410  0.30595711  0.32230947  1
  H  H19  1  -0.02141255  0.64118646  0.32201558  1
  H  H20  1  -0.00684461  0.97559665  0.32703495  1
  H  H21  1  0.49384375  0.30273818  0.32234764  1
  H  H22  1  0.51320821  0.63418047  0.32186917  1
  H  H23  1  0.51326564  0.96951229  0.31999095  1
  H  H24  1  0.26253242  0.20026772  0.67715223  1
  H  H25  1  0.24288424  0.52914248  0.68012524  1
  H  H26  1  0.22534100  0.86069913  0.67069866  1
  H  H27  1  0.75227848  0.19028627  0.67952460  1
  H  H28  1  0.74406466  0.52861923  0.68236534  1
  H  H29  1  0.77000338  0.86090212  0.67518614  1
  H  H30  1  0.26156410  0.13771744  0.17212988  1
  H  H31  1  0.25808567  0.47758038  0.17656072  1
  H  H32  1  0.27166476  0.80693085  0.17965853  1
  H  H33  1  0.75577866  0.13432532  0.18132112  1
  H  H34  1  0.74997722  0.47128371  0.17807296  1
  H  H35  1  0.72947268  0.80562192  0.17536243  1
  H  H36  1  0.25192468  0.19355650  0.82111048  1
  H  H37  1  0.27283628  0.53021534  0.82671045  1
  H  H38  1  0.23878490  0.86644325  0.82631556  1
  H  H39  1  0.74964493  0.19220181  0.82487192  1
  H  H40  1  0.73682370  0.52529198  0.82615506  1
  H  H41  1  0.76502581  0.86195170  0.82315707  1
  H  H42  1  0.27038549  0.13685749  0.31655066  1
  H  H43  1  0.26699828  0.46543255  0.31492412  1
  H  H44  1  0.25924683  0.80974144  0.32303012  1
  H  H45  1  0.73484785  0.14094017  0.32879932  1
  H  H46  1  0.74113160  0.46646629  0.32042079  1
  H  H47  1  0.73541858  0.80653781  0.32309905  1
  H  H48  1  0.11731807  0.05721870  0.59515927  1
  H  H49  1  0.11496710  0.39049515  0.59249543  1
  H  H50  1  0.11974634  0.72830671  0.59602731  1
  H  H51  1  0.62562579  0.04829173  0.62232395  1
  H  H52  1  0.61435300  0.38872970  0.61333430  1
  H  H53  1  0.60784202  0.72714405  0.58683638  1
  H  H54  1  0.36995392  0.28465466  0.12987304  1
  H  H55  1  0.37098922  0.61481695  0.12192525  1
  H  H56  1  0.37526703  0.95641962  0.12212568  1
  H  H57  1  0.87051631  0.27644708  0.10394417  1
  H  H58  1  0.86917511  0.60408916  0.09870681  1
  H  H59  1  0.88174826  0.94501039  0.09099193  1
  H  H60  1  0.38422679  0.05903189  0.90028639  1
  H  H61  1  0.37167124  0.38519710  0.88117663  1
  H  H62  1  0.36702424  0.71729522  0.89413331  1
  H  H63  1  0.89089106  0.05847784  0.90840389  1
  H  H64  1  0.86953323  0.38263177  0.87989285  1
  H  H65  1  0.87249144  0.71534642  0.88096999  1
  H  H66  1  0.12166190  0.28252976  0.38512743  1
  H  H67  1  0.12239005  0.61980499  0.36966401  1
  H  H68  1  0.13216933  0.95146596  0.38071381  1
  H  H69  1  0.62422391  0.27882367  0.38293887  1
  H  H70  1  0.62221690  0.61042849  0.40240916  1
  H  H71  1  0.63577775  0.94566746  0.39224302  1
  H  H72  1  0.37361023  0.22401324  0.59717242  1
  H  H73  1  0.37226252  0.55185881  0.61322077  1
  H  H74  1  0.36699815  0.87876387  0.62497822  1
  H  H75  1  0.86819219  0.22281442  0.60308525  1
  H  H76  1  0.87051167  0.55696317  0.61690530  1
  H  H77  1  0.86624770  0.89583721  0.58768982  1
  H  H78  1  0.12196016  0.12017919  0.12181801  1
  H  H79  1  0.13180089  0.45007781  0.10877935  1
  H  H80  1  0.12885499  0.79073581  0.12745973  1
  H  H81  1  0.61710660  0.11585300  0.12464416  1
  H  H82  1  0.63812566  0.44059884  0.09899176  1
  H  H83  1  0.63063117  0.77231778  0.08835772  1
  H  H84  1  0.13273310  0.21820021  0.89482644  1
  H  H85  1  0.13313309  0.54787871  0.87589339  1
  H  H86  1  0.13264580  0.89723549  0.91032694  1
  H  H87  1  0.64137445  0.22543850  0.90688962  1
  H  H88  1  0.63376912  0.55719241  0.91162196  1
  H  H89  1  0.62456017  0.88080171  0.87669453  1
  H  H90  1  0.37670317  0.11217956  0.40013650  1
  H  H91  1  0.38537813  0.45058805  0.39216266  1
  H  H92  1  0.38040386  0.77924884  0.39419943  1
  H  H93  1  0.87808199  0.12119021  0.37695459  1
  H  H94  1  0.88013488  0.44901071  0.37737516  1
  H  H95  1  0.87765377  0.78360920  0.37140743  1
  H  H96  1  0.37549922  0.27690482  0.39737618  1
  H  H97  1  0.37519928  0.61859022  0.37843721  1
  H  H98  1  0.38684397  0.94669986  0.39048768  1
  H  H99  1  0.87368970  0.27309911  0.39606486  1
  H  H100  1  0.88154635  0.60804280  0.41053059  1
  H  H101  1  0.88790797  0.93955067  0.40925566  1
  H  H102  1  0.13616475  0.05014968  0.87721909  1
  H  H103  1  0.11411673  0.39239441  0.90915007  1
  H  H104  1  0.11996116  0.72118902  0.90036638  1
  H  H105  1  0.63090769  0.04671241  0.88193607  1
  H  H106  1  0.61967663  0.38987883  0.89666595  1
  H  H107  1  0.61533499  0.72200972  0.88033713  1
  H  H108  1  0.11902404  0.28187154  0.11432240  1
  H  H109  1  0.11631052  0.61642657  0.11603539  1
  H  H110  1  0.12690978  0.95629217  0.12112686  1
  H  H111  1  0.61236687  0.27287636  0.08899156  1
  H  H112  1  0.61624351  0.60409713  0.09543684  1
  H  H113  1  0.61816401  0.93737631  0.08688349  1
  H  H114  1  0.37824020  0.05459354  0.60121237  1
  H  H115  1  0.36744881  0.37888356  0.60580251  1
  H  H116  1  0.36737572  0.71603747  0.62893882  1
  H  H117  1  0.87080498  0.05255270  0.61622786  1
  H  H118  1  0.87004393  0.37887937  0.61872319  1
  H  H119  1  0.87461962  0.71749363  0.62132510  1
  H  H120  1  0.13100353  0.12154197  0.36950932  1
  H  H121  1  0.13709319  0.44396993  0.37848684  1
  H  H122  1  0.13134183  0.78414127  0.39147762  1
  H  H123  1  0.63496373  0.10551759  0.41408854  1
  H  H124  1  0.63451671  0.43594084  0.40222200  1
  H  H125  1  0.63347686  0.77342263  0.40811906  1
  H  H126  1  0.38067095  0.21542054  0.88365948  1
  H  H127  1  0.37672833  0.55952528  0.91108736  1
  H  H128  1  0.37722942  0.88388050  0.88337484  1
  H  H129  1  0.88701852  0.21486791  0.88175810  1
  H  H130  1  0.87739099  0.55291333  0.87605436  1
  H  H131  1  0.86841870  0.89542618  0.90807603  1
  H  H132  1  0.36600278  0.10817531  0.09019552  1
  H  H133  1  0.38061690  0.44775368  0.10688083  1
  H  H134  1  0.37249063  0.77377714  0.09483005  1
  H  H135  1  0.86499279  0.10974227  0.10069142  1
  H  H136  1  0.88528456  0.45031304  0.11950401  1
  H  H137  1  0.87222794  0.78664724  0.12574947  1
  H  H138  1  0.12732753  0.21715084  0.62047154  1
  H  H139  1  0.12382931  0.55810587  0.60626227  1
  H  H140  1  0.12511422  0.89317835  0.58518644  1
  H  H141  1  0.62039130  0.21623315  0.61553063  1
  H  H142  1  0.62149659  0.55187662  0.60984657  1
  H  H143  1  0.62531150  0.88151485  0.63182677  1
  H  H144  1  0.52837939  0.24695429  -0.00822038  1
  H  H145  1  0.14687428  0.58104098  -0.00893936  1
  H  H146  1  0.53996604  0.57977482  -0.00423952  1
  H  H147  1  0.52111844  0.75171800  0.49106318  1
  H  H148  1  0.35836266  0.91628008  0.51150817  1
  H  H149  1  0.35383267  0.91762065  0.99138840  1
  H  H150  1  0.89399253  0.41523700  0.51264712  1
  H  H151  1  0.33001926  0.44171223  0.50460207  1
  H  H152  1  0.55624705  0.42225406  1.00149911  1
  H  H153  1  0.89441390  0.74563134  0.50469730  1
  H  H154  1  0.55662823  0.43909417  0.52082152  1
  H  H155  1  0.12742924  0.08686025  -0.00026820  1
  H  H156  1  0.03942524  0.40703758  0.49101319  1
  H  H157  1  0.14713150  0.09032164  0.48264490  1
  H  H158  1  0.71569868  0.58437213  1.00889534  1
  H  H159  1  0.96849197  0.58368832  0.50615548  1
  H  H160  1  0.79835182  0.08214720  -0.00630322  1
  H  H161  1  0.90037247  0.08289369  0.50788561  1
  H  H162  1  0.17173505  0.42357113  0.49314294  1
  H  H163  1  0.60349940  0.08173755  0.99253823  1
  H  H164  1  0.71653159  0.25171114  1.00648834  1
  H  H165  1  0.17961055  0.58995419  0.50067587  1
  H  H166  1  0.57636998  0.75989905  0.98916814  1
  H  H167  1  0.07813114  0.24398690  0.00661528  1
  H  H168  1  0.32887253  0.41347143  0.00035946  1
  H  H169  1  0.89879048  0.74266686  -0.00558758  1
  H  H170  1  0.67673801  0.57183109  0.50270312  1
  H  H171  1  0.78192268  0.91894165  0.49141406  1
  H  H172  1  0.42649025  0.73276612  0.99969261  1
  H  H173  1  0.82797263  0.59128611  0.50754861  1
  H  H174  1  0.43188565  0.37683595  0.50092005  1
  H  H175  1  0.71526540  0.75034308  -0.00894585  1
  H  H176  1  0.59099329  0.24404139  0.49493000  1
  H  H177  1  0.30592211  0.08575138  0.50540734  1
  H  H178  1  0.89174593  0.41462643  0.98848630  1
  H  H179  1  0.96640997  0.91258154  0.50786501  1
  H  H180  1  0.34761978  0.24435852  -0.00214803  1
  H  H181  1  0.55386922  0.58663892  0.51135704  1
  H  H182  1  0.29210167  0.74352756  -0.00521238  1
  H  H183  1  0.70722622  0.40454075  0.50467994  1
  H  H184  1  0.06086068  0.74837397  1.00745855  1
  H  H185  1  0.95808930  0.91921883  -0.00871416  1
  H  H186  1  0.15049259  0.24652429  0.50561310  1
  H  H187  1  0.71468464  0.74783917  0.50654492  1
  H  H188  1  0.78805837  0.91876132  1.00657347  1
  H  H189  1  0.62999646  0.91837745  0.51976805  1
  H  H190  1  0.44274928  0.08428550  0.49367392  1
  H  H191  1  0.32776063  0.74747122  0.50056323  1
  Pb  Pb192  1  0.25382071  0.05210569  0.74231596  1
  Pb  Pb193  1  0.24403009  0.38331216  0.74907236  1
  Pb  Pb194  1  0.24504964  0.71613222  0.75335227  1
  Pb  Pb195  1  0.74957505  0.04771894  0.75761106  1
  Pb  Pb196  1  0.74949423  0.38209491  0.74882585  1
  Pb  Pb197  1  0.74458715  0.71752497  0.74597142  1
  Pb  Pb198  1  0.25287406  0.28233255  0.25578624  1
  Pb  Pb199  1  0.25068142  0.62070063  0.24762639  1
  Pb  Pb200  1  0.25261815  0.95259907  0.25376375  1
  Pb  Pb201  1  0.75045099  0.28462902  0.24130086  1
  Pb  Pb202  1  0.75507281  0.61462354  0.25586485  1
  Pb  Pb203  1  0.75867519  0.94736193  0.24621579  1
  Pb  Pb204  1  -0.00134637  0.21469124  0.74738449  1
  Pb  Pb205  1  -0.00152872  0.55067321  0.74065910  1
  Pb  Pb206  1  0.00312213  0.88759269  0.75113495  1
  Pb  Pb207  1  0.50395569  0.21899115  0.75510092  1
  Pb  Pb208  1  0.49822902  0.54762816  0.75704255  1
  Pb  Pb209  1  0.49598041  0.88138476  0.74720130  1
  Pb  Pb210  1  -0.00056847  0.11838428  0.24780910  1
  Pb  Pb211  1  0.00847329  0.44958328  0.25538142  1
  Pb  Pb212  1  0.00772309  0.78418172  0.25240414  1
  Pb  Pb213  1  0.50388028  0.11630031  0.25580310  1
  Pb  Pb214  1  0.50301964  0.45074396  0.25250559  1
  Pb  Pb215  1  0.50283698  0.78330586  0.23950393  1
  C  C216  1  -0.00250187  0.04646635  0.62931386  1
  C  C217  1  -0.00243513  0.37572017  0.62779474  1
  C  C218  1  0.00054656  0.71631956  0.62911730  1
  C  C219  1  0.49764239  0.04455380  0.63290019  1
  C  C220  1  0.49021076  0.37560174  0.63235805  1
  C  C221  1  0.49561429  0.71019603  0.62997129  1
  C  C222  1  -0.00730686  0.28950803  0.13191328  1
  C  C223  1  -0.01082884  0.61918982  0.13031793  1
  C  C224  1  -0.00158224  0.96236803  0.12692603  1
  C  C225  1  0.49896839  0.29065281  0.12964483  1
  C  C226  1  0.49913337  0.61928461  0.13216502  1
  C  C227  1  0.50388999  0.95564744  0.12660637  1
  C  C228  1  0.00860094  0.04699624  0.87273264  1
  C  C229  1  -0.00293626  0.37758182  0.87159371  1
  C  C230  1  -0.00050925  0.70929390  0.87000375  1
  C  C231  1  0.50398176  0.04415962  0.86826338  1
  C  C232  1  0.49868349  0.37878786  0.86616948  1
  C  C233  1  0.48911230  0.70824646  0.86581687  1
  C  C234  1  -0.00486415  0.28782735  0.36833554  1
  C  C235  1  -0.00617492  0.62426351  0.36762476  1
  C  C236  1  0.00414172  0.95725019  0.37263300  1
  C  C237  1  0.49858570  0.28605447  0.36919484  1
  C  C238  1  0.50357116  0.62099539  0.36951857  1
  C  C239  1  0.51166265  0.95472149  0.36759706  1
  C  C240  1  0.25358771  0.21390617  0.62956665  1
  C  C241  1  0.24643668  0.54613063  0.63321506  1
  C  C242  1  0.24019404  0.87758423  0.62516405  1
  C  C243  1  0.74699887  0.20814722  0.63302652  1
  C  C244  1  0.74504868  0.54482523  0.63492116  1
  C  C245  1  0.75363101  0.87805694  0.62976795  1
  C  C246  1  0.24931722  0.12206720  0.12558883  1
  C  C247  1  0.25687574  0.45925626  0.13020252  1
  C  C248  1  0.25731805  0.79064404  0.13367945  1
  C  C249  1  0.74629289  0.12015546  0.13392027  1
  C  C250  1  0.75759262  0.45440738  0.13155716  1
  C  C251  1  0.74367067  0.78879745  0.12959669  1
  C  C252  1  0.25582296  0.20889109  0.86855904  1
  C  C253  1  0.25990809  0.54601398  0.87300764  1
  C  C254  1  0.24973468  0.88242179  0.87293106  1
  C  C255  1  0.75884167  0.20941194  0.87122252  1
  C  C256  1  0.74891023  0.54377081  0.87159695  1
  C  C257  1  0.75296916  0.87843907  0.86942579  1
  C  C258  1  0.25876774  0.12372360  0.36414831  1
  C  C259  1  0.26286687  0.45418973  0.36370886  1
  C  C260  1  0.25696710  0.79178101  0.36954868  1
  C  C261  1  0.74927938  0.12291948  0.37388554  1
  C  C262  1  0.75242132  0.45177665  0.36750219  1
  C  C263  1  0.74869796  0.78906056  0.36875778  1
  C  C264  1  0.73561656  0.42105742  0.46258368  1
  C  C265  1  0.27695735  0.09703713  0.46180490  1
  C  C266  1  0.94491158  0.73385724  0.95978812  1
  C  C267  1  0.18612941  0.09576847  0.04013498  1
  C  C268  1  0.26697888  0.75752249  0.03898577  1
  C  C269  1  0.99011167  0.07655620  0.96836924  1
  C  C270  1  0.47443488  0.07210097  0.53583685  1
  C  C271  1  0.19642185  0.57279426  0.95917538  1
  C  C272  1  0.46557597  0.25506454  0.46284934  1
  C  C273  1  0.21413298  0.43504045  0.45682256  1
  C  C274  1  0.54702472  0.25548343  0.45960404  1
  C  C275  1  0.68635985  0.09584866  0.04646282  1
  C  C276  1  0.29553836  0.44063989  0.46205400  1
  C  C277  1  0.94263403  0.73875784  0.53925342  1
  C  C278  1  0.44351692  0.59930225  0.45757194  1
  C  C279  1  0.52400902  0.59630521  0.46768736  1
  C  C280  1  0.55493644  0.06899200  0.54466090  1
  C  C281  1  0.02335391  0.74253551  0.53237074  1
  C  C282  1  0.30309202  0.23542756  0.96092699  1
  C  C283  1  0.02641705  0.73646566  0.96642237  1
  C  C284  1  0.81279482  0.09461735  0.45736486  1
  C  C285  1  0.30730094  0.90667179  0.54153748  1
  C  C286  1  0.29008673  0.75967286  0.46136402  1
  C  C287  1  0.22181424  0.23642383  0.96284322  1
  C  C288  1  0.22746550  0.91080679  0.52937354  1
  C  C289  1  0.26616555  0.09149009  0.03017792  1
  C  C290  1  0.96584910  0.58561040  0.03682467  1
  C  C291  1  0.27664549  0.57688313  0.96923669  1
  C  C292  1  0.80977436  0.42746595  0.04305775  1
  C  C293  1  0.42941272  0.25767919  0.04956191  1
  C  C294  1  0.19624267  0.09967844  0.45087017  1
  C  C295  1  0.07037239  0.07329352  0.95880683  1
  C  C296  1  0.03629601  0.25697597  0.04304584  1
  C  C297  1  0.68244841  0.90952485  0.55039423  1
  C  C298  1  0.54789112  0.92919612  0.46158769  1
  C  C299  1  0.78890122  0.57669216  0.54494367  1
  C  C300  1  0.27848664  0.24046490  0.53319885  1
  C  C301  1  0.21593721  0.57744518  0.54050970  1
  C  C302  1  0.44110241  0.92851633  0.04234583  1
  C  C303  1  0.06167263  0.92909159  0.04342128  1
  C  C304  1  0.96778075  0.25137019  0.45990981  1
  C  C305  1  0.81554107  0.75711244  0.45065743  1
  C  C306  1  0.76681457  0.09337277  0.03628241  1
  C  C307  1  0.53645931  0.74142072  0.95424703  1
  C  C308  1  0.52336357  0.40989999  0.95984793  1
  C  C309  1  0.19755250  0.23843901  0.53968882  1
  C  C310  1  0.29104958  0.42625284  0.03910172  1
  C  C311  1  0.55530063  0.07214475  0.95669426  1
  N  N312  1  0.94664521  0.07446720  0.54227883  1
  N  N313  1  0.69914683  0.23929352  0.54367022  1
  N  N314  1  0.04508978  0.25495780  0.45768153  1
  N  N315  1  0.73559412  0.75528931  0.03616941  1
  N  N316  1  0.95744777  0.25481845  0.03932485  1
  N  N317  1  0.76479883  0.91051684  0.96273221  1
  N  N318  1  0.73832919  0.75456969  0.46247471  1
  N  N319  1  0.47692664  0.07693406  0.96315244  1
  N  N320  1  0.04269132  0.59012631  0.04081608  1
  N  N321  1  0.30593293  0.90977925  0.95826144  1
  N  N322  1  0.68807054  0.90578044  0.95361500  1
  N  N323  1  0.44438518  0.40840163  0.95484334  1
  N  N324  1  0.29514355  0.57518296  0.54230631  1
  N  N325  1  0.73277830  0.42379997  0.03516357  1
  N  N326  1  0.22909377  0.91381718  0.96838464  1
  N  N327  1  0.70927630  0.57430071  0.54281025  1
  N  N328  1  0.21098413  0.76100075  0.46068240  1
  N  N329  1  0.75983761  0.91408931  0.53618740  1
  N  N330  1  0.01644544  0.41060883  0.96651930  1
  N  N331  1  0.43767738  0.59181515  0.04648676  1
  N  N332  1  0.47030684  0.92874311  0.46210316  1
  N  N333  1  0.06702870  0.92473027  0.45579666  1
  N  N334  1  0.50621419  0.25407490  0.03651070  1
  N  N335  1  0.93888961  0.39818872  0.54172676  1
  N  N336  1  0.53441446  0.40097349  0.54063882  1
  N  N337  1  0.21192252  0.42644047  0.03950464  1
  N  N338  1  0.93964360  0.40745756  0.95547464  1
  N  N339  1  0.01611864  0.41019544  0.53526816  1
  N  N340  1  0.06433711  0.59538958  0.44853841  1
  N  N341  1  0.81920423  0.23941726  0.95641773  1
  N  N342  1  0.51483137  0.58799543  0.03892407  1
  N  N343  1  0.74214681  0.24309132  0.96345215  1
  N  N344  1  0.45134598  0.40058908  0.53885261  1
  N  N345  1  0.18946229  0.76244090  0.05015111  1
  N  N346  1  0.77497937  0.24247392  0.54004477  1
  N  N347  1  0.51658502  0.92097650  0.03032103  1
  N  N348  1  0.81358919  0.42809500  0.45520239  1
  N  N349  1  0.73724567  0.08803169  0.47002623  1
  N  N350  1  0.81370362  0.57844781  0.95289014  1
  N  N351  1  0.81183467  0.75930000  0.04815855  1
  N  N352  1  0.45712653  0.73757742  0.95884109  1
  N  N353  1  0.98831839  0.59125101  0.46116747  1
  N  N354  1  0.98388512  0.92696240  0.03404269  1
  N  N355  1  0.02435739  0.07572038  0.53423639  1
  N  N356  1  0.99010604  0.92079520  0.46404678  1
  N  N357  1  0.42505962  0.73843319  0.54892862  1
  N  N358  1  0.50089465  0.74292052  0.53630782  1
  N  N359  1  0.73714725  0.57879826  0.96389987  1
  N  N360  1  0.05535792  0.05881750  0.58857290  1
  N  N361  1  0.05311968  0.38666602  0.58529110  1
  N  N362  1  0.05820090  0.72892848  0.58630733  1
  N  N363  1  0.56849702  0.05278934  0.60329724  1
  N  N364  1  0.55403177  0.39360655  0.60126540  1
  N  N365  1  0.54528377  0.72277577  0.58394314  1
  N  N366  1  0.42447450  0.27866091  0.10775555  1
  N  N367  1  0.42853239  0.60963987  0.10506303  1
  N  N368  1  0.43061381  0.94902671  0.10139607  1
  N  N369  1  0.93175695  0.27522991  0.09520011  1
  N  N370  1  0.93042035  0.60319482  0.09035547  1
  N  N371  1  0.94360570  0.94975162  0.08444384  1
  N  N372  1  0.44647192  0.05927654  0.90761386  1
  N  N373  1  0.43081096  0.38897792  0.89629311  1
  N  N374  1  0.42830113  0.71378442  0.90488917  1
  N  N375  1  0.95285237  0.06045894  0.91604427  1
  N  N376  1  0.92668166  0.38669382  0.89815993  1
  N  N377  1  0.92965063  0.71738489  0.89961712  1
  N  N378  1  0.06230680  0.27770751  0.39915628  1
  N  N379  1  0.06694673  0.61390803  0.38982520  1
  N  N380  1  0.07518463  0.94585198  0.39822050  1
  N  N381  1  0.56624148  0.27481791  0.40017338  1
  N  N382  1  0.56092958  0.60976734  0.41132547  1
  N  N383  1  0.57560374  0.94414834  0.40434900  1
  N  N384  1  0.31224170  0.22554145  0.58724810  1
  N  N385  1  0.31231074  0.55574897  0.60019825  1
  N  N386  1  0.31344679  0.88621534  0.60209626  1
  N  N387  1  0.80619970  0.22317985  0.59510602  1
  N  N388  1  0.81111792  0.55992683  0.60238898  1
  N  N389  1  0.80372460  0.89078274  0.58399762  1
  N  N390  1  0.17686803  0.11456829  0.10007964  1
  N  N391  1  0.19240316  0.44724952  0.09639221  1
  N  N392  1  0.18527297  0.78274587  0.10897621  1
  N  N393  1  0.67423412  0.11163153  0.10561629  1
  N  N394  1  0.70027532  0.44074368  0.09182979  1
  N  N395  1  0.69251891  0.77583871  0.08461382  1
  N  N396  1  0.19347391  0.22054676  0.90715784  1
  N  N397  1  0.18757418  0.55382229  0.89817868  1
  N  N398  1  0.19441886  0.89679294  0.91504376  1
  N  N399  1  0.70365225  0.22254381  0.91302097  1
  N  N400  1  0.69613354  0.55547864  0.91582295  1
  N  N401  1  0.68126016  0.88775434  0.89482622  1
  N  N402  1  0.31475426  0.11206051  0.40738937  1
  N  N403  1  0.32474412  0.45180241  0.40370545  1
  N  N404  1  0.31993034  0.77789859  0.40552098  1
  N  N405  1  0.82278177  0.11486913  0.39820259  1
  N  N406  1  0.82261276  0.44650785  0.39553462  1
  N  N407  1  0.82246776  0.77690992  0.39212184  1
  N  N408  1  0.43654276  0.27341972  0.40820015  1
  N  N409  1  0.43187933  0.61373603  0.39826857  1
  N  N410  1  0.44773664  0.94498962  0.40214305  1
  N  N411  1  0.93481377  0.27125505  0.40649598  1
  N  N412  1  0.94372826  0.61128815  0.41323534  1
  N  N413  1  0.95005467  0.94297009  0.41503424  1
  N  N414  1  0.08078939  0.05529528  0.89879319  1
  N  N415  1  0.05195356  0.39223289  0.91393741  1
  N  N416  1  0.05889796  0.72115086  0.91018376  1
  N  N417  1  0.57334850  0.05249269  0.89849856  1
  N  N418  1  0.55812630  0.39230035  0.90571105  1
  N  N419  1  0.55636447  0.72391463  0.89658416  1
  N  N420  1  0.05961639  0.27803296  0.09951536  1
  N  N421  1  0.05752466  0.61152724  0.10041805  1
  N  N422  1  0.07082180  0.95022964  0.10120220  1
  N  N423  1  0.55011503  0.27791100  0.08477147  1
  N  N424  1  0.55398058  0.60700296  0.08970579  1
  N  N425  1  0.55596975  0.93848087  0.08414952  1
  N  N426  1  0.43944617  0.05648157  0.59210006  1
  N  N427  1  0.42811758  0.37695892  0.59417405  1
  N  N428  1  0.42236989  0.72002053  0.60771449  1
  N  N429  1  0.92937738  0.05669183  0.59994367  1
  N  N430  1  0.92711585  0.38642774  0.60172909  1
  N  N431  1  0.92984118  0.72270632  0.60089324  1
  N  N432  1  0.18656050  0.11624361  0.39028819  1
  N  N433  1  0.19528539  0.44388766  0.39557788  1
  N  N434  1  0.19208531  0.78120837  0.40350373  1
  N  N435  1  0.69748672  0.10626205  0.41674435  1
  N  N436  1  0.69658284  0.43645051  0.40945345  1
  N  N437  1  0.69611961  0.77736896  0.41291548  1
  N  N438  1  0.32307076  0.21850656  0.90068523  1
  N  N439  1  0.31501737  0.56076041  0.91738609  1
  N  N440  1  0.31962831  0.89104816  0.90037588  1
  N  N441  1  0.82915201  0.22000148  0.89854891  1
  N  N442  1  0.82037515  0.55813518  0.89483183  1
  N  N443  1  0.80615648  0.89171181  0.91284484  1
  N  N444  1  0.30437390  0.10742669  0.08209090  1
  N  N445  1  0.32040205  0.44582167  0.09467738  1
  N  N446  1  0.31035220  0.77481209  0.08981225  1
  N  N447  1  0.80318049  0.10864885  0.09216344  1
  N  N448  1  0.82757543  0.44552848  0.10186885  1
  N  N449  1  0.81633146  0.77816010  0.10675110  1
  N  N450  1  0.18351963  0.22206271  0.60086132  1
  N  N451  1  0.18457702  0.56011976  0.59613888  1
  N  N452  1  0.18696298  0.89330512  0.57974897  1
  N  N453  1  0.68014276  0.21768557  0.60121147  1
  N  N454  1  0.68257643  0.55149327  0.59768040  1
  N  N455  1  0.67902005  0.88908359  0.60900811  1
  Cl  Cl456  1  0.24514899  0.05570008  0.60671925  1
  Cl  Cl457  1  0.24097391  0.39309665  0.61154559  1
  Cl  Cl458  1  0.23886238  0.72610128  0.62206730  1
  Cl  Cl459  1  0.75036460  0.04856332  0.62717039  1
  Cl  Cl460  1  0.73903383  0.38964261  0.61242378  1
  Cl  Cl461  1  0.72688248  0.72802126  0.60168155  1
  Cl  Cl462  1  0.24230988  0.28234048  0.12508058  1
  Cl  Cl463  1  0.24370223  0.61439731  0.11586092  1
  Cl  Cl464  1  0.25133444  0.95336931  0.12368791  1
  Cl  Cl465  1  0.73459420  0.27129821  0.10160291  1
  Cl  Cl466  1  0.73741240  0.60220402  0.10525468  1
  Cl  Cl467  1  0.75845648  0.93564046  0.10281623  1
  Cl  Cl468  1  0.26454331  0.05579105  0.87469216  1
  Cl  Cl469  1  0.24094594  0.39003919  0.88156593  1
  Cl  Cl470  1  0.24643564  0.72752411  0.88924441  1
  Cl  Cl471  1  0.76636939  0.05292842  0.89185899  1
  Cl  Cl472  1  0.74268580  0.38486957  0.87962654  1
  Cl  Cl473  1  0.73876221  0.72808042  0.88679715  1
  Cl  Cl474  1  0.25110319  0.28052233  0.38857283  1
  Cl  Cl475  1  0.25006060  0.61786347  0.37805807  1
  Cl  Cl476  1  0.26142037  0.94505471  0.38590194  1
  Cl  Cl477  1  0.75247913  0.27939312  0.37182734  1
  Cl  Cl478  1  0.75356182  0.60583878  0.39773753  1
  Cl  Cl479  1  0.76636152  0.93587241  0.39394364  1
  Cl  Cl480  1  -0.00893792  0.22434262  0.61585404  1
  Cl  Cl481  1  -0.00649389  0.55913219  0.60093563  1
  Cl  Cl482  1  -0.01140381  0.89675510  0.60348413  1
  Cl  Cl483  1  0.49620869  0.22336498  0.62208381  1
  Cl  Cl484  1  0.50030366  0.54734720  0.62108783  1
  Cl  Cl485  1  0.49901569  0.88156696  0.62015111  1
  Cl  Cl486  1  -0.01074195  0.10907520  0.11666670  1
  Cl  Cl487  1  0.00923543  0.45112216  0.12549315  1
  Cl  Cl488  1  -0.00048344  0.79457627  0.12173620  1
  Cl  Cl489  1  0.48952559  0.11432454  0.12452271  1
  Cl  Cl490  1  0.51277403  0.44239160  0.11714052  1
  Cl  Cl491  1  0.50217233  0.76795602  0.10159726  1
  Cl  Cl492  1  0.01149809  0.21889538  0.88086299  1
  Cl  Cl493  1  0.00044605  0.55384771  0.86807050  1
  Cl  Cl494  1  -0.00809817  0.89905984  0.89562606  1
  Cl  Cl495  1  0.52225072  0.23025660  0.89815807  1
  Cl  Cl496  1  0.51140192  0.56044362  0.89972070  1
  Cl  Cl497  1  0.49783071  0.87565492  0.87862168  1
  Cl  Cl498  1  0.00207920  0.11420057  0.37871626  1
  Cl  Cl499  1  0.00989845  0.43679054  0.39275187  1
  Cl  Cl500  1  0.00645583  0.78070167  0.38550417  1
  Cl  Cl501  1  0.50448160  0.10825168  0.39165532  1
  Cl  Cl502  1  0.51033386  0.43771912  0.39092432  1
  Cl  Cl503  1  0.51347551  0.77109827  0.39879466  1
  Cl  Cl504  1  0.35756134  0.14948692  0.74909468  1
  Cl  Cl505  1  0.36018845  0.48181566  0.75063291  1
  Cl  Cl506  1  0.36057729  0.81409181  0.74287800  1
  Cl  Cl507  1  0.85812597  0.14934831  0.75371064  1
  Cl  Cl508  1  0.86489417  0.47961675  0.74687584  1
  Cl  Cl509  1  0.85870374  0.81316508  0.74905042  1
  Cl  Cl510  1  0.13524450  0.18576360  0.25168163  1
  Cl  Cl511  1  0.14293238  0.51826642  0.25729207  1
  Cl  Cl512  1  0.14521623  0.84910129  0.24891656  1
  Cl  Cl513  1  0.64205356  0.18170891  0.24958660  1
  Cl  Cl514  1  0.64479325  0.51425139  0.24941615  1
  Cl  Cl515  1  0.63802750  0.85152416  0.25173059  1
  Cl  Cl516  1  0.13824785  0.15092893  0.74025661  1
  Cl  Cl517  1  0.13888239  0.48816896  0.75253319  1
  Cl  Cl518  1  0.14098267  0.82241922  0.75538059  1
  Cl  Cl519  1  0.63497716  0.14738211  0.75060417  1
  Cl  Cl520  1  0.63983551  0.48471351  0.75120886  1
  Cl  Cl521  1  0.63543256  0.81683433  0.75053268  1
  Cl  Cl522  1  0.35772862  0.18733981  0.24378424  1
  Cl  Cl523  1  0.36525747  0.52156682  0.24642999  1
  Cl  Cl524  1  0.36964511  0.85279936  0.25227000  1
  Cl  Cl525  1  0.86067074  0.18338170  0.25219347  1
  Cl  Cl526  1  0.86423245  0.52371905  0.25654450  1
  Cl  Cl527  1  0.85810933  0.85289105  0.24962746  1
  Cl  Cl528  1  0.10431124  0.31905595  0.74678667  1
  Cl  Cl529  1  0.10086665  0.65604931  0.74860678  1
  Cl  Cl530  1  0.10364796  0.98327025  0.75062630  1
  Cl  Cl531  1  0.60498797  0.31655605  0.74251122  1
  Cl  Cl532  1  0.60767540  0.64981687  0.75094972  1
  Cl  Cl533  1  0.61144074  0.97956851  0.75045473  1
  Cl  Cl534  1  0.38879843  0.01792252  0.25348771  1
  Cl  Cl535  1  0.38641059  0.35291963  0.24906492  1
  Cl  Cl536  1  0.39123002  0.68531227  0.25065707  1
  Cl  Cl537  1  0.88898375  0.01589916  0.25477992  1
  Cl  Cl538  1  0.88676748  0.35539948  0.24620425  1
  Cl  Cl539  1  0.88232139  0.69037002  0.24566392  1
  Cl  Cl540  1  0.38591871  0.31633617  0.75755084  1
  Cl  Cl541  1  0.38467329  0.64746780  0.74378764  1
  Cl  Cl542  1  0.38983161  0.98307874  0.75068652  1
  Cl  Cl543  1  0.88501473  0.31521637  0.75174713  1
  Cl  Cl544  1  0.87645929  0.64601246  0.73929662  1
  Cl  Cl545  1  0.88624714  0.98170260  0.74724211  1
  Cl  Cl546  1  0.11205563  0.01743559  0.25244040  1
  Cl  Cl547  1  0.10827642  0.35318289  0.25893233  1
  Cl  Cl548  1  0.10379372  0.68152421  0.24586905  1
  Cl  Cl549  1  0.60957154  0.01681630  0.24413221  1
  Cl  Cl550  1  0.60797440  0.34620234  0.25045702  1
  Cl  Cl551  1  0.61169372  0.68218702  0.24901239  1
