# generated using pymatgen
data_H8PbC4(N3Cl2)2
_symmetry_space_group_name_H-M   'P 1'
_cell_length_a   16.62304526
_cell_length_b   22.50808881
_cell_length_c   21.59003981
_cell_angle_alpha   89.99920963
_cell_angle_beta   90.02081648
_cell_angle_gamma   90.00421834
_symmetry_Int_Tables_number   1
_chemical_formula_structural   H8PbC4(N3Cl2)2
_chemical_formula_sum   'H192 Pb24 C96 N144 Cl96'
_cell_volume   8077.97715454
_cell_formula_units_Z   24
loop_
 _symmetry_equiv_pos_site_id
 _symmetry_equiv_pos_as_xyz
  1  'x, y, z'
loop_
 _atom_site_type_symbol
 _atom_site_label
 _atom_site_symmetry_multiplicity
 _atom_site_fract_x
 _atom_site_fract_y
 _atom_site_fract_z
 _atom_site_occupancy
  H  H0  1  0.00341381  0.03229459  0.68284372  1
  H  H1  1  -0.00554186  0.36345342  0.67728085  1
  H  H2  1  0.00112239  0.69713288  0.67980222  1
  H  H3  1  0.50385313  0.03073961  0.67950272  1
  H  H4  1  0.49992562  0.36243158  0.67929506  1
  H  H5  1  0.50958023  0.69923147  0.67914452  1
  H  H6  1  -0.00236924  0.30234013  0.17589841  1
  H  H7  1  -0.00009040  0.63735287  0.18122037  1
  H  H8  1  -0.01045018  0.97134738  0.18217318  1
  H  H9  1  0.50863674  0.30266759  0.17929142  1
  H  H10  1  0.50238725  0.63690320  0.17795125  1
  H  H11  1  0.50193001  0.96758511  0.17973676  1
  H  H12  1  -0.00301040  0.03187984  0.82069551  1
  H  H13  1  -0.00486984  0.36446070  0.81937906  1
  H  H14  1  0.00119240  0.69828955  0.82283947  1
  H  H15  1  0.50116961  0.02940877  0.82256968  1
  H  H16  1  0.49720541  0.36401881  0.82099712  1
  H  H17  1  0.50211073  0.69673058  0.82063293  1
  H  H18  1  0.00378140  0.30330837  0.32283233  1
  H  H19  1  -0.00814803  0.63657461  0.32132946  1
  H  H20  1  -0.00995646  0.96522147  0.32074623  1
  H  H21  1  0.49752010  0.30458144  0.32171154  1
  H  H22  1  0.50875401  0.63474509  0.31908020  1
  H  H23  1  0.50918772  0.96957642  0.32185725  1
  H  H24  1  0.25456392  0.19829549  0.68019284  1
  H  H25  1  0.24997526  0.53038713  0.67949471  1
  H  H26  1  0.25157472  0.86266539  0.67576454  1
  H  H27  1  0.74945695  0.19914974  0.67968727  1
  H  H28  1  0.74663678  0.53012175  0.67812831  1
  H  H29  1  0.75300618  0.86384949  0.67848845  1
  H  H30  1  0.26067096  0.13719476  0.17882911  1
  H  H31  1  0.25143807  0.46723433  0.18038948  1
  H  H32  1  0.25168756  0.80382027  0.18015510  1
  H  H33  1  0.74136879  0.13526429  0.17906646  1
  H  H34  1  0.75065968  0.46925422  0.18170630  1
  H  H35  1  0.74170072  0.80142619  0.17795262  1
  H  H36  1  0.25302138  0.19688476  0.82043008  1
  H  H37  1  0.24121183  0.53443246  0.81912339  1
  H  H38  1  0.25661643  0.86407834  0.82138127  1
  H  H39  1  0.74093325  0.19737321  0.82294149  1
  H  H40  1  0.76135585  0.53228952  0.81912845  1
  H  H41  1  0.74050326  0.86338559  0.81831417  1
  H  H42  1  0.23614718  0.13739232  0.31965625  1
  H  H43  1  0.25235105  0.46976096  0.32079188  1
  H  H44  1  0.25392673  0.80353311  0.32342397  1
  H  H45  1  0.76599964  0.13718163  0.32280635  1
  H  H46  1  0.75144377  0.46983403  0.32011906  1
  H  H47  1  0.74413547  0.80178180  0.31849555  1
  H  H48  1  0.12577645  0.05278117  0.60981862  1
  H  H49  1  0.12429322  0.38832655  0.61287307  1
  H  H50  1  0.11883847  0.72107718  0.60570059  1
  H  H51  1  0.62730627  0.05485510  0.60713816  1
  H  H52  1  0.62122314  0.38823876  0.60599832  1
  H  H53  1  0.61467352  0.72553209  0.59326518  1
  H  H54  1  0.37261702  0.28146654  0.11828017  1
  H  H55  1  0.37588131  0.61333136  0.10837809  1
  H  H56  1  0.36935013  0.94763482  0.11702371  1
  H  H57  1  0.87076280  0.27717099  0.10775386  1
  H  H58  1  0.87375844  0.61344332  0.11373986  1
  H  H59  1  0.87104626  0.94701609  0.10696229  1
  H  H60  1  0.38777300  0.05591641  0.90190470  1
  H  H61  1  0.38380612  0.39185004  0.90090022  1
  H  H62  1  0.37685619  0.71871536  0.88838432  1
  H  H63  1  0.88317256  0.05699938  0.89825026  1
  H  H64  1  0.88451043  0.38881579  0.90052500  1
  H  H65  1  0.87273151  0.72098980  0.88920648  1
  H  H66  1  0.12085252  0.27661063  0.39695621  1
  H  H67  1  0.12380980  0.61530715  0.38374060  1
  H  H68  1  0.13275393  0.95046387  0.37013309  1
  H  H69  1  0.62590284  0.27947402  0.38919566  1
  H  H70  1  0.61774463  0.60902192  0.40015671  1
  H  H71  1  0.62731601  0.94340780  0.39824882  1
  H  H72  1  0.37517429  0.22311439  0.60540668  1
  H  H73  1  0.37803111  0.55279803  0.61275453  1
  H  H74  1  0.36724338  0.89096635  0.60093906  1
  H  H75  1  0.87766027  0.22213989  0.61392367  1
  H  H76  1  0.88034529  0.55237465  0.61774410  1
  H  H77  1  0.86886369  0.88892528  0.60068446  1
  H  H78  1  0.12014786  0.11903656  0.12532148  1
  H  H79  1  0.11711182  0.44578148  0.11900851  1
  H  H80  1  0.12493289  0.77904116  0.11044917  1
  H  H81  1  0.62041437  0.11199654  0.10506532  1
  H  H82  1  0.61937223  0.44792697  0.11527247  1
  H  H83  1  0.63147037  0.77509886  0.09565061  1
  H  H84  1  0.12884787  0.22026293  0.89043806  1
  H  H85  1  0.12955423  0.55740134  0.89804447  1
  H  H86  1  0.13063680  0.88619114  0.88767239  1
  H  H87  1  0.63174970  0.22292072  0.90483935  1
  H  H88  1  0.62447934  0.55225173  0.87878357  1
  H  H89  1  0.63001259  0.88752224  0.89945526  1
  H  H90  1  0.37379232  0.11616299  0.37371111  1
  H  H91  1  0.37746095  0.44492126  0.39112130  1
  H  H92  1  0.37824527  0.77774374  0.39399599  1
  H  H93  1  0.86542558  0.10657313  0.41152933  1
  H  H94  1  0.87424045  0.44546117  0.39351737  1
  H  H95  1  0.88099673  0.78285560  0.37406196  1
  H  H96  1  0.37752859  0.27814780  0.39536624  1
  H  H97  1  0.37120205  0.61804681  0.37412549  1
  H  H98  1  0.37905995  0.94568258  0.38803562  1
  H  H99  1  0.87238890  0.28052490  0.38637099  1
  H  H100  1  0.87591579  0.60967270  0.40002586  1
  H  H101  1  0.88839379  0.94065524  0.40654162  1
  H  H102  1  0.13043871  0.04943066  0.87993360  1
  H  H103  1  0.13185557  0.38559418  0.87866392  1
  H  H104  1  0.12185352  0.72406107  0.89511244  1
  H  H105  1  0.63559804  0.05456760  0.88163768  1
  H  H106  1  0.63093817  0.38285057  0.88399500  1
  H  H107  1  0.62612258  0.71872264  0.89115653  1
  H  H108  1  0.12002082  0.27657810  0.10546663  1
  H  H109  1  0.12367715  0.61200626  0.10970357  1
  H  H110  1  0.11985340  0.94821597  0.11582010  1
  H  H111  1  0.61909421  0.27485141  0.09725346  1
  H  H112  1  0.62470175  0.61330012  0.10605528  1
  H  H113  1  0.61828609  0.94531751  0.10456297  1
  H  H114  1  0.37949236  0.05470180  0.60814224  1
  H  H115  1  0.37261523  0.38705188  0.61338026  1
  H  H116  1  0.37012836  0.71755394  0.62375971  1
  H  H117  1  0.87773860  0.05415802  0.61277231  1
  H  H118  1  0.87560995  0.39068986  0.60359520  1
  H  H119  1  0.86953219  0.71748258  0.61526871  1
  H  H120  1  0.12772035  0.10945407  0.40315644  1
  H  H121  1  0.12903714  0.44545449  0.39284708  1
  H  H122  1  0.12905694  0.77805287  0.39138692  1
  H  H123  1  0.62350931  0.11690537  0.37180700  1
  H  H124  1  0.62512530  0.44501375  0.38834080  1
  H  H125  1  0.63407856  0.77736948  0.39916382  1
  H  H126  1  0.37894995  0.21976269  0.89048181  1
  H  H127  1  0.37731939  0.55104930  0.87808054  1
  H  H128  1  0.37989871  0.88705422  0.89292570  1
  H  H129  1  0.87822506  0.21642751  0.88085456  1
  H  H130  1  0.87181816  0.55777187  0.90059229  1
  H  H131  1  0.87739598  0.88438894  0.87773529  1
  H  H132  1  0.36436121  0.10418887  0.09341822  1
  H  H133  1  0.36564270  0.44657277  0.10087438  1
  H  H134  1  0.37329141  0.78052269  0.10624924  1
  H  H135  1  0.86917130  0.11562489  0.11405957  1
  H  H136  1  0.86805934  0.44377839  0.10625676  1
  H  H137  1  0.87760884  0.78157609  0.12020548  1
  H  H138  1  0.12608713  0.22130674  0.61324880  1
  H  H139  1  0.12872527  0.55364441  0.60878698  1
  H  H140  1  0.11937263  0.88539464  0.61308630  1
  H  H141  1  0.62902655  0.22302970  0.60489245  1
  H  H142  1  0.63192611  0.55577791  0.59920043  1
  H  H143  1  0.62067604  0.88789964  0.61703968  1
  H  H144  1  0.78139364  0.08050809  0.50721045  1
  H  H145  1  0.86297470  0.75216473  0.48739400  1
  H  H146  1  0.67149378  0.41451378  0.49740914  1
  H  H147  1  0.69766593  0.58340271  0.49669821  1
  H  H148  1  0.55100104  0.58077766  0.50589194  1
  H  H149  1  0.83082563  0.08556104  0.00066586  1
  H  H150  1  0.95328205  0.41678657  1.00594260  1
  H  H151  1  0.92773620  0.91858063  -0.00040752  1
  H  H152  1  0.17415793  0.24804942  1.00059687  1
  H  H153  1  0.42208429  0.92032472  0.49432817  1
  H  H154  1  0.91526274  0.24652846  0.00326470  1
  H  H155  1  0.45309489  0.42037236  1.00164367  1
  H  H156  1  0.06770562  0.05577968  0.50348299  1
  H  H157  1  0.42012489  0.74767222  1.00055736  1
  H  H158  1  0.10310755  0.07919742  -0.00571312  1
  H  H159  1  0.80807565  0.41450700  -0.00127555  1
  H  H160  1  0.32937277  0.74728361  0.49778155  1
  H  H161  1  0.15062417  0.91698115  0.50478848  1
  H  H162  1  0.32946342  0.41941369  0.49604354  1
  H  H163  1  0.90851956  0.25195706  0.49342805  1
  H  H164  1  0.30371344  0.42149956  -0.00733662  1
  H  H165  1  0.93159876  0.09979480  0.51701360  1
  H  H166  1  0.17222824  0.75428219  0.00520250  1
  H  H167  1  0.91850926  0.58597690  0.00155648  1
  H  H168  1  0.38783135  0.58670023  0.48732748  1
  H  H169  1  0.69948641  0.74862628  0.50526959  1
  H  H170  1  0.91270445  0.75065441  0.99554332  1
  H  H171  1  0.80452615  0.91527513  0.49694414  1
  H  H172  1  0.80124228  0.58459924  1.00620693  1
  H  H173  1  0.08372347  0.41921845  0.50703579  1
  H  H174  1  0.69940299  0.91560021  1.00499076  1
  H  H175  1  0.16863547  0.25176613  0.50361033  1
  H  H176  1  0.45505518  0.08104776  1.00495263  1
  H  H177  1  0.14885137  0.41888533  0.01071295  1
  H  H178  1  0.96452168  0.91339471  0.51045440  1
  H  H179  1  0.28515791  0.08158554  -0.00552922  1
  H  H180  1  0.35262088  0.08547364  0.48710688  1
  H  H181  1  0.17194836  0.91753702  0.99981241  1
  H  H182  1  0.57756084  0.08133582  0.50310081  1
  H  H183  1  0.19966463  0.09111773  0.50475928  1
  H  H184  1  0.53691934  0.75318308  0.49480876  1
  H  H185  1  0.17538524  0.58446456  0.49858069  1
  H  H186  1  0.33351117  0.25016220  0.99464128  1
  H  H187  1  0.19357640  0.58269457  1.00754004  1
  H  H188  1  0.57865349  0.25378807  0.49520702  1
  H  H189  1  0.07135362  0.59245641  0.00281673  1
  H  H190  1  0.06617492  0.74918552  0.49634547  1
  H  H191  1  0.56058763  0.91481768  -0.00543084  1
  Pb  Pb192  1  0.25569311  0.04856193  0.74919959  1
  Pb  Pb193  1  0.25710832  0.38248883  0.75063592  1
  Pb  Pb194  1  0.24891453  0.71217216  0.75167696  1
  Pb  Pb195  1  0.75403897  0.04626980  0.74805076  1
  Pb  Pb196  1  0.75252100  0.37799228  0.75016724  1
  Pb  Pb197  1  0.75092263  0.71288255  0.74553359  1
  Pb  Pb198  1  0.25007285  0.28491112  0.24987201  1
  Pb  Pb199  1  0.24447767  0.61783867  0.24658993  1
  Pb  Pb200  1  0.25095619  0.95448296  0.25185755  1
  Pb  Pb201  1  0.74669313  0.28676581  0.24636166  1
  Pb  Pb202  1  0.74948200  0.62078307  0.25644179  1
  Pb  Pb203  1  0.74825004  0.94961703  0.25415141  1
  Pb  Pb204  1  0.00434972  0.21520860  0.74908222  1
  Pb  Pb205  1  -0.00010716  0.54556461  0.75994168  1
  Pb  Pb206  1  0.00197425  0.87930721  0.74908820  1
  Pb  Pb207  1  0.50609557  0.21342324  0.74889848  1
  Pb  Pb208  1  0.50576583  0.54757886  0.74343412  1
  Pb  Pb209  1  0.50009921  0.87944542  0.74933548  1
  Pb  Pb210  1  -0.00272424  0.12029815  0.26414869  1
  Pb  Pb211  1  -0.00560175  0.45048992  0.25370097  1
  Pb  Pb212  1  0.00228819  0.78758285  0.24591198  1
  Pb  Pb213  1  0.50158772  0.11911491  0.24004558  1
  Pb  Pb214  1  0.49779301  0.45438796  0.24484864  1
  Pb  Pb215  1  0.49540717  0.78405195  0.25032384  1
  C  C216  1  0.00220176  0.04644867  0.63460546  1
  C  C217  1  -0.00140087  0.38002441  0.63031998  1
  C  C218  1  -0.00310061  0.71196040  0.63217863  1
  C  C219  1  0.50380324  0.04641752  0.63194518  1
  C  C220  1  0.49814161  0.37872027  0.63232015  1
  C  C221  1  0.49830469  0.71391352  0.63199894  1
  C  C222  1  -0.00430910  0.28603891  0.12872457  1
  C  C223  1  -0.00032721  0.62126205  0.13368075  1
  C  C224  1  -0.00628509  0.95576242  0.13469629  1
  C  C225  1  0.50010178  0.28692981  0.13218684  1
  C  C226  1  0.50071967  0.62138635  0.13058012  1
  C  C227  1  0.49676570  0.95320567  0.13202087  1
  C  C228  1  0.00446010  0.04595058  0.86832657  1
  C  C229  1  0.00429914  0.37949258  0.86667619  1
  C  C230  1  -0.00180869  0.71417778  0.87017164  1
  C  C231  1  0.50803046  0.04495755  0.86973022  1
  C  C232  1  0.50374049  0.37921679  0.86834247  1
  C  C233  1  0.50114786  0.71152701  0.86836147  1
  C  C234  1  -0.00147265  0.28729345  0.37000891  1
  C  C235  1  -0.00322725  0.62070011  0.36843350  1
  C  C236  1  0.00391958  0.95219475  0.36801236  1
  C  C237  1  0.50069199  0.28804905  0.36876052  1
  C  C238  1  0.49870125  0.62052281  0.36651041  1
  C  C239  1  0.50500386  0.95333718  0.36900018  1
  C  C240  1  0.25198291  0.21418350  0.63281402  1
  C  C241  1  0.25177261  0.54580380  0.63198540  1
  C  C242  1  0.24543681  0.87945399  0.62896804  1
  C  C243  1  0.75193190  0.21460424  0.63237043  1
  C  C244  1  0.75262769  0.54544486  0.63083684  1
  C  C245  1  0.74773561  0.87927591  0.63118132  1
  C  C246  1  0.24887591  0.12124634  0.13232090  1
  C  C247  1  0.24408788  0.45267336  0.13267834  1
  C  C248  1  0.24950501  0.78837323  0.13261032  1
  C  C249  1  0.74409581  0.12087812  0.13127150  1
  C  C250  1  0.74568483  0.45370551  0.13434807  1
  C  C251  1  0.75020154  0.78650705  0.13078312  1
  C  C252  1  0.25398602  0.21314795  0.86787916  1
  C  C253  1  0.24922984  0.54765405  0.86692459  1
  C  C254  1  0.25515986  0.87945875  0.86887378  1
  C  C255  1  0.75067018  0.21212908  0.87001003  1
  C  C256  1  0.75239502  0.54716381  0.86643566  1
  C  C257  1  0.74968677  0.87850759  0.86555777  1
  C  C258  1  0.24547542  0.12211019  0.36692185  1
  C  C259  1  0.25320086  0.45381769  0.36818500  1
  C  C260  1  0.25417619  0.78696222  0.37050202  1
  C  C261  1  0.75210600  0.12106185  0.36898285  1
  C  C262  1  0.75038299  0.45382529  0.36749518  1
  C  C263  1  0.75351253  0.78718776  0.36590887  1
  C  C264  1  0.80463821  0.76057487  0.04231362  1
  C  C265  1  0.45538392  0.40818074  0.54130184  1
  C  C266  1  0.52604408  0.92614261  0.03570842  1
  C  C267  1  0.77214039  0.57416705  0.96239318  1
  C  C268  1  0.21619195  0.57359690  0.53700914  1
  C  C269  1  0.21303674  0.90706682  0.96217776  1
  C  C270  1  0.95653639  0.59388771  0.04171312  1
  C  C271  1  0.71131683  0.42560703  0.45922733  1
  C  C272  1  0.03504774  0.74407487  0.96438059  1
  C  C273  1  0.43842309  0.59568069  0.45443856  1
  C  C274  1  0.54178478  0.73719511  0.96180309  1
  C  C275  1  0.96355344  0.41237298  0.53682761  1
  C  C276  1  0.98368425  0.40611941  0.96262133  1
  C  C277  1  0.03536700  0.25481421  0.03571173  1
  C  C278  1  0.22533192  0.57221534  0.96480315  1
  C  C279  1  0.27651384  0.91145523  0.53431208  1
  C  C280  1  0.73136440  0.75999959  0.46283474  1
  C  C281  1  0.21019326  0.24144192  0.54147747  1
  C  C282  1  0.70715543  0.09477407  0.03663514  1
  C  C283  1  0.44471265  0.92718123  0.04185589  1
  C  C284  1  0.72936775  0.90549949  0.96135131  1
  C  C285  1  0.73081438  0.24046904  0.96586219  1
  C  C286  1  0.78873351  0.09527273  0.03800328  1
  C  C287  1  0.51969489  0.59287990  0.46352926  1
  C  C288  1  0.07222134  0.92999185  0.45286496  1
  C  C289  1  0.04550224  0.59291638  0.45826488  1
  C  C290  1  0.81271824  0.76185108  0.45404341  1
  C  C291  1  0.29470046  0.90717882  0.96228727  1
  C  C292  1  0.94661032  0.73712772  0.54124290  1
  C  C293  1  0.56351138  0.07611198  0.95758277  1
  C  C294  1  0.53586388  0.59295905  0.03777308  1
  C  C295  1  0.27184240  0.42922899  0.03596436  1
  C  C296  1  0.69466804  0.90953457  0.54194063  1
  C  C297  1  0.79562530  0.24212971  0.54089493  1
  C  C298  1  0.77399255  0.42594187  0.04010483  1
  C  C299  1  0.97632976  0.07291058  0.96410917  1
  C  C300  1  0.05733920  0.07015776  0.95928151  1
  C  C301  1  0.99255136  0.92585537  0.46664135  1
  C  C302  1  0.21121521  0.75586445  0.46266264  1
  C  C303  1  0.30593879  0.56960557  0.95609141  1
  C  C304  1  0.21375763  0.23941431  0.96116720  1
  C  C305  1  0.29804514  0.57282521  0.54006370  1
  C  C306  1  0.96370855  0.92889834  0.04031042  1
  C  C307  1  0.30589175  0.09494706  0.45315871  1
  C  C308  1  0.46026984  0.73753964  0.96243077  1
  C  C309  1  0.03160247  0.25648108  0.46478248  1
  C  C310  1  0.02789136  0.73874021  0.53595181  1
  C  C311  1  0.80726494  0.57453034  0.54189281  1
  N  N312  1  0.69496347  0.42718691  0.04318172  1
  N  N313  1  0.21091638  0.76220276  0.04149092  1
  N  N314  1  0.95977810  0.06675593  0.54157009  1
  N  N315  1  0.46131766  0.07183364  0.53857339  1
  N  N316  1  0.71771103  0.24235101  0.53662743  1
  N  N317  1  0.45861274  0.59274813  0.03725847  1
  N  N318  1  0.19292240  0.42795742  0.04357248  1
  N  N319  1  0.29354103  0.23959787  0.95992791  1
  N  N320  1  0.43492804  0.73776994  0.54582041  1
  N  N321  1  0.48154999  0.40764014  0.96164344  1
  N  N322  1  0.22693832  0.09244319  0.46207086  1
  N  N323  1  0.28949762  0.24197121  0.53826013  1
  N  N324  1  0.77334482  0.90851389  0.53736400  1
  N  N325  1  0.79056041  0.42561409  0.46126036  1
  N  N326  1  0.46296982  0.25869238  0.46188680  1
  N  N327  1  0.29040066  0.42683434  0.45946454  1
  N  N328  1  0.04291510  0.92863053  0.04319289  1
  N  N329  1  0.53976921  0.07225826  0.53984098  1
  N  N330  1  0.95253931  0.25886478  0.45979947  1
  N  N331  1  0.80802251  0.90569047  0.95375840  1
  N  N332  1  0.72778218  0.75807627  0.03336634  1
  N  N333  1  0.21181596  0.42809505  0.46146930  1
  N  N334  1  0.69367563  0.57327580  0.95488110  1
  N  N335  1  0.72874589  0.57481695  0.53677148  1
  N  N336  1  0.48497888  0.07502717  0.96362046  1
  N  N337  1  0.75964793  0.09007633  0.46322531  1
  N  N338  1  0.26124050  0.09088222  0.03810396  1
  N  N339  1  0.68323770  0.09389065  0.45154859  1
  N  N340  1  0.29034937  0.75664679  0.46211549  1
  N  N341  1  0.53321215  0.40903117  0.53766751  1
  N  N342  1  0.04105073  0.07316058  0.54233776  1
  N  N343  1  0.06232670  0.40483213  0.95524161  1
  N  N344  1  0.95616650  0.25589659  0.03778782  1
  N  N345  1  0.04244337  0.41032202  0.54080237  1
  N  N346  1  0.28905769  0.76294329  0.03871190  1
  N  N347  1  0.52233791  0.25743845  0.03633793  1
  N  N348  1  0.95583531  0.74206329  0.96117610  1
  N  N349  1  0.54092331  0.25891441  0.45815480  1
  N  N350  1  0.46186483  0.92634319  0.45854597  1
  N  N351  1  0.96841026  0.59104105  0.46459642  1
  N  N352  1  0.18475457  0.09616302  0.04764370  1
  N  N353  1  0.03621030  0.59250050  0.04169934  1
  N  N354  1  0.55900537  0.40431766  0.95738943  1
  N  N355  1  0.44643225  0.26021678  0.04294579  1
  N  N356  1  0.80782301  0.23780560  0.95923944  1
  N  N357  1  0.51202590  0.74085550  0.53683711  1
  N  N358  1  0.19778702  0.90859291  0.53974193  1
  N  N359  1  0.53980784  0.92637365  0.46372747  1
  N  N360  1  0.06519187  0.05034388  0.59736380  1
  N  N361  1  0.06478882  0.38948811  0.59815404  1
  N  N362  1  0.05807335  0.72287011  0.59413337  1
  N  N363  1  0.56679001  0.05651403  0.59615666  1
  N  N364  1  0.55988260  0.39031273  0.59588183  1
  N  N365  1  0.55209488  0.72625413  0.58887828  1
  N  N366  1  0.43141085  0.27817784  0.10264885  1
  N  N367  1  0.43638048  0.61073875  0.09645212  1
  N  N368  1  0.42764145  0.94327845  0.10009551  1
  N  N369  1  0.93111917  0.27593123  0.09483593  1
  N  N370  1  0.93355217  0.60994935  0.09927302  1
  N  N371  1  0.93197257  0.94507399  0.09622202  1
  N  N372  1  0.44981251  0.05340100  0.91052243  1
  N  N373  1  0.44585118  0.39229922  0.90802880  1
  N  N374  1  0.43607128  0.72154271  0.90302248  1
  N  N375  1  0.94443262  0.05841141  0.90922490  1
  N  N376  1  0.94665842  0.39088120  0.90852578  1
  N  N377  1  0.93269769  0.72332914  0.90329314  1
  N  N378  1  0.06024721  0.27377772  0.40893551  1
  N  N379  1  0.06534651  0.61056893  0.40003592  1
  N  N380  1  0.07832388  0.94562182  0.39280348  1
  N  N381  1  0.56571172  0.27853135  0.40251236  1
  N  N382  1  0.55599813  0.60852726  0.40845883  1
  N  N383  1  0.56624181  0.94174680  0.40704051  1
  N  N384  1  0.31382952  0.22502985  0.59565307  1
  N  N385  1  0.31888107  0.55629458  0.59777583  1
  N  N386  1  0.30625350  0.89360847  0.58968875  1
  N  N387  1  0.81855156  0.22565391  0.59893355  1
  N  N388  1  0.82239843  0.55692721  0.60025728  1
  N  N389  1  0.80719758  0.88812285  0.59156584  1
  N  N390  1  0.17718777  0.11342016  0.10644625  1
  N  N391  1  0.17601200  0.44191117  0.10321416  1
  N  N392  1  0.18539861  0.77844639  0.09806239  1
  N  N393  1  0.68058661  0.11004115  0.09319278  1
  N  N394  1  0.67904317  0.44433994  0.10200497  1
  N  N395  1  0.69362086  0.77481970  0.08960996  1
  N  N396  1  0.18904859  0.22331065  0.90384553  1
  N  N397  1  0.19071396  0.55824672  0.90783335  1
  N  N398  1  0.18968874  0.89005399  0.90281742  1
  N  N399  1  0.69338765  0.22500383  0.91234426  1
  N  N400  1  0.68318149  0.55650405  0.89524274  1
  N  N401  1  0.69201618  0.88921549  0.90755917  1
  N  N402  1  0.31728057  0.11157114  0.39385498  1
  N  N403  1  0.31678985  0.44370621  0.40340157  1
  N  N404  1  0.31766365  0.77656553  0.40561681  1
  N  N405  1  0.80313918  0.10834157  0.41402011  1
  N  N406  1  0.81317811  0.44312884  0.40377580  1
  N  N407  1  0.82447109  0.77861347  0.39365635  1
  N  N408  1  0.43836396  0.27556241  0.40538781  1
  N  N409  1  0.42744239  0.61265680  0.39394020  1
  N  N410  1  0.43921383  0.94398923  0.40180420  1
  N  N411  1  0.93176316  0.27839580  0.40160189  1
  N  N412  1  0.93771676  0.60881653  0.40737567  1
  N  N413  1  0.95069615  0.94033024  0.41248066  1
  N  N414  1  0.07366989  0.05325470  0.89869105  1
  N  N415  1  0.07356501  0.38836616  0.89521081  1
  N  N416  1  0.06131823  0.72675688  0.90790047  1
  N  N417  1  0.57797005  0.05807283  0.89924181  1
  N  N418  1  0.57251020  0.38697802  0.89900470  1
  N  N419  1  0.56623868  0.72174311  0.90507318  1
  N  N420  1  0.05998127  0.27336186  0.09211677  1
  N  N421  1  0.06267779  0.61237442  0.09758907  1
  N  N422  1  0.05972672  0.94537631  0.10218246  1
  N  N423  1  0.55696462  0.27403285  0.09123095  1
  N  N424  1  0.56462490  0.61011809  0.09384268  1
  N  N425  1  0.55755403  0.94261985  0.09311785  1
  N  N426  1  0.43978808  0.05635660  0.59639708  1
  N  N427  1  0.43180850  0.39016501  0.59856051  1
  N  N428  1  0.42707649  0.72150361  0.60509004  1
  N  N429  1  0.93799480  0.06075315  0.60166905  1
  N  N430  1  0.93608674  0.39371814  0.59209398  1
  N  N431  1  0.92816973  0.72125465  0.59957435  1
  N  N432  1  0.18966423  0.11254962  0.40948702  1
  N  N433  1  0.18980847  0.44363759  0.40424727  1
  N  N434  1  0.18874252  0.77452957  0.40588518  1
  N  N435  1  0.67929328  0.11166171  0.39234573  1
  N  N436  1  0.68498955  0.44264123  0.40192337  1
  N  N437  1  0.69571615  0.77570328  0.40752619  1
  N  N438  1  0.31816468  0.22430169  0.90212147  1
  N  N439  1  0.31996246  0.55518344  0.89708907  1
  N  N440  1  0.31979008  0.89049092  0.90589377  1
  N  N441  1  0.82014656  0.21995078  0.89821362  1
  N  N442  1  0.81004403  0.55841831  0.90840943  1
  N  N443  1  0.81874644  0.88893415  0.89396649  1
  N  N444  1  0.30206248  0.10841744  0.08865847  1
  N  N445  1  0.30395574  0.44416283  0.09137342  1
  N  N446  1  0.31240216  0.77863024  0.09567316  1
  N  N447  1  0.81047348  0.11147435  0.09797495  1
  N  N448  1  0.80685261  0.44187943  0.09573319  1
  N  N449  1  0.82058988  0.77745989  0.10180223  1
  N  N450  1  0.18567041  0.22471664  0.59925971  1
  N  N451  1  0.18885307  0.55666196  0.59560096  1
  N  N452  1  0.17832893  0.88873826  0.59793073  1
  N  N453  1  0.69059530  0.22467662  0.59502200  1
  N  N454  1  0.69379454  0.55556726  0.59097076  1
  N  N455  1  0.67855704  0.89191437  0.60018680  1
  Cl  Cl456  1  0.24896537  0.05853497  0.60669863  1
  Cl  Cl457  1  0.24894432  0.39095326  0.61713851  1
  Cl  Cl458  1  0.24477792  0.72289242  0.61642184  1
  Cl  Cl459  1  0.75511621  0.05570530  0.60318852  1
  Cl  Cl460  1  0.74725408  0.38752002  0.61745257  1
  Cl  Cl461  1  0.73665525  0.71977340  0.60965587  1
  Cl  Cl462  1  0.24584626  0.27767388  0.11133689  1
  Cl  Cl463  1  0.24718640  0.61263773  0.11126393  1
  Cl  Cl464  1  0.24425170  0.94907803  0.12014422  1
  Cl  Cl465  1  0.74547516  0.27604937  0.11225685  1
  Cl  Cl466  1  0.75115175  0.61417186  0.12242843  1
  Cl  Cl467  1  0.74422883  0.94589158  0.12022236  1
  Cl  Cl468  1  0.26831679  0.06370291  0.89481586  1
  Cl  Cl469  1  0.26165262  0.38932971  0.88927862  1
  Cl  Cl470  1  0.24446025  0.72228969  0.88459530  1
  Cl  Cl471  1  0.76212853  0.05566522  0.87930553  1
  Cl  Cl472  1  0.76185856  0.38508023  0.88547573  1
  Cl  Cl473  1  0.75072067  0.71845560  0.87571512  1
  Cl  Cl474  1  0.24755844  0.28005775  0.38269541  1
  Cl  Cl475  1  0.24486620  0.61814735  0.37816847  1
  Cl  Cl476  1  0.26013632  0.94486872  0.38682639  1
  Cl  Cl477  1  0.74884342  0.27843912  0.37933132  1
  Cl  Cl478  1  0.74454130  0.60687850  0.39394693  1
  Cl  Cl479  1  0.76051316  0.94163739  0.39635565  1
  Cl  Cl480  1  0.00078906  0.21924373  0.61346063  1
  Cl  Cl481  1  0.00414644  0.54820142  0.62905744  1
  Cl  Cl482  1  -0.00809146  0.88932800  0.61333618  1
  Cl  Cl483  1  0.50444257  0.22217683  0.61336448  1
  Cl  Cl484  1  0.50818179  0.55541470  0.60818451  1
  Cl  Cl485  1  0.49083398  0.88784836  0.61425918  1
  Cl  Cl486  1  -0.00471368  0.12047777  0.13278603  1
  Cl  Cl487  1  -0.00890606  0.44546146  0.11623509  1
  Cl  Cl488  1  0.00322947  0.77527645  0.11010375  1
  Cl  Cl489  1  0.48459076  0.10347495  0.10164552  1
  Cl  Cl490  1  0.48802361  0.44473775  0.10742753  1
  Cl  Cl491  1  0.50079158  0.77860552  0.11685171  1
  Cl  Cl492  1  0.00409894  0.22028573  0.88248050  1
  Cl  Cl493  1  0.00010598  0.56102620  0.89758165  1
  Cl  Cl494  1  0.00262676  0.88340692  0.88010849  1
  Cl  Cl495  1  0.50327919  0.21522944  0.88152888  1
  Cl  Cl496  1  0.50081497  0.54985975  0.87276479  1
  Cl  Cl497  1  0.50705671  0.88697370  0.88273929  1
  Cl  Cl498  1  -0.00450166  0.10821318  0.40510983  1
  Cl  Cl499  1  0.00491855  0.44240829  0.38889823  1
  Cl  Cl500  1  0.00839665  0.78032117  0.37677345  1
  Cl  Cl501  1  0.49882416  0.11430277  0.37283893  1
  Cl  Cl502  1  0.49839375  0.44501293  0.37642797  1
  Cl  Cl503  1  0.50688597  0.77606206  0.39487516  1
  Cl  Cl504  1  0.35529020  0.14582141  0.74625047  1
  Cl  Cl505  1  0.35812698  0.47894239  0.75005019  1
  Cl  Cl506  1  0.35963832  0.81381185  0.74693109  1
  Cl  Cl507  1  0.86496742  0.14643457  0.74566784  1
  Cl  Cl508  1  0.86117316  0.48063388  0.74895457  1
  Cl  Cl509  1  0.86237200  0.81308734  0.75053096  1
  Cl  Cl510  1  0.13493335  0.18698737  0.24864174  1
  Cl  Cl511  1  0.14103231  0.52145923  0.24606205  1
  Cl  Cl512  1  0.13873363  0.85497900  0.25182014  1
  Cl  Cl513  1  0.63805514  0.18442198  0.25289309  1
  Cl  Cl514  1  0.63741177  0.52014990  0.24851485  1
  Cl  Cl515  1  0.64414451  0.85417967  0.25265240  1
  Cl  Cl516  1  0.13772394  0.14488089  0.74859825  1
  Cl  Cl517  1  0.13791941  0.47838817  0.75582971  1
  Cl  Cl518  1  0.13959954  0.81428690  0.74820314  1
  Cl  Cl519  1  0.64236405  0.14631751  0.74688496  1
  Cl  Cl520  1  0.64033957  0.47956186  0.75320903  1
  Cl  Cl521  1  0.63981372  0.81429106  0.74441802  1
  Cl  Cl522  1  0.35412997  0.18582533  0.24898591  1
  Cl  Cl523  1  0.35875389  0.51953330  0.25181346  1
  Cl  Cl524  1  0.35955025  0.85247940  0.24888049  1
  Cl  Cl525  1  0.86012269  0.18688537  0.25238352  1
  Cl  Cl526  1  0.86060083  0.51997112  0.25237496  1
  Cl  Cl527  1  0.86437784  0.85486354  0.24877856  1
  Cl  Cl528  1  0.11298083  0.31101626  0.75171334  1
  Cl  Cl529  1  0.10944078  0.64719561  0.75385626  1
  Cl  Cl530  1  0.11147112  0.98110844  0.75047772  1
  Cl  Cl531  1  0.61026704  0.31342903  0.75202225  1
  Cl  Cl532  1  0.60675128  0.64730050  0.75075356  1
  Cl  Cl533  1  0.61351858  0.98015794  0.74765002  1
  Cl  Cl534  1  0.38717572  0.02022586  0.25028179  1
  Cl  Cl535  1  0.38678052  0.35276994  0.24774097  1
  Cl  Cl536  1  0.39074250  0.68952125  0.25206754  1
  Cl  Cl537  1  0.89357789  0.01929844  0.25470230  1
  Cl  Cl538  1  0.88865619  0.35440750  0.25234907  1
  Cl  Cl539  1  0.89039790  0.68704507  0.24996099  1
  Cl  Cl540  1  0.38839971  0.31110830  0.75038384  1
  Cl  Cl541  1  0.38667249  0.64472348  0.74413678  1
  Cl  Cl542  1  0.38996131  0.98181928  0.74733360  1
  Cl  Cl543  1  0.89391565  0.31424765  0.74835843  1
  Cl  Cl544  1  0.88905786  0.64662288  0.74868991  1
  Cl  Cl545  1  0.89079936  0.98045069  0.74756353  1
  Cl  Cl546  1  0.11598350  0.02369171  0.25773071  1
  Cl  Cl547  1  0.10982770  0.35298235  0.24689357  1
  Cl  Cl548  1  0.11064511  0.68671087  0.24621897  1
  Cl  Cl549  1  0.60751646  0.01997499  0.25212861  1
  Cl  Cl550  1  0.60955967  0.35367140  0.24854597  1
  Cl  Cl551  1  0.61213607  0.68707180  0.25390198  1
