# generated using pymatgen
data_H8PbC4(N3Cl2)2
_symmetry_space_group_name_H-M   'P 1'
_cell_length_a   16.61973826
_cell_length_b   22.50159084
_cell_length_c   21.58832943
_cell_angle_alpha   89.99859880
_cell_angle_beta   90.01658093
_cell_angle_gamma   90.00033918
_symmetry_Int_Tables_number   1
_chemical_formula_structural   H8PbC4(N3Cl2)2
_chemical_formula_sum   'H192 Pb24 C96 N144 Cl96'
_cell_volume   8073.39909461
_cell_formula_units_Z   24
loop_
 _symmetry_equiv_pos_site_id
 _symmetry_equiv_pos_as_xyz
  1  'x, y, z'
loop_
 _atom_site_type_symbol
 _atom_site_label
 _atom_site_symmetry_multiplicity
 _atom_site_fract_x
 _atom_site_fract_y
 _atom_site_fract_z
 _atom_site_occupancy
  H  H0  1  0.00104520  0.03414465  0.67969382  1
  H  H1  1  0.00246424  0.36576118  0.67781002  1
  H  H2  1  -0.00770687  0.69959107  0.67893725  1
  H  H3  1  0.49422811  0.03313550  0.67963523  1
  H  H4  1  0.50289921  0.36511553  0.68063279  1
  H  H5  1  0.50398996  0.69838094  0.67849579  1
  H  H6  1  -0.00561087  0.30233880  0.17754030  1
  H  H7  1  0.00076594  0.63505631  0.18173552  1
  H  H8  1  -0.00107130  0.96786171  0.18139091  1
  H  H9  1  0.50652677  0.30175137  0.17952804  1
  H  H10  1  0.50653352  0.63619641  0.18091664  1
  H  H11  1  0.49773290  0.96755316  0.18277294  1
  H  H12  1  -0.00053764  0.03340544  0.81873285  1
  H  H13  1  -0.00062630  0.36486516  0.81930130  1
  H  H14  1  -0.00494436  0.69865997  0.81824994  1
  H  H15  1  0.49761925  0.03089359  0.81830147  1
  H  H16  1  0.50050369  0.36564580  0.82077451  1
  H  H17  1  0.50451383  0.69947916  0.82067002  1
  H  H18  1  -0.00473899  0.30179251  0.31853198  1
  H  H19  1  -0.00278702  0.63406705  0.31810274  1
  H  H20  1  -0.00138222  0.96644241  0.32272396  1
  H  H21  1  0.50327753  0.30202202  0.31791832  1
  H  H22  1  0.50158674  0.63408068  0.31945852  1
  H  H23  1  0.49781859  0.96950803  0.32080619  1
  H  H24  1  0.25027840  0.19864335  0.68117162  1
  H  H25  1  0.24640395  0.52989213  0.67993745  1
  H  H26  1  0.25843702  0.86547524  0.67805082  1
  H  H27  1  0.74859850  0.19691526  0.68058294  1
  H  H28  1  0.75774272  0.53229125  0.68067610  1
  H  H29  1  0.74393302  0.86579657  0.67952431  1
  H  H30  1  0.25350301  0.13414511  0.18061806  1
  H  H31  1  0.24816247  0.46815428  0.18160447  1
  H  H32  1  0.24043809  0.80072353  0.17936137  1
  H  H33  1  0.75712335  0.13489758  0.18350926  1
  H  H34  1  0.75622827  0.46725450  0.18127441  1
  H  H35  1  0.75359949  0.80138595  0.17926459  1
  H  H36  1  0.25514624  0.19793430  0.81923538  1
  H  H37  1  0.25710335  0.53112811  0.81661283  1
  H  H38  1  0.24532068  0.86409074  0.81750491  1
  H  H39  1  0.74781511  0.20071384  0.81919206  1
  H  H40  1  0.74340719  0.53239908  0.81842458  1
  H  H41  1  0.75078985  0.86567758  0.81843585  1
  H  H42  1  0.24644963  0.13430080  0.32099452  1
  H  H43  1  0.25822821  0.46859510  0.31916181  1
  H  H44  1  0.24902784  0.79860073  0.32143636  1
  H  H45  1  0.75950586  0.13238959  0.32200403  1
  H  H46  1  0.74353089  0.46556760  0.31996387  1
  H  H47  1  0.75655072  0.80190169  0.31877917  1
  H  H48  1  0.11858667  0.05422772  0.60475060  1
  H  H49  1  0.11869222  0.39326747  0.60198827  1
  H  H50  1  0.13009655  0.71747440  0.62312448  1
  H  H51  1  0.62328294  0.05229660  0.61543234  1
  H  H52  1  0.61994382  0.38856122  0.60211616  1
  H  H53  1  0.62749300  0.72274553  0.60725767  1
  H  H54  1  0.37167238  0.28120217  0.11990303  1
  H  H55  1  0.37337843  0.61533697  0.11802503  1
  H  H56  1  0.37599747  0.94513700  0.11143115  1
  H  H57  1  0.87469833  0.27826247  0.10331107  1
  H  H58  1  0.87242899  0.61422675  0.11636459  1
  H  H59  1  0.87480380  0.94549631  0.11102166  1
  H  H60  1  0.38078010  0.05734607  0.89527301  1
  H  H61  1  0.37650368  0.38826315  0.89148470  1
  H  H62  1  0.37451206  0.72043446  0.88760300  1
  H  H63  1  0.88125205  0.05415132  0.89305791  1
  H  H64  1  0.87455729  0.38707786  0.89196606  1
  H  H65  1  0.87839762  0.72222139  0.89577109  1
  H  H66  1  0.12452150  0.27961001  0.38602417  1
  H  H67  1  0.13047359  0.61580952  0.37933102  1
  H  H68  1  0.12898815  0.94716601  0.38616793  1
  H  H69  1  0.62721577  0.27840819  0.38856483  1
  H  H70  1  0.62783215  0.61150486  0.38990696  1
  H  H71  1  0.63041705  0.94879538  0.38415931  1
  H  H72  1  0.37290540  0.22030165  0.60942281  1
  H  H73  1  0.36994029  0.55509602  0.60835011  1
  H  H74  1  0.36416659  0.89496938  0.59446713  1
  H  H75  1  0.87345354  0.21881194  0.60882719  1
  H  H76  1  0.86732088  0.55734996  0.59732486  1
  H  H77  1  0.87630788  0.88625092  0.61463875  1
  H  H78  1  0.11961969  0.11432437  0.11784656  1
  H  H79  1  0.12573861  0.44438311  0.10803533  1
  H  H80  1  0.12789015  0.77625220  0.09920849  1
  H  H81  1  0.62247270  0.11511617  0.12049752  1
  H  H82  1  0.62463257  0.44677217  0.11526994  1
  H  H83  1  0.62265319  0.78053389  0.11454129  1
  H  H84  1  0.12695517  0.21894739  0.88732623  1
  H  H85  1  0.12811633  0.55279426  0.88430216  1
  H  H86  1  0.12389254  0.88781409  0.89091305  1
  H  H87  1  0.63098662  0.22238531  0.89451007  1
  H  H88  1  0.63314514  0.55486675  0.89884379  1
  H  H89  1  0.62395750  0.88571304  0.88678013  1
  H  H90  1  0.37822376  0.11268377  0.38385872  1
  H  H91  1  0.37671141  0.44416830  0.39696850  1
  H  H92  1  0.37050483  0.77968359  0.39581063  1
  H  H93  1  0.87399787  0.11001848  0.39944589  1
  H  H94  1  0.88320330  0.44974435  0.37375292  1
  H  H95  1  0.86800714  0.77789892  0.39961774  1
  H  H96  1  0.37811894  0.27875085  0.38913293  1
  H  H97  1  0.37802550  0.61288371  0.39033524  1
  H  H98  1  0.38161592  0.94404993  0.39841444  1
  H  H99  1  0.87542543  0.27733684  0.39230066  1
  H  H100  1  0.88161236  0.61062021  0.39475011  1
  H  H101  1  0.88083342  0.94719528  0.39775985  1
  H  H102  1  0.13031033  0.05222448  0.88376659  1
  H  H103  1  0.12335955  0.38835749  0.89225728  1
  H  H104  1  0.12735285  0.71977329  0.88354173  1
  H  H105  1  0.62985880  0.05103168  0.88144223  1
  H  H106  1  0.62599871  0.38752341  0.89077473  1
  H  H107  1  0.62256510  0.72318585  0.89747213  1
  H  H108  1  0.12356136  0.27980328  0.11162744  1
  H  H109  1  0.12135857  0.61362403  0.10885805  1
  H  H110  1  0.12382047  0.94619042  0.10960683  1
  H  H111  1  0.61975345  0.27665413  0.09977418  1
  H  H112  1  0.62091580  0.61126274  0.10096675  1
  H  H113  1  0.62540320  0.94652166  0.11599482  1
  H  H114  1  0.37433213  0.05565665  0.60514085  1
  H  H115  1  0.37182191  0.38711360  0.61565323  1
  H  H116  1  0.37837399  0.72054615  0.60947285  1
  H  H117  1  0.86928981  0.05150594  0.61514220  1
  H  H118  1  0.87095676  0.38225737  0.61196501  1
  H  H119  1  0.88411062  0.72598748  0.59593772  1
  H  H120  1  0.12924771  0.10872173  0.39766833  1
  H  H121  1  0.12860032  0.44645967  0.38668956  1
  H  H122  1  0.12218350  0.77809150  0.39091574  1
  H  H123  1  0.62628570  0.11495002  0.38271948  1
  H  H124  1  0.63711840  0.44234569  0.40309706  1
  H  H125  1  0.62055440  0.78225788  0.37918637  1
  H  H126  1  0.37575237  0.22346839  0.89261506  1
  H  H127  1  0.37705748  0.55472764  0.89132221  1
  H  H128  1  0.37303801  0.88647712  0.88602953  1
  H  H129  1  0.88002977  0.21901504  0.88285923  1
  H  H130  1  0.88081275  0.54991980  0.87561357  1
  H  H131  1  0.87322923  0.88751961  0.88864948  1
  H  H132  1  0.36726165  0.11003824  0.09945609  1
  H  H133  1  0.37501097  0.44586133  0.11302001  1
  H  H134  1  0.37526327  0.78080866  0.11885383  1
  H  H135  1  0.87035684  0.11247494  0.10390880  1
  H  H136  1  0.87229966  0.44345635  0.10207783  1
  H  H137  1  0.87185923  0.77782352  0.10283160  1
  H  H138  1  0.12305714  0.22069482  0.61197950  1
  H  H139  1  0.12128140  0.55371929  0.61084497  1
  H  H140  1  0.11888154  0.88120297  0.62205949  1
  H  H141  1  0.62448121  0.21900272  0.61001239  1
  H  H142  1  0.62134166  0.55192358  0.62177427  1
  H  H143  1  0.62861527  0.89051990  0.60049048  1
  H  H144  1  0.55239871  0.25136539  -0.00314821  1
  H  H145  1  0.07298906  0.58438384  -0.00009668  1
  H  H146  1  0.44521077  0.91890696  0.50239861  1
  H  H147  1  0.57908278  0.41682837  0.99575999  1
  H  H148  1  0.32187368  0.58318199  0.99861497  1
  H  H149  1  0.59024231  0.08307367  0.50240770  1
  H  H150  1  0.90568627  0.58308067  0.00475714  1
  H  H151  1  0.92994517  0.24733497  0.49950841  1
  H  H152  1  0.41605984  0.74747812  0.99365610  1
  H  H153  1  0.57898511  0.24781092  0.49705988  1
  H  H154  1  0.69883594  0.58110746  1.00688709  1
  H  H155  1  0.17709357  0.91632622  0.99871708  1
  H  H156  1  0.81044930  0.75121437  -0.00179384  1
  H  H157  1  0.31809649  0.74438077  0.49610016  1
  H  H158  1  0.42467836  0.58245010  0.50007427  1
  H  H159  1  0.82810747  0.91642944  0.99979932  1
  H  H160  1  0.68810123  0.24934818  1.00543210  1
  H  H161  1  0.95631492  0.75364576  0.49563283  1
  H  H162  1  0.06245767  0.07935015  0.49282355  1
  H  H163  1  0.94044850  0.74853829  1.00347842  1
  H  H164  1  0.19219888  0.08258919  0.50201498  1
  H  H165  1  0.80519560  0.08576828  -0.00302565  1
  H  H166  1  0.16675240  0.24970155  0.50708937  1
  H  H167  1  0.55308138  0.58706416  -0.00136976  1
  H  H168  1  0.10228530  0.58607607  0.49218752  1
  H  H169  1  0.93597914  0.08188138  1.00410142  1
  H  H170  1  0.13583336  0.91626404  0.51501461  1
  H  H171  1  0.05644328  0.40901262  0.49758213  1
  H  H172  1  0.59664036  0.08062736  0.99310484  1
  H  H173  1  0.57846999  0.75183044  0.50293176  1
  H  H174  1  0.08188384  0.25049623  0.00530039  1
  H  H175  1  0.70661153  0.41612117  0.50887678  1
  H  H176  1  0.44144100  0.07961798  0.99981218  1
  H  H177  1  0.79459018  0.58004737  0.49634172  1
  H  H178  1  0.42266012  0.91632230  0.00156518  1
  H  H179  1  0.90291711  0.41692496  0.50605071  1
  H  H180  1  0.33055073  0.41752049  0.00318793  1
  H  H181  1  0.55508163  0.41396697  0.49917535  1
  H  H182  1  0.32484048  0.24941773  0.49989413  1
  H  H183  1  0.58884003  0.91685233  0.00527095  1
  H  H184  1  0.93953231  0.58478318  0.50397941  1
  H  H185  1  0.58263338  0.58330927  0.49457136  1
  H  H186  1  0.83810240  0.91846805  0.51009936  1
  H  H187  1  0.80065445  0.75139212  0.50536679  1
  H  H188  1  0.29806038  0.08419767  -0.00212893  1
  H  H189  1  0.32382833  0.25174513  1.00035426  1
  H  H190  1  0.28668039  0.90967597  0.49335009  1
  H  H191  1  0.16307461  0.75566420  0.49744177  1
  Pb  Pb192  1  0.25208963  0.04939746  0.74850099  1
  Pb  Pb193  1  0.24959745  0.37815983  0.75216335  1
  Pb  Pb194  1  0.25362924  0.71305113  0.74554805  1
  Pb  Pb195  1  0.75250679  0.04593463  0.75398111  1
  Pb  Pb196  1  0.75259015  0.38074495  0.74850908  1
  Pb  Pb197  1  0.75360265  0.71460312  0.75102150  1
  Pb  Pb198  1  0.24479446  0.28516959  0.25337964  1
  Pb  Pb199  1  0.25129593  0.62191391  0.24819469  1
  Pb  Pb200  1  0.24755744  0.95208424  0.25280884  1
  Pb  Pb201  1  0.75026120  0.28706453  0.24849770  1
  Pb  Pb202  1  0.74493552  0.61805588  0.25256056  1
  Pb  Pb203  1  0.74991781  0.95498800  0.25096005  1
  Pb  Pb204  1  -0.00034457  0.21302826  0.74980486  1
  Pb  Pb205  1  0.00347392  0.54732340  0.74587448  1
  Pb  Pb206  1  0.00258024  0.88026396  0.75277217  1
  Pb  Pb207  1  0.50476489  0.21503078  0.75358696  1
  Pb  Pb208  1  0.49992020  0.54634336  0.75307650  1
  Pb  Pb209  1  0.50134969  0.88133331  0.74411088  1
  Pb  Pb210  1  -0.00300693  0.11970270  0.25209595  1
  Pb  Pb211  1  0.00229353  0.45421335  0.25098660  1
  Pb  Pb212  1  -0.00544174  0.78555873  0.24986846  1
  Pb  Pb213  1  0.49774897  0.12059021  0.24336713  1
  Pb  Pb214  1  0.49660558  0.44975440  0.25330943  1
  Pb  Pb215  1  0.49908067  0.78883710  0.25237373  1
  C  C216  1  -0.00344808  0.04684148  0.63143366  1
  C  C217  1  -0.00280068  0.38063825  0.63001625  1
  C  C218  1  0.00201873  0.71376874  0.63148243  1
  C  C219  1  0.49782264  0.04728179  0.63175828  1
  C  C220  1  0.49857439  0.38002245  0.63297988  1
  C  C221  1  0.50369045  0.71380179  0.63100247  1
  C  C222  1  -0.00208943  0.28708029  0.13007502  1
  C  C223  1  -0.00197224  0.62025842  0.13388651  1
  C  C224  1  -0.00050238  0.95341499  0.13368311  1
  C  C225  1  0.49948994  0.28711805  0.13200144  1
  C  C226  1  0.50063988  0.62111539  0.13343558  1
  C  C227  1  0.49981231  0.95298814  0.13479264  1
  C  C228  1  0.00345323  0.04665926  0.86682202  1
  C  C229  1  -0.00080945  0.37971345  0.86705185  1
  C  C230  1  0.00046136  0.71352415  0.86588140  1
  C  C231  1  0.50256155  0.04592304  0.86607940  1
  C  C232  1  0.50141688  0.38060782  0.86846065  1
  C  C233  1  0.50022765  0.71413610  0.86844022  1
  C  C234  1  -0.00132791  0.28657156  0.36614737  1
  C  C235  1  0.00344209  0.61962614  0.36586865  1
  C  C236  1  0.00296195  0.95334923  0.37075977  1
  C  C237  1  0.50264953  0.28689176  0.36555416  1
  C  C238  1  0.50301969  0.61931052  0.36742156  1
  C  C239  1  0.50306962  0.95457970  0.36825781  1
  C  C240  1  0.24833162  0.21346677  0.63327469  1
  C  C241  1  0.24611412  0.54605396  0.63291896  1
  C  C242  1  0.24690536  0.88071932  0.63099829  1
  C  C243  1  0.74916201  0.21138513  0.63289667  1
  C  C244  1  0.74891947  0.54674565  0.63317279  1
  C  C245  1  0.74976899  0.88087550  0.63199152  1
  C  C246  1  0.24702647  0.11966075  0.13293604  1
  C  C247  1  0.24955503  0.45295150  0.13401772  1
  C  C248  1  0.24820237  0.78638038  0.13195048  1
  C  C249  1  0.74948892  0.12054467  0.13584627  1
  C  C250  1  0.75116512  0.45322275  0.13332292  1
  C  C251  1  0.74966480  0.78701791  0.13153029  1
  C  C252  1  0.25251886  0.21337341  0.86677767  1
  C  C253  1  0.25400643  0.54618127  0.86424853  1
  C  C254  1  0.24747736  0.87941023  0.86508840  1
  C  C255  1  0.75270422  0.21418178  0.86719608  1
  C  C256  1  0.75221733  0.54573585  0.86614217  1
  C  C257  1  0.74980860  0.87970190  0.86641393  1
  C  C258  1  0.25100230  0.11932416  0.36851767  1
  C  C259  1  0.25464989  0.45370398  0.36686473  1
  C  C260  1  0.24710385  0.78570340  0.37001757  1
  C  C261  1  0.75312843  0.11911819  0.36995130  1
  C  C262  1  0.75457873  0.45287546  0.36766811  1
  C  C263  1  0.74796818  0.78718096  0.36619662  1
  C  C264  1  0.05604595  0.59551512  0.45674616  1
  C  C265  1  0.46001239  0.74120642  0.53769026  1
  C  C266  1  0.97412952  0.59454105  0.46244303  1
  C  C267  1  0.78134847  0.09449665  0.46584216  1
  C  C268  1  0.21453614  0.90582173  0.95888549  1
  C  C269  1  0.05220882  0.93018977  0.46240587  1
  C  C270  1  0.54472174  0.07271937  0.53901934  1
  C  C271  1  0.96174029  0.25814830  0.03555167  1
  C  C272  1  0.97068326  0.92968065  0.46626028  1
  C  C273  1  0.69895501  0.76080733  0.04014469  1
  C  C274  1  0.96699785  0.25921932  0.45988302  1
  C  C275  1  0.02734108  0.07032129  0.53435145  1
  C  C276  1  0.28946554  0.42732098  0.04168866  1
  C  C277  1  0.80419748  0.23809172  0.95807489  1
  C  C278  1  0.72289522  0.23925679  0.96401879  1
  C  C279  1  0.55560703  0.92698950  0.45852843  1
  C  C280  1  0.97178158  0.07128927  0.96338014  1
  C  C281  1  0.71096940  0.23800255  0.53969598  1
  C  C282  1  0.03354796  0.59422962  0.03881015  1
  C  C283  1  0.05295933  0.06977218  0.95830807  1
  C  C284  1  0.97361901  0.73884245  0.96117138  1
  C  C285  1  0.81184092  0.56877508  0.95448295  1
  C  C286  1  0.28534008  0.57258791  0.95836065  1
  C  C287  1  0.53928996  0.25943734  0.45825543  1
  C  C288  1  0.28681668  0.23924348  0.53936669  1
  C  C289  1  0.28509514  0.24070534  0.96060892  1
  C  C290  1  0.30325525  0.09129780  0.45881400  1
  C  C291  1  0.96120661  0.92648046  0.04066768  1
  C  C292  1  0.70052702  0.09619825  0.46008515  1
  C  C293  1  0.77334554  0.09567939  0.03993713  1
  C  C294  1  0.73781653  0.42776042  0.46623570  1
  C  C295  1  0.45997929  0.40834025  0.96217797  1
  C  C296  1  0.20649857  0.57497804  0.54071046  1
  C  C297  1  0.76938977  0.76133222  0.46220794  1
  C  C298  1  0.46239144  0.92694357  0.04003326  1
  C  C299  1  0.94590779  0.06889015  0.53979027  1
  C  C300  1  0.81802442  0.43122496  0.45470666  1
  C  C301  1  0.44300799  0.26040940  0.04290794  1
  C  C302  1  0.54465853  0.92739586  0.04184250  1
  C  C303  1  0.78733672  0.90574450  0.96141246  1
  C  C304  1  0.55353648  0.07159729  0.95632013  1
  C  C305  1  0.46311862  0.59307235  0.46090962  1
  C  C306  1  0.73099293  0.57085369  0.96423205  1
  C  C307  1  0.95138579  0.59406631  0.04136577  1
  C  C308  1  0.06372857  0.74012048  0.54419770  1
  C  C309  1  0.70560070  0.90449955  0.95937130  1
  C  C310  1  0.46293262  0.07339238  0.53690707  1
  C  C311  1  0.22467184  0.75815242  0.03663962  1
  N  N312  1  0.44604934  0.59515213  0.04430899  1
  N  N313  1  0.54288209  0.59382508  0.45972668  1
  N  N314  1  0.20943825  0.42684717  0.45871834  1
  N  N315  1  0.52187750  0.25916254  0.03732530  1
  N  N316  1  0.78870407  0.23841528  0.53837042  1
  N  N317  1  0.94827038  0.40130900  0.53942395  1
  N  N318  1  0.79600786  0.90629391  0.54288538  1
  N  N319  1  0.26324098  0.91411032  0.53748452  1
  N  N320  1  0.53938723  0.40749435  0.96081624  1
  N  N321  1  0.69047270  0.76228993  0.45555481  1
  N  N322  1  0.47415320  0.07447139  0.95984028  1
  N  N323  1  0.77781071  0.76021494  0.03731953  1
  N  N324  1  0.22433605  0.09082940  0.46246111  1
  N  N325  1  0.45985272  0.25981373  0.45900559  1
  N  N326  1  0.68979133  0.57001864  0.54496998  1
  N  N327  1  0.98527130  0.74204915  0.53585607  1
  N  N328  1  0.44689966  0.40580529  0.54271401  1
  N  N329  1  0.29395572  0.90559604  0.95775244  1
  N  N330  1  0.21015344  0.42652149  0.03946739  1
  N  N331  1  0.70322580  0.42964940  0.04135060  1
  N  N332  1  0.26957858  0.09392616  0.03873464  1
  N  N333  1  0.47688042  0.92636873  0.46233496  1
  N  N334  1  0.71818084  0.90818845  0.53664862  1
  N  N335  1  0.03899428  0.92658144  0.03910672  1
  N  N336  1  0.69453847  0.09637105  0.04554230  1
  N  N337  1  0.04649356  0.26067963  0.45866135  1
  N  N338  1  0.52477865  0.40658412  0.53967040  1
  N  N339  1  0.53508737  0.73924478  0.96377202  1
  N  N340  1  0.28427951  0.57600432  0.53871196  1
  N  N341  1  0.20711331  0.23897367  0.54136922  1
  N  N342  1  0.28577016  0.42623206  0.46193414  1
  N  N343  1  0.53932261  0.74168651  0.53827635  1
  N  N344  1  0.18613702  0.90079498  0.54473536  1
  N  N345  1  0.96056136  0.40696679  0.96048862  1
  N  N346  1  0.02581664  0.41492769  0.53853333  1
  N  N347  1  0.28257983  0.76724739  0.46490643  1
  N  N348  1  0.76738612  0.57336026  0.53847047  1
  N  N349  1  0.77956801  0.42778568  0.03713746  1
  N  N350  1  0.03683185  0.40745563  0.96058483  1
  N  N351  1  0.30203085  0.75988471  0.04151363  1
  N  N352  1  0.20551956  0.23925234  0.95952710  1
  N  N353  1  0.19186852  0.09502333  0.04354799  1
  N  N354  1  0.05261242  0.73845920  0.95711204  1
  N  N355  1  0.20437807  0.75612631  0.45980758  1
  N  N356  1  0.04071888  0.25917486  0.03937916  1
  N  N357  1  0.45693935  0.73817222  0.95896872  1
  N  N358  1  0.20600272  0.57192647  0.95657041  1
  N  N359  1  0.52393057  0.59328805  0.03991468  1
  N  N360  1  0.05798994  0.05633275  0.59277396  1
  N  N361  1  0.05727034  0.39232945  0.59161407  1
  N  N362  1  0.07394394  0.72237637  0.60343658  1
  N  N363  1  0.56468187  0.05638701  0.59916353  1
  N  N364  1  0.55814104  0.38962929  0.59370214  1
  N  N365  1  0.56689770  0.72475228  0.59583623  1
  N  N366  1  0.42920459  0.27693619  0.10181149  1
  N  N367  1  0.43235788  0.61065659  0.10324649  1
  N  N368  1  0.43603689  0.94289580  0.09824286  1
  N  N369  1  0.93497561  0.27521043  0.09166832  1
  N  N370  1  0.93115985  0.61033130  0.10089619  1
  N  N371  1  0.93479937  0.94265943  0.09775112  1
  N  N372  1  0.44269284  0.05631440  0.90491628  1
  N  N373  1  0.43650314  0.39178685  0.90498359  1
  N  N374  1  0.43439873  0.72300362  0.90144543  1
  N  N375  1  0.94185029  0.05664067  0.90503320  1
  N  N376  1  0.93561110  0.38960415  0.90262964  1
  N  N377  1  0.93982110  0.72391154  0.90545374  1
  N  N378  1  0.06437080  0.27754737  0.39948483  1
  N  N379  1  0.07245693  0.61091096  0.39643428  1
  N  N380  1  0.07091801  0.94433162  0.40324793  1
  N  N381  1  0.56688298  0.27590458  0.40124870  1
  N  N382  1  0.56727218  0.60977139  0.40205005  1
  N  N383  1  0.57206615  0.94406008  0.40018878  1
  N  N384  1  0.31269400  0.22324315  0.59642236  1
  N  N385  1  0.30887831  0.55742918  0.59755563  1
  N  N386  1  0.30170388  0.89203771  0.58796781  1
  N  N387  1  0.81258523  0.22120651  0.59757799  1
  N  N388  1  0.80500543  0.55689557  0.59104855  1
  N  N389  1  0.81657854  0.89081825  0.60058424  1
  N  N390  1  0.17832963  0.11051008  0.10261685  1
  N  N391  1  0.18693228  0.44262157  0.09748798  1
  N  N392  1  0.18918611  0.77423582  0.09067202  1
  N  N393  1  0.68132356  0.11188193  0.10558843  1
  N  N394  1  0.68443226  0.44507198  0.10100982  1
  N  N395  1  0.68135578  0.77711588  0.09852663  1
  N  N396  1  0.18727540  0.22217829  0.90057199  1
  N  N397  1  0.18842123  0.55545439  0.89771754  1
  N  N398  1  0.18464116  0.89026653  0.90227302  1
  N  N399  1  0.69169014  0.22413579  0.90611143  1
  N  N400  1  0.69479328  0.55635393  0.90774769  1
  N  N401  1  0.68331990  0.88898244  0.90191806  1
  N  N402  1  0.31987350  0.10851438  0.40054308  1
  N  N403  1  0.31526456  0.44277456  0.40514595  1
  N  N404  1  0.30956137  0.77535230  0.40648871  1
  N  N405  1  0.81318493  0.10842741  0.41048760  1
  N  N406  1  0.82743426  0.44612396  0.39481947  1
  N  N407  1  0.80607578  0.77624490  0.40776605  1
  N  N408  1  0.43883956  0.27707778  0.40082055  1
  N  N409  1  0.43825696  0.60893730  0.40359069  1
  N  N410  1  0.44333883  0.94478577  0.40741785  1
  N  N411  1  0.93634150  0.27508922  0.40364604  1
  N  N412  1  0.94271274  0.60944900  0.40544712  1
  N  N413  1  0.94151301  0.94385242  0.40997754  1
  N  N414  1  0.07178715  0.05513075  0.90007596  1
  N  N415  1  0.06233765  0.39066957  0.90270850  1
  N  N416  1  0.06748355  0.72280436  0.89770327  1
  N  N417  1  0.57136120  0.05518314  0.89774637  1
  N  N418  1  0.56547929  0.39030073  0.90310333  1
  N  N419  1  0.56139467  0.72437409  0.90689862  1
  N  N420  1  0.06377653  0.27736167  0.09755367  1
  N  N421  1  0.06099599  0.61036715  0.09666590  1
  N  N422  1  0.06289016  0.94373871  0.09830513  1
  N  N423  1  0.55769041  0.27724042  0.09165996  1
  N  N424  1  0.55888098  0.61096323  0.09312401  1
  N  N425  1  0.56615360  0.94360368  0.10105577  1
  N  N426  1  0.43480945  0.05806235  0.59298216  1
  N  N427  1  0.43112315  0.39032429  0.60145350  1
  N  N428  1  0.43798771  0.72420481  0.59518904  1
  N  N429  1  0.92799340  0.05498641  0.59843835  1
  N  N430  1  0.92993953  0.38889499  0.59824786  1
  N  N431  1  0.94634255  0.72509991  0.58949029  1
  N  N432  1  0.19092473  0.10908334  0.40723788  1
  N  N433  1  0.18888686  0.44410899  0.39986840  1
  N  N434  1  0.18202448  0.77824764  0.40454110  1
  N  N435  1  0.68381509  0.11104574  0.40130993  1
  N  N436  1  0.69908898  0.44175989  0.41062646  1
  N  N437  1  0.67909332  0.77827073  0.39539198  1
  N  N438  1  0.31506478  0.22509025  0.90392382  1
  N  N439  1  0.31631238  0.55712360  0.90201597  1
  N  N440  1  0.31261214  0.88922351  0.89897057  1
  N  N441  1  0.82161666  0.22300406  0.89964443  1
  N  N442  1  0.82386906  0.55391949  0.89511322  1
  N  N443  1  0.81346510  0.89007074  0.90231685  1
  N  N444  1  0.30504069  0.10942104  0.09242152  1
  N  N445  1  0.31517396  0.44313345  0.09946705  1
  N  N446  1  0.31660114  0.77785581  0.10237804  1
  N  N447  1  0.80856604  0.11006358  0.09500093  1
  N  N448  1  0.81062126  0.44268598  0.09389477  1
  N  N449  1  0.81030705  0.77724196  0.09320789  1
  N  N450  1  0.18355746  0.22335841  0.59932414  1
  N  N451  1  0.18085740  0.55735405  0.59776036  1
  N  N452  1  0.17594597  0.88934210  0.60475741  1
  N  N453  1  0.68449448  0.22194452  0.59684975  1
  N  N454  1  0.67917449  0.55556077  0.60455240  1
  N  N455  1  0.68981803  0.89171885  0.59247246  1
  Cl  Cl456  1  0.24509527  0.05568327  0.61152655  1
  Cl  Cl457  1  0.24234688  0.38511418  0.61986840  1
  Cl  Cl458  1  0.25576663  0.72430378  0.60764568  1
  Cl  Cl459  1  0.74705458  0.04989505  0.62425705  1
  Cl  Cl460  1  0.74346613  0.38615720  0.61209945  1
  Cl  Cl461  1  0.75815679  0.72242084  0.61246588  1
  Cl  Cl462  1  0.24728413  0.27965039  0.12047175  1
  Cl  Cl463  1  0.24869031  0.61627436  0.11583116  1
  Cl  Cl464  1  0.24795883  0.94703292  0.12072699  1
  Cl  Cl465  1  0.74375310  0.27784781  0.11285447  1
  Cl  Cl466  1  0.74198788  0.61657219  0.11807110  1
  Cl  Cl467  1  0.75199186  0.94570546  0.11871661  1
  Cl  Cl468  1  0.26029018  0.05845865  0.88985904  1
  Cl  Cl469  1  0.25167318  0.38685789  0.88498939  1
  Cl  Cl470  1  0.25215072  0.71911966  0.87670032  1
  Cl  Cl471  1  0.75586839  0.05404766  0.88828989  1
  Cl  Cl472  1  0.74963573  0.38476582  0.87975379  1
  Cl  Cl473  1  0.75252696  0.72426483  0.89195675  1
  Cl  Cl474  1  0.24998073  0.27431863  0.38928424  1
  Cl  Cl475  1  0.25543437  0.62067453  0.37886083  1
  Cl  Cl476  1  0.25999996  0.94020785  0.39493613  1
  Cl  Cl477  1  0.75123697  0.28037097  0.37903776  1
  Cl  Cl478  1  0.75551574  0.60893040  0.39228089  1
  Cl  Cl479  1  0.75666939  0.94917480  0.38338004  1
  Cl  Cl480  1  -0.00140887  0.22036753  0.61573120  1
  Cl  Cl481  1  -0.00969809  0.55500803  0.61023419  1
  Cl  Cl482  1  -0.00427227  0.88163534  0.61713540  1
  Cl  Cl483  1  0.50028053  0.21978055  0.62127199  1
  Cl  Cl484  1  0.49621278  0.55588297  0.61418670  1
  Cl  Cl485  1  0.48879932  0.89169819  0.60188751  1
  Cl  Cl486  1  -0.00689942  0.11572943  0.11739145  1
  Cl  Cl487  1  -0.00163474  0.44535209  0.12245460  1
  Cl  Cl488  1  -0.00405581  0.77902576  0.11549331  1
  Cl  Cl489  1  0.48868778  0.11068769  0.10283605  1
  Cl  Cl490  1  0.50132410  0.44480737  0.11602902  1
  Cl  Cl491  1  0.49936456  0.77813035  0.12063348  1
  Cl  Cl492  1  0.00449554  0.21904604  0.88434187  1
  Cl  Cl493  1  0.00508034  0.55444139  0.87754260  1
  Cl  Cl494  1  -0.00033288  0.88591779  0.88026551  1
  Cl  Cl495  1  0.50418757  0.22462032  0.89270978  1
  Cl  Cl496  1  0.50703257  0.55505424  0.89112420  1
  Cl  Cl497  1  0.49785160  0.88629826  0.87750723  1
  Cl  Cl498  1  0.00568865  0.11036052  0.38549849  1
  Cl  Cl499  1  0.00802954  0.44166438  0.38853531  1
  Cl  Cl500  1  -0.00605184  0.77710652  0.39345498  1
  Cl  Cl501  1  0.50114505  0.11375715  0.37403139  1
  Cl  Cl502  1  0.50916079  0.44406114  0.39168250  1
  Cl  Cl503  1  0.49352518  0.78152093  0.38863117  1
  Cl  Cl504  1  0.35979839  0.14280235  0.74953478  1
  Cl  Cl505  1  0.36378729  0.47788971  0.74752218  1
  Cl  Cl506  1  0.35935120  0.81176055  0.74768674  1
  Cl  Cl507  1  0.86206270  0.14409068  0.75108552  1
  Cl  Cl508  1  0.86049947  0.47751885  0.74995575  1
  Cl  Cl509  1  0.86110544  0.81001494  0.74823659  1
  Cl  Cl510  1  0.14015503  0.18951985  0.24900999  1
  Cl  Cl511  1  0.13677306  0.52293698  0.25144383  1
  Cl  Cl512  1  0.14212580  0.85653018  0.25456046  1
  Cl  Cl513  1  0.63394819  0.18892563  0.24711807  1
  Cl  Cl514  1  0.64067404  0.52444590  0.25012098  1
  Cl  Cl515  1  0.63619344  0.85562417  0.25077201  1
  Cl  Cl516  1  0.13911970  0.14342734  0.75149226  1
  Cl  Cl517  1  0.13665926  0.47830646  0.74952967  1
  Cl  Cl518  1  0.13593913  0.81004214  0.74299963  1
  Cl  Cl519  1  0.63572028  0.14389008  0.75204333  1
  Cl  Cl520  1  0.63597116  0.47873248  0.74590508  1
  Cl  Cl521  1  0.63711730  0.81265966  0.74829348  1
  Cl  Cl522  1  0.36379452  0.18876912  0.25171448  1
  Cl  Cl523  1  0.36215279  0.52295343  0.24773365  1
  Cl  Cl524  1  0.36270397  0.85417156  0.25019473  1
  Cl  Cl525  1  0.86116591  0.18755582  0.25085980  1
  Cl  Cl526  1  0.86454406  0.52289191  0.25494801  1
  Cl  Cl527  1  0.86068669  0.85379367  0.25051210  1
  Cl  Cl528  1  0.11215467  0.31066293  0.74881629  1
  Cl  Cl529  1  0.11193639  0.64468916  0.74662806  1
  Cl  Cl530  1  0.11201817  0.97636742  0.75013339  1
  Cl  Cl531  1  0.60908671  0.31002927  0.75179249  1
  Cl  Cl532  1  0.61143859  0.64574625  0.74850080  1
  Cl  Cl533  1  0.61075336  0.97655355  0.75223911  1
  Cl  Cl534  1  0.38847836  0.02198836  0.24938715  1
  Cl  Cl535  1  0.39114652  0.35675684  0.24844416  1
  Cl  Cl536  1  0.38815243  0.68796922  0.24856564  1
  Cl  Cl537  1  0.88795376  0.02209301  0.25058795  1
  Cl  Cl538  1  0.88666708  0.35534673  0.25180895  1
  Cl  Cl539  1  0.89150763  0.69037183  0.25029869  1
  Cl  Cl540  1  0.38691428  0.31197562  0.74961212  1
  Cl  Cl541  1  0.38836644  0.64577954  0.74893788  1
  Cl  Cl542  1  0.38811647  0.97789937  0.74755092  1
  Cl  Cl543  1  0.88751409  0.31093212  0.74676011  1
  Cl  Cl544  1  0.88695012  0.64491853  0.75004718  1
  Cl  Cl545  1  0.88680498  0.97739572  0.74672555  1
  Cl  Cl546  1  0.11402508  0.02180804  0.25095608  1
  Cl  Cl547  1  0.11269872  0.35451025  0.25122371  1
  Cl  Cl548  1  0.11373994  0.68961981  0.25378280  1
  Cl  Cl549  1  0.61246010  0.02218217  0.24775088  1
  Cl  Cl550  1  0.61168205  0.35644127  0.24863220  1
  Cl  Cl551  1  0.61294736  0.68884580  0.25592034  1
