# generated using pymatgen
data_H8PbC4(N3Cl2)2
_symmetry_space_group_name_H-M   'P 1'
_cell_length_a   16.62429075
_cell_length_b   22.51031226
_cell_length_c   21.59259724
_cell_angle_alpha   89.99988986
_cell_angle_beta   90.00392184
_cell_angle_gamma   90.00413903
_symmetry_Int_Tables_number   1
_chemical_formula_structural   H8PbC4(N3Cl2)2
_chemical_formula_sum   'H192 Pb24 C96 N144 Cl96'
_cell_volume   8080.33799026
_cell_formula_units_Z   24
loop_
 _symmetry_equiv_pos_site_id
 _symmetry_equiv_pos_as_xyz
  1  'x, y, z'
loop_
 _atom_site_type_symbol
 _atom_site_label
 _atom_site_symmetry_multiplicity
 _atom_site_fract_x
 _atom_site_fract_y
 _atom_site_fract_z
 _atom_site_occupancy
  H  H0  1  -0.00316628  0.03004427  0.67842605  1
  H  H1  1  0.00972409  0.36336530  0.68223561  1
  H  H2  1  -0.00293442  0.69628290  0.67747266  1
  H  H3  1  0.49376225  0.03128389  0.68131128  1
  H  H4  1  0.49626131  0.36129141  0.67963692  1
  H  H5  1  0.50221416  0.69760686  0.67937209  1
  H  H6  1  -0.01381153  0.30157835  0.18046427  1
  H  H7  1  -0.00307689  0.63763051  0.17565561  1
  H  H8  1  -0.00242565  0.97018797  0.17796615  1
  H  H9  1  0.51212579  0.30302584  0.17883557  1
  H  H10  1  0.50690747  0.63557319  0.17739104  1
  H  H11  1  0.50821684  0.97029575  0.17959170  1
  H  H12  1  0.00560865  0.02966455  0.82159375  1
  H  H13  1  -0.00414741  0.36374504  0.81869089  1
  H  H14  1  0.01165333  0.69804814  0.82347487  1
  H  H15  1  0.50148927  0.02809532  0.82065879  1
  H  H16  1  0.50063333  0.36297237  0.81881178  1
  H  H17  1  0.49638062  0.69604228  0.82469552  1
  H  H18  1  -0.00441054  0.30264736  0.31765236  1
  H  H19  1  -0.00357754  0.63458893  0.32196274  1
  H  H20  1  0.00145332  0.96757660  0.31890279  1
  H  H21  1  0.50763409  0.30294888  0.32129381  1
  H  H22  1  0.49170684  0.63580914  0.32168873  1
  H  H23  1  0.50545524  0.97152624  0.32064748  1
  H  H24  1  0.24640452  0.19543389  0.67814002  1
  H  H25  1  0.25538879  0.53068310  0.67719101  1
  H  H26  1  0.24356066  0.86551021  0.68163177  1
  H  H27  1  0.74635789  0.19720433  0.67829695  1
  H  H28  1  0.75386374  0.53228566  0.67874265  1
  H  H29  1  0.75354435  0.86422717  0.68041527  1
  H  H30  1  0.25710275  0.13631934  0.18062960  1
  H  H31  1  0.25637272  0.47055040  0.17543689  1
  H  H32  1  0.25392684  0.80037402  0.17956983  1
  H  H33  1  0.74408593  0.13421772  0.17834829  1
  H  H34  1  0.75525510  0.46970397  0.18252214  1
  H  H35  1  0.73606292  0.80241742  0.17438743  1
  H  H36  1  0.25467939  0.19691068  0.82401776  1
  H  H37  1  0.24949137  0.53030141  0.82595531  1
  H  H38  1  0.25663400  0.86390849  0.82082074  1
  H  H39  1  0.74597032  0.19895388  0.81677137  1
  H  H40  1  0.74020140  0.53018835  0.82292092  1
  H  H41  1  0.74946767  0.86169014  0.82195314  1
  H  H42  1  0.24746756  0.13352419  0.31896604  1
  H  H43  1  0.24386010  0.46883342  0.32182316  1
  H  H44  1  0.26513141  0.80250130  0.32443201  1
  H  H45  1  0.75597032  0.13535738  0.31944226  1
  H  H46  1  0.75326796  0.47135260  0.32095165  1
  H  H47  1  0.73232638  0.80312191  0.31821159  1
  H  H48  1  0.13079547  0.05271708  0.61681502  1
  H  H49  1  0.11769380  0.38966594  0.59951014  1
  H  H50  1  0.12859798  0.71995981  0.61362493  1
  H  H51  1  0.63051714  0.05034267  0.62586082  1
  H  H52  1  0.61909538  0.38707837  0.60665149  1
  H  H53  1  0.62743317  0.71934761  0.60922804  1
  H  H54  1  0.37535019  0.28268217  0.12201911  1
  H  H55  1  0.36480230  0.61661729  0.13009594  1
  H  H56  1  0.37547321  0.94791490  0.11510027  1
  H  H57  1  0.88164036  0.27586958  0.09549494  1
  H  H58  1  0.86676698  0.61538683  0.11009525  1
  H  H59  1  0.87686079  0.94431608  0.10447978  1
  H  H60  1  0.37476421  0.05306185  0.88912215  1
  H  H61  1  0.37701204  0.38815161  0.89025807  1
  H  H62  1  0.38230897  0.72382499  0.90294325  1
  H  H63  1  0.87162191  0.05062388  0.88319788  1
  H  H64  1  0.87953696  0.39056820  0.89653379  1
  H  H65  1  0.87789474  0.71733132  0.88126512  1
  H  H66  1  0.12346416  0.27876309  0.38725569  1
  H  H67  1  0.13038145  0.61282729  0.38357377  1
  H  H68  1  0.11754823  0.94696761  0.39475202  1
  H  H69  1  0.62103349  0.27537976  0.40054157  1
  H  H70  1  0.63217257  0.61488285  0.37379654  1
  H  H71  1  0.62132339  0.94445300  0.39684749  1
  H  H72  1  0.37588807  0.21906457  0.61377867  1
  H  H73  1  0.36423113  0.56066357  0.59575866  1
  H  H74  1  0.37746386  0.88424303  0.62199130  1
  H  H75  1  0.87244953  0.21855886  0.61164001  1
  H  H76  1  0.87191396  0.55504495  0.60366239  1
  H  H77  1  0.87728709  0.88851870  0.60777012  1
  H  H78  1  0.12738602  0.11295617  0.11667708  1
  H  H79  1  0.12302689  0.44918401  0.11430057  1
  H  H80  1  0.12060174  0.78167067  0.11755246  1
  H  H81  1  0.63173179  0.11110574  0.09972360  1
  H  H82  1  0.62564948  0.44718248  0.11539493  1
  H  H83  1  0.62717659  0.77552751  0.09476609  1
  H  H84  1  0.12372935  0.22000253  0.88916423  1
  H  H85  1  0.13620707  0.55616104  0.90496435  1
  H  H86  1  0.12741053  0.88394872  0.88802781  1
  H  H87  1  0.62426218  0.21916364  0.88941715  1
  H  H88  1  0.63802894  0.56233824  0.90724206  1
  H  H89  1  0.62566718  0.88548395  0.89478225  1
  H  H90  1  0.36499390  0.11230806  0.39346645  1
  H  H91  1  0.37978344  0.45098254  0.38051004  1
  H  H92  1  0.36475488  0.77128787  0.41153004  1
  H  H93  1  0.86299661  0.10912653  0.40097103  1
  H  H94  1  0.87528893  0.44745824  0.39277528  1
  H  H95  1  0.87147753  0.78382728  0.37466164  1
  H  H96  1  0.37407999  0.28162066  0.38178672  1
  H  H97  1  0.38685530  0.60612044  0.40616490  1
  H  H98  1  0.37290989  0.94764216  0.38359207  1
  H  H99  1  0.87499456  0.27750138  0.39253494  1
  H  H100  1  0.88308452  0.60820959  0.40036084  1
  H  H101  1  0.86866153  0.94857971  0.38160310  1
  H  H102  1  0.11985734  0.05626703  0.89948956  1
  H  H103  1  0.12739188  0.38784486  0.88357310  1
  H  H104  1  0.12508649  0.72325610  0.90210904  1
  H  H105  1  0.62358340  0.05317673  0.89183001  1
  H  H106  1  0.62594492  0.38804621  0.88841557  1
  H  H107  1  0.63016858  0.71979166  0.88394893  1
  H  H108  1  0.12679497  0.28298215  0.12630815  1
  H  H109  1  0.11516920  0.61152553  0.10166580  1
  H  H110  1  0.12552807  0.94518649  0.10978338  1
  H  H111  1  0.62212198  0.27471079  0.09735154  1
  H  H112  1  0.60848648  0.61045999  0.09185815  1
  H  H113  1  0.62332984  0.94315616  0.10043519  1
  H  H114  1  0.38383717  0.05573322  0.60120480  1
  H  H115  1  0.37086745  0.38867620  0.60936758  1
  H  H116  1  0.37914807  0.72261300  0.60906193  1
  H  H117  1  0.88368665  0.05681004  0.59796103  1
  H  H118  1  0.87152116  0.38402642  0.62480002  1
  H  H119  1  0.87980945  0.72103910  0.60139692  1
  H  H120  1  0.11596105  0.11290216  0.38282107  1
  H  H121  1  0.13336027  0.44230704  0.40255408  1
  H  H122  1  0.12188246  0.78402500  0.37185732  1
  H  H123  1  0.61614157  0.11927616  0.37442743  1
  H  H124  1  0.62589918  0.44727173  0.38865111  1
  H  H125  1  0.62549616  0.77791720  0.40269186  1
  H  H126  1  0.37147697  0.22227860  0.90149341  1
  H  H127  1  0.38322711  0.55664501  0.88600245  1
  H  H128  1  0.37558783  0.88787860  0.89756536  1
  H  H129  1  0.87384736  0.21837601  0.88355265  1
  H  H130  1  0.88165576  0.54932818  0.87310297  1
  H  H131  1  0.87411607  0.88521043  0.89415329  1
  H  H132  1  0.37644599  0.11522676  0.10726486  1
  H  H133  1  0.37076780  0.44030936  0.09945241  1
  H  H134  1  0.36948586  0.77704369  0.10388411  1
  H  H135  1  0.87959268  0.11468332  0.12022993  1
  H  H136  1  0.87459230  0.44656079  0.10782912  1
  H  H137  1  0.87299203  0.78424246  0.11956357  1
  H  H138  1  0.12617461  0.22108544  0.60393267  1
  H  H139  1  0.11801748  0.54956475  0.61971417  1
  H  H140  1  0.12916291  0.88887805  0.60419813  1
  H  H141  1  0.62334531  0.22041439  0.60748030  1
  H  H142  1  0.62395266  0.55282991  0.61662452  1
  H  H143  1  0.62840043  0.88702877  0.60825046  1
  H  H144  1  0.09429442  0.74793418  0.50553175  1
  H  H145  1  0.95781923  0.25112811  -0.00835326  1
  H  H146  1  0.83422247  0.24406271  0.99655385  1
  H  H147  1  0.66934421  0.41513725  0.49286683  1
  H  H148  1  0.15686730  0.41706753  0.00762798  1
  H  H149  1  0.55017419  0.24781486  -0.00388417  1
  H  H150  1  0.57258289  0.72838483  0.50236914  1
  H  H151  1  0.95287828  0.08080521  0.49591443  1
  H  H152  1  0.57782536  0.41853503  0.99684818  1
  H  H153  1  0.34024514  0.24837735  0.50215342  1
  H  H154  1  0.31582401  0.91913751  0.99869157  1
  H  H155  1  0.69168584  0.07901721  -0.00622964  1
  H  H156  1  0.35793645  0.58227596  0.99818849  1
  H  H157  1  0.30924521  0.08382571  0.50428437  1
  H  H158  1  0.79325792  0.08163818  0.50759378  1
  H  H159  1  0.90061746  0.75074554  0.99488537  1
  H  H160  1  0.61151831  0.08054037  0.51082072  1
  H  H161  1  0.90308174  0.58602481  0.00229825  1
  H  H162  1  0.44925639  0.75107862  1.00592517  1
  H  H163  1  0.53202485  0.58062827  -0.01087563  1
  H  H164  1  0.16410357  0.24867585  0.99545448  1
  H  H165  1  0.29090309  0.57458361  0.49322980  1
  H  H166  1  0.07839544  0.91263335  0.00633853  1
  H  H167  1  0.46420822  0.58367454  0.50677139  1
  H  H168  1  0.93576438  0.75249911  0.49466959  1
  H  H169  1  0.32500336  0.08461968  -0.00226220  1
  H  H170  1  0.45014370  0.08214265  0.49357763  1
  H  H171  1  0.65573647  0.58096051  0.50200613  1
  H  H172  1  0.04601977  0.41571590  0.49510477  1
  H  H173  1  0.83080373  0.24856723  0.49909712  1
  H  H174  1  0.18920238  0.91841723  0.49603558  1
  H  H175  1  0.81821374  0.41481486  0.00087444  1
  H  H176  1  0.06034568  0.08579155  1.00553401  1
  H  H177  1  0.67378996  0.24194244  1.00135112  1
  H  H178  1  0.35175780  0.41082405  0.48241349  1
  H  H179  1  0.89800887  0.07980489  0.99120384  1
  H  H180  1  0.05964772  0.92261315  0.50618176  1
  H  H181  1  0.18064886  0.24663992  0.49999010  1
  H  H182  1  0.43588108  0.77001374  0.51436146  1
  H  H183  1  0.20475336  0.42949643  0.50461593  1
  H  H184  1  0.14396073  0.58462842  0.51378582  1
  H  H185  1  0.20408226  0.59666285  1.00068577  1
  H  H186  1  0.28297130  0.74590295  0.50875370  1
  H  H187  1  0.70028095  0.75287044  0.50659777  1
  H  H188  1  0.34997635  0.91462873  0.50915887  1
  H  H189  1  0.71523278  0.58895913  1.00596078  1
  H  H190  1  0.82730716  0.41719673  0.50128622  1
  H  H191  1  0.31043112  0.75129823  -0.00700262  1
  Pb  Pb192  1  0.25131140  0.04571915  0.75130082  1
  Pb  Pb193  1  0.25057705  0.38024473  0.74729241  1
  Pb  Pb194  1  0.25169312  0.71454366  0.75217647  1
  Pb  Pb195  1  0.75256371  0.04683136  0.74952619  1
  Pb  Pb196  1  0.74911078  0.38057837  0.75066426  1
  Pb  Pb197  1  0.75155798  0.71062332  0.74439810  1
  Pb  Pb198  1  0.24831410  0.28781052  0.25539505  1
  Pb  Pb199  1  0.24514375  0.61862092  0.25236843  1
  Pb  Pb200  1  0.24987563  0.95134464  0.24989870  1
  Pb  Pb201  1  0.74506906  0.28447486  0.24610575  1
  Pb  Pb202  1  0.75192228  0.62058521  0.24288161  1
  Pb  Pb203  1  0.74686764  0.95430404  0.24682575  1
  Pb  Pb204  1  0.00127116  0.21322883  0.75014164  1
  Pb  Pb205  1  0.00241110  0.54696860  0.75335163  1
  Pb  Pb206  1  -0.00024460  0.87917118  0.75073903  1
  Pb  Pb207  1  0.49954988  0.21208256  0.75807084  1
  Pb  Pb208  1  0.49962698  0.54647639  0.74696604  1
  Pb  Pb209  1  0.50347232  0.87927180  0.75107451  1
  Pb  Pb210  1  -0.00168672  0.11928331  0.25428689  1
  Pb  Pb211  1  -0.00419392  0.45225349  0.25458881  1
  Pb  Pb212  1  -0.00267697  0.78793246  0.25243180  1
  Pb  Pb213  1  0.49520956  0.12074532  0.24722066  1
  Pb  Pb214  1  0.49936707  0.45446983  0.24646639  1
  Pb  Pb215  1  0.50229064  0.78305578  0.25321351  1
  C  C216  1  0.00355167  0.04536272  0.63105035  1
  C  C217  1  -0.00072133  0.37836430  0.63514599  1
  C  C218  1  0.00235207  0.71239437  0.63012171  1
  C  C219  1  0.50329764  0.04555297  0.63373990  1
  C  C220  1  0.49527154  0.37811506  0.63256487  1
  C  C221  1  0.50303131  0.71347163  0.63176333  1
  C  C222  1  -0.00142980  0.28689110  0.13350778  1
  C  C223  1  -0.00762214  0.62177733  0.12842308  1
  C  C224  1  0.00041374  0.95350427  0.13092950  1
  C  C225  1  0.50351619  0.28802093  0.13168164  1
  C  C226  1  0.49293861  0.62056968  0.13075112  1
  C  C227  1  0.50238476  0.95440911  0.13237180  1
  C  C228  1  -0.00155222  0.04511977  0.86903854  1
  C  C229  1  0.00095617  0.37971548  0.86598839  1
  C  C230  1  0.00418738  0.71312711  0.87076672  1
  C  C231  1  0.49966771  0.04458887  0.86758254  1
  C  C232  1  0.50123108  0.37936604  0.86606406  1
  C  C233  1  0.50255751  0.71243879  0.87160867  1
  C  C234  1  -0.00173124  0.28675027  0.36506717  1
  C  C235  1  0.00376269  0.61959720  0.36912067  1
  C  C236  1  -0.00383632  0.95416214  0.36686558  1
  C  C237  1  0.50104684  0.28733625  0.36830851  1
  C  C238  1  0.50327928  0.62084599  0.36863482  1
  C  C239  1  0.49951172  0.95454554  0.36724415  1
  C  C240  1  0.24915583  0.21208883  0.63086932  1
  C  C241  1  0.24567739  0.54636192  0.63007475  1
  C  C242  1  0.25043325  0.87987478  0.63388086  1
  C  C243  1  0.74791067  0.21229053  0.63068907  1
  C  C244  1  0.74919615  0.54668739  0.63101825  1
  C  C245  1  0.75307222  0.87986236  0.63285750  1
  C  C246  1  0.25397802  0.12135016  0.13308162  1
  C  C247  1  0.24967881  0.45379573  0.12869254  1
  C  C248  1  0.24813624  0.78667920  0.13169721  1
  C  C249  1  0.75159445  0.11961886  0.13084132  1
  C  C250  1  0.75160645  0.45434409  0.13498193  1
  C  C251  1  0.74571334  0.78743415  0.12743028  1
  C  C252  1  0.24958586  0.21298701  0.87124611  1
  C  C253  1  0.25672265  0.54674823  0.87311097  1
  C  C254  1  0.25358373  0.87898524  0.86848392  1
  C  C255  1  0.74818499  0.21277446  0.86494905  1
  C  C256  1  0.75312977  0.54592946  0.86943620  1
  C  C257  1  0.74978107  0.87707287  0.86954847  1
  C  C258  1  0.24296047  0.11970960  0.36686055  1
  C  C259  1  0.25253816  0.45363569  0.36917446  1
  C  C260  1  0.25070747  0.78661353  0.37060857  1
  C  C261  1  0.74511569  0.12166753  0.36689905  1
  C  C262  1  0.75116053  0.45434920  0.36804905  1
  C  C263  1  0.74329448  0.78830870  0.36526920  1
  C  C264  1  0.42396769  0.59465100  0.04673452  1
  C  C265  1  0.56231003  0.07001577  0.54535976  1
  C  C266  1  0.71115051  0.23476547  0.96069169  1
  C  C267  1  0.72768686  0.76181703  0.46174036  1
  C  C268  1  0.76316664  0.09406413  0.46467767  1
  C  C269  1  0.20580266  0.09398283  0.04219475  1
  C  C270  1  0.80454114  0.76167985  0.04027402  1
  C  C271  1  0.79009702  0.23882674  0.53707486  1
  C  C272  1  0.72758906  0.09134065  0.03403579  1
  C  C273  1  0.44381358  0.25931760  0.04453305  1
  C  C274  1  0.79301732  0.23520669  0.95856646  1
  C  C275  1  0.80862486  0.09360349  0.04239289  1
  C  C276  1  0.94429108  0.93081809  0.45739965  1
  C  C277  1  0.56772102  0.59249139  0.45344442  1
  C  C278  1  0.03112057  0.74217711  0.96610849  1
  C  C279  1  0.19497386  0.76282904  0.04135592  1
  C  C280  1  0.53501638  0.07504273  0.95995407  1
  C  C281  1  0.70077734  0.57215858  0.53858478  1
  C  C282  1  0.27383197  0.09439841  0.46333014  1
  C  C283  1  0.45012269  0.25891828  0.45718913  1
  C  C284  1  0.53858453  0.40765822  0.95820749  1
  C  C285  1  0.48096888  0.07139293  0.53656500  1
  C  C286  1  0.68299709  0.09784831  0.45386190  1
  C  C287  1  0.78235424  0.42653558  0.04122264  1
  C  C288  1  0.02633523  0.59202466  0.03380191  1
  C  C289  1  0.52735364  0.92278560  0.46071095  1
  C  C290  1  0.94975595  0.74075023  0.96046071  1
  C  C291  1  0.50424834  0.59247288  0.03320342  1
  C  C292  1  0.97852783  0.59137264  0.46438004  1
  C  C293  1  0.19263295  0.09532203  0.45772829  1
  C  C294  1  0.27631758  0.76132889  0.03476090  1
  C  C295  1  0.30430722  0.90521126  0.54399679  1
  C  C296  1  0.98469411  0.26074614  0.03661107  1
  C  C297  1  0.97074896  0.74080871  0.53549318  1
  C  C298  1  0.27916186  0.41975488  0.03471503  1
  C  C299  1  0.72442627  0.75865212  0.03186847  1
  C  C300  1  0.29663516  0.23935020  0.53984252  1
  C  C301  1  0.81923389  0.57351202  0.95362342  1
  C  C302  1  0.02574691  0.07416406  0.96422479  1
  C  C303  1  0.78908616  0.42729957  0.46179337  1
  C  C304  1  0.01699817  0.40534881  0.53905534  1
  C  C305  1  0.18129479  0.76009386  0.45369439  1
  C  C306  1  0.70852346  0.23917583  0.53720298  1
  C  C307  1  0.78222552  0.57307254  0.53601865  1
  C  C308  1  0.28731043  0.09456987  0.03754441  1
  C  C309  1  0.22263604  0.90671793  0.53752708  1
  C  C310  1  0.55795167  0.74420918  0.95938764  1
  C  C311  1  0.02534584  0.93061733  0.46409272  1
  N  N312  1  0.21683354  0.24174377  0.53816740  1
  N  N313  1  0.80590765  0.76222722  0.45201159  1
  N  N314  1  0.79062975  0.90790829  0.53945935  1
  N  N315  1  0.78830140  0.90483979  0.96285861  1
  N  N316  1  0.70953905  0.42666286  0.45903902  1
  N  N317  1  0.28240711  0.90373053  0.96213181  1
  N  N318  1  0.53203999  0.40542204  0.53867583  1
  N  N319  1  0.49001928  0.59032469  0.46369632  1
  N  N320  1  0.20055345  0.42447007  0.04033777  1
  N  N321  1  0.45726351  0.07534924  0.96011069  1
  N  N322  1  0.18875188  0.56717458  0.54265325  1
  N  N323  1  0.04860795  0.40725634  0.95682056  1
  N  N324  1  0.54445431  0.74358862  0.54158147  1
  N  N325  1  0.05014845  0.74068197  0.54080756  1
  N  N326  1  0.94650835  0.07141458  0.95795817  1
  N  N327  1  0.71223975  0.90498515  0.96300789  1
  N  N328  1  0.30931730  0.57749746  0.95952237  1
  N  N329  1  0.25857384  0.75563756  0.46588884  1
  N  N330  1  0.94766583  0.59426658  0.03781571  1
  N  N331  1  0.06273940  0.26166054  0.04712101  1
  N  N332  1  0.23158936  0.56949126  0.96884883  1
  N  N333  1  0.05894295  0.07155366  0.54235130  1
  N  N334  1  0.20504161  0.24036725  0.96034821  1
  N  N335  1  0.74158708  0.57787898  0.96412819  1
  N  N336  1  0.45007156  0.92432506  0.45764155  1
  N  N337  1  0.04016761  0.92527253  0.04112488  1
  N  N338  1  0.05575896  0.59430481  0.46027089  1
  N  N339  1  0.26633715  0.57931024  0.53699088  1
  N  N340  1  0.71446817  0.90731456  0.53956135  1
  N  N341  1  0.93859188  0.40470288  0.54763714  1
  N  N342  1  0.45929237  0.40791108  0.95925278  1
  N  N343  1  0.97214231  0.40811660  0.96111013  1
  N  N344  1  0.22982772  0.42055952  0.46203527  1
  N  N345  1  0.45337656  0.92597336  0.04231369  1
  N  N346  1  0.04078434  0.25909920  0.45743573  1
  N  N347  1  0.20408756  0.90366211  0.95981326  1
  N  N348  1  0.96214827  0.92462271  0.03779892  1
  N  N349  1  0.52968519  0.92412421  0.03769380  1
  N  N350  1  0.28287773  0.24110027  0.96594649  1
  N  N351  1  0.45523261  0.40525791  0.53935504  1
  N  N352  1  0.47931827  0.74390255  0.96512223  1
  N  N353  1  0.52201239  0.25786710  0.03707374  1
  N  N354  1  0.98140066  0.07329121  0.53733763  1
  N  N355  1  0.52728785  0.25651742  0.46442756  1
  N  N356  1  0.30839805  0.43289574  0.45710572  1
  N  N357  1  0.96388284  0.25886371  0.45932541  1
  N  N358  1  0.46344846  0.73676429  0.53901734  1
  N  N359  1  0.70300888  0.42728971  0.04334981  1
  N  N360  1  0.07224427  0.05552355  0.60118448  1
  N  N361  1  0.05571004  0.38960609  0.59235057  1
  N  N362  1  0.06923242  0.72268752  0.59891943  1
  N  N363  1  0.57436676  0.05402834  0.60592867  1
  N  N364  1  0.55785269  0.38833864  0.59606341  1
  N  N365  1  0.56709675  0.71833880  0.59582804  1
  N  N366  1  0.43215259  0.27757805  0.10309356  1
  N  N367  1  0.41861011  0.61142730  0.10679684  1
  N  N368  1  0.43521599  0.94455490  0.10116243  1
  N  N369  1  0.94374591  0.27566624  0.08932425  1
  N  N370  1  0.92611145  0.61293269  0.09612341  1
  N  N371  1  0.93785239  0.94227093  0.09407646  1
  N  N372  1  0.43522804  0.05612394  0.90122075  1
  N  N373  1  0.43787446  0.39019901  0.90160833  1
  N  N374  1  0.44396090  0.72256880  0.91169467  1
  N  N375  1  0.93048290  0.05299783  0.89948054  1
  N  N376  1  0.94138463  0.39118070  0.90496300  1
  N  N377  1  0.93487636  0.72270672  0.89991630  1
  N  N378  1  0.06294056  0.27617241  0.39903995  1
  N  N379  1  0.07179897  0.61186084  0.39950910  1
  N  N380  1  0.05682376  0.94495321  0.40623361  1
  N  N381  1  0.55918086  0.27473353  0.40782321  1
  N  N382  1  0.57629870  0.61031400  0.39432991  1
  N  N383  1  0.56007319  0.94104467  0.40649506  1
  N  N384  1  0.31662851  0.22247008  0.59798895  1
  N  N385  1  0.30213088  0.55647140  0.58795937  1
  N  N386  1  0.31998318  0.88881912  0.60396105  1
  N  N387  1  0.81344240  0.22215405  0.59653695  1
  N  N388  1  0.81118916  0.55769706  0.59156531  1
  N  N389  1  0.81623812  0.89095929  0.59719758  1
  N  N390  1  0.18611289  0.11002488  0.09998292  1
  N  N391  1  0.18179824  0.44592647  0.09821112  1
  N  N392  1  0.17873828  0.77788971  0.09994448  1
  N  N393  1  0.69314334  0.10802157  0.09048531  1
  N  N394  1  0.68574882  0.44437338  0.10210328  1
  N  N395  1  0.68843732  0.77417665  0.08523065  1
  N  N396  1  0.18331999  0.22316542  0.90327779  1
  N  N397  1  0.19831078  0.55963438  0.91246513  1
  N  N398  1  0.18711928  0.88687066  0.90184392  1
  N  N399  1  0.68450285  0.22104696  0.90208001  1
  N  N400  1  0.70000411  0.55861260  0.91281532  1
  N  N401  1  0.68665925  0.88824635  0.90511006  1
  N  N402  1  0.30421768  0.10988415  0.40543410  1
  N  N403  1  0.32201391  0.44216595  0.39648175  1
  N  N404  1  0.30232562  0.77387222  0.41511712  1
  N  N405  1  0.80102179  0.10942220  0.40919462  1
  N  N406  1  0.81517642  0.44431988  0.40510354  1
  N  N407  1  0.81365528  0.77884473  0.39216907  1
  N  N408  1  0.43170256  0.27724218  0.39878916  1
  N  N409  1  0.44908993  0.61077595  0.41214833  1
  N  N410  1  0.43240373  0.94395252  0.39801808  1
  N  N411  1  0.93649714  0.27578146  0.40227918  1
  N  N412  1  0.94439444  0.60691651  0.40976075  1
  N  N413  1  0.92704632  0.94483251  0.39876660  1
  N  N414  1  0.05832562  0.05815857  0.90900709  1
  N  N415  1  0.06767630  0.38971044  0.89781818  1
  N  N416  1  0.06398383  0.72545328  0.91206114  1
  N  N417  1  0.56339206  0.05669353  0.90414754  1
  N  N418  1  0.56595412  0.39062286  0.90118742  1
  N  N419  1  0.57242439  0.72511260  0.90144255  1
  N  N420  1  0.06949140  0.27791973  0.10772792  1
  N  N421  1  0.05431050  0.60918281  0.08970117  1
  N  N422  1  0.06520971  0.94254448  0.09736197  1
  N  N423  1  0.56026437  0.27718552  0.09020956  1
  N  N424  1  0.54618846  0.60895227  0.08635065  1
  N  N425  1  0.56137548  0.94164681  0.09324071  1
  N  N426  1  0.44543034  0.05616471  0.59184738  1
  N  N427  1  0.43133928  0.38905576  0.59784363  1
  N  N428  1  0.43976050  0.72934213  0.59853228  1
  N  N429  1  0.94586739  0.05535050  0.59015396  1
  N  N430  1  0.92934912  0.38781576  0.60759610  1
  N  N431  1  0.94078819  0.72367201  0.59098441  1
  N  N432  1  0.17430814  0.11029224  0.39950410  1
  N  N433  1  0.19540204  0.44466080  0.41081988  1
  N  N434  1  0.17626489  0.77807898  0.39424151  1
  N  N435  1  0.67227444  0.11440147  0.39467633  1
  N  N436  1  0.68629489  0.44212271  0.40099872  1
  N  N437  1  0.68752158  0.77699624  0.40871864  1
  N  N438  1  0.31011503  0.22438423  0.90996943  1
  N  N439  1  0.32516388  0.55572408  0.90308867  1
  N  N440  1  0.31393793  0.89102464  0.90621797  1
  N  N441  1  0.81473561  0.22169251  0.89873233  1
  N  N442  1  0.82673592  0.55477764  0.89449848  1
  N  N443  1  0.81331279  0.88711753  0.90510765  1
  N  N444  1  0.31611442  0.11153108  0.09532917  1
  N  N445  1  0.30984789  0.43816852  0.08909438  1
  N  N446  1  0.30855940  0.77610906  0.09239232  1
  N  N447  1  0.82236092  0.11047201  0.10124725  1
  N  N448  1  0.81365911  0.44295529  0.09708493  1
  N  N449  1  0.81697354  0.77876407  0.09911049  1
  N  N450  1  0.18773731  0.22329618  0.59378661  1
  N  N451  1  0.17573763  0.55640924  0.60281188  1
  N  N452  1  0.19033090  0.89077510  0.59393731  1
  N  N453  1  0.68330157  0.22327570  0.59359591  1
  N  N454  1  0.68150748  0.55579300  0.59929707  1
  N  N455  1  0.68954335  0.89020715  0.59745464  1
  Cl  Cl456  1  0.25918164  0.05791336  0.61774157  1
  Cl  Cl457  1  0.24341707  0.39524019  0.60600798  1
  Cl  Cl458  1  0.25699009  0.72164253  0.60529283  1
  Cl  Cl459  1  0.76455778  0.05837935  0.61542798  1
  Cl  Cl460  1  0.74136766  0.38900680  0.61407122  1
  Cl  Cl461  1  0.75091954  0.72180952  0.60867768  1
  Cl  Cl462  1  0.25101865  0.28440876  0.12409906  1
  Cl  Cl463  1  0.23423021  0.61179893  0.11555440  1
  Cl  Cl464  1  0.25032700  0.94435908  0.11288756  1
  Cl  Cl465  1  0.75050654  0.27444609  0.10993400  1
  Cl  Cl466  1  0.73596196  0.60976255  0.10266358  1
  Cl  Cl467  1  0.74992254  0.94565580  0.11499092  1
  Cl  Cl468  1  0.24678853  0.05224896  0.88524429  1
  Cl  Cl469  1  0.25088139  0.39154724  0.88165050  1
  Cl  Cl470  1  0.25637951  0.72099302  0.88622394  1
  Cl  Cl471  1  0.74738943  0.05320695  0.88222512  1
  Cl  Cl472  1  0.75583917  0.39067663  0.88389920  1
  Cl  Cl473  1  0.75131453  0.71016665  0.87247900  1
  Cl  Cl474  1  0.24608118  0.27815867  0.39256164  1
  Cl  Cl475  1  0.26393707  0.60262385  0.39522840  1
  Cl  Cl476  1  0.24468559  0.94585586  0.38235387  1
  Cl  Cl477  1  0.75027069  0.27904019  0.38174875  1
  Cl  Cl478  1  0.75949625  0.61170908  0.37463952  1
  Cl  Cl479  1  0.74359617  0.95017959  0.37778425  1
  Cl  Cl480  1  0.00338317  0.21655381  0.61973056  1
  Cl  Cl481  1  -0.00519625  0.55207731  0.62104615  1
  Cl  Cl482  1  0.00275740  0.88685242  0.61646463  1
  Cl  Cl483  1  0.49865677  0.21865403  0.62807588  1
  Cl  Cl484  1  0.48450204  0.56429007  0.60424729  1
  Cl  Cl485  1  0.50566263  0.88248922  0.61802599  1
  Cl  Cl486  1  0.00387743  0.11226374  0.12097078  1
  Cl  Cl487  1  -0.00073026  0.45299359  0.12276391  1
  Cl  Cl488  1  -0.00180006  0.78164009  0.12236384  1
  Cl  Cl489  1  0.50504899  0.11953510  0.11631578  1
  Cl  Cl490  1  0.49802767  0.44430993  0.11491659  1
  Cl  Cl491  1  0.49539829  0.77293123  0.11382797  1
  Cl  Cl492  1  -0.00013749  0.22006626  0.88684700  1
  Cl  Cl493  1  0.01356177  0.55761560  0.88890962  1
  Cl  Cl494  1  0.00300139  0.88733044  0.88533066  1
  Cl  Cl495  1  0.49899607  0.22353616  0.89554578  1
  Cl  Cl496  1  0.51221513  0.56063746  0.88181040  1
  Cl  Cl497  1  0.49823194  0.88184805  0.88390673  1
  Cl  Cl498  1  -0.01376575  0.10620831  0.39122404  1
  Cl  Cl499  1  0.00969675  0.44454764  0.39114818  1
  Cl  Cl500  1  -0.00287724  0.77955170  0.38676247  1
  Cl  Cl501  1  0.48755171  0.11279038  0.38158319  1
  Cl  Cl502  1  0.50309574  0.45371294  0.38000279  1
  Cl  Cl503  1  0.49301566  0.77259653  0.39951725  1
  Cl  Cl504  1  0.35836223  0.14943926  0.75429872  1
  Cl  Cl505  1  0.35933076  0.48333761  0.74930906  1
  Cl  Cl506  1  0.36518289  0.81235082  0.74286170  1
  Cl  Cl507  1  0.86222410  0.14838780  0.75554574  1
  Cl  Cl508  1  0.86316308  0.48051603  0.75281072  1
  Cl  Cl509  1  0.86047872  0.81319727  0.75006077  1
  Cl  Cl510  1  0.13521151  0.18784908  0.25103624  1
  Cl  Cl511  1  0.14532443  0.51998666  0.25489333  1
  Cl  Cl512  1  0.13459752  0.85318248  0.25006082  1
  Cl  Cl513  1  0.63895559  0.18805416  0.25382743  1
  Cl  Cl514  1  0.63851062  0.52056463  0.24977059  1
  Cl  Cl515  1  0.63712374  0.85109267  0.24581646  1
  Cl  Cl516  1  0.13988526  0.14709170  0.75202123  1
  Cl  Cl517  1  0.14102941  0.48200209  0.74810055  1
  Cl  Cl518  1  0.14393335  0.81513851  0.75180624  1
  Cl  Cl519  1  0.64039470  0.14759931  0.74877387  1
  Cl  Cl520  1  0.64043801  0.48317089  0.74708137  1
  Cl  Cl521  1  0.63954240  0.81074778  0.74956944  1
  Cl  Cl522  1  0.35753343  0.18699882  0.25054448  1
  Cl  Cl523  1  0.36254282  0.52193884  0.24907494  1
  Cl  Cl524  1  0.35366784  0.85185191  0.25222602  1
  Cl  Cl525  1  0.86159644  0.18642276  0.24477526  1
  Cl  Cl526  1  0.85783483  0.51906534  0.24898607  1
  Cl  Cl527  1  0.86045606  0.85404730  0.25421696  1
  Cl  Cl528  1  0.11226341  0.31471116  0.75144125  1
  Cl  Cl529  1  0.11388699  0.64826536  0.74406387  1
  Cl  Cl530  1  0.11112383  0.98076108  0.74645154  1
  Cl  Cl531  1  0.61132471  0.31326763  0.75507432  1
  Cl  Cl532  1  0.60894175  0.64871149  0.74395624  1
  Cl  Cl533  1  0.61416943  0.98050306  0.74659782  1
  Cl  Cl534  1  0.38573832  0.01931882  0.24854132  1
  Cl  Cl535  1  0.38467242  0.35547899  0.25515021  1
  Cl  Cl536  1  0.38504677  0.68626536  0.24634050  1
  Cl  Cl537  1  0.88793822  0.01840863  0.24764368  1
  Cl  Cl538  1  0.89367839  0.35466437  0.25067262  1
  Cl  Cl539  1  0.89035141  0.68463990  0.24809801  1
  Cl  Cl540  1  0.38939761  0.31430686  0.75237212  1
  Cl  Cl541  1  0.38813034  0.64714551  0.74969423  1
  Cl  Cl542  1  0.39127490  0.97991228  0.75041063  1
  Cl  Cl543  1  0.88688763  0.31292026  0.74656727  1
  Cl  Cl544  1  0.89339717  0.64803385  0.75210992  1
  Cl  Cl545  1  0.89183842  0.98176158  0.75513339  1
  Cl  Cl546  1  0.11084742  0.02107188  0.24822969  1
  Cl  Cl547  1  0.11439393  0.35607759  0.24625163  1
  Cl  Cl548  1  0.11043038  0.68753510  0.25560547  1
  Cl  Cl549  1  0.60782950  0.02073185  0.25102060  1
  Cl  Cl550  1  0.60854465  0.35252407  0.25049860  1
  Cl  Cl551  1  0.60419042  0.68737696  0.25629262  1
