# generated using pymatgen
data_H8PbC4(N3Cl2)2
_symmetry_space_group_name_H-M   'P 1'
_cell_length_a   16.62354129
_cell_length_b   22.50233223
_cell_length_c   21.58969607
_cell_angle_alpha   89.99998283
_cell_angle_beta   89.99435074
_cell_angle_gamma   90.00164004
_symmetry_Int_Tables_number   1
_chemical_formula_structural   H8PbC4(N3Cl2)2
_chemical_formula_sum   'H192 Pb24 C96 N144 Cl96'
_cell_volume   8076.02408118
_cell_formula_units_Z   24
loop_
 _symmetry_equiv_pos_site_id
 _symmetry_equiv_pos_as_xyz
  1  'x, y, z'
loop_
 _atom_site_type_symbol
 _atom_site_label
 _atom_site_symmetry_multiplicity
 _atom_site_fract_x
 _atom_site_fract_y
 _atom_site_fract_z
 _atom_site_occupancy
  H  H0  1  0.01003381  0.03313980  0.68071923  1
  H  H1  1  -0.00291334  0.36535562  0.68277687  1
  H  H2  1  -0.00276767  0.69844607  0.67935919  1
  H  H3  1  0.49716042  0.03362455  0.68088074  1
  H  H4  1  0.50249591  0.36299919  0.68016262  1
  H  H5  1  0.50074865  0.69925571  0.68115801  1
  H  H6  1  -0.00395155  0.30117279  0.18182721  1
  H  H7  1  0.00843888  0.63379981  0.18326791  1
  H  H8  1  -0.00760987  0.96787448  0.18208407  1
  H  H9  1  0.49980759  0.30918224  0.17797395  1
  H  H10  1  0.49065429  0.63497029  0.18194758  1
  H  H11  1  0.50571097  0.96814005  0.18248021  1
  H  H12  1  0.00603115  0.03214423  0.82081108  1
  H  H13  1  0.00021963  0.36550675  0.82006665  1
  H  H14  1  -0.00405727  0.69827755  0.81749873  1
  H  H15  1  0.49184921  0.03163317  0.81879527  1
  H  H16  1  0.50423584  0.36755768  0.81754736  1
  H  H17  1  0.49630226  0.69861287  0.81986752  1
  H  H18  1  0.00254875  0.30058046  0.32008308  1
  H  H19  1  0.00874042  0.63460640  0.31809041  1
  H  H20  1  -0.00985899  0.96905841  0.32074542  1
  H  H21  1  0.49263017  0.30094084  0.31971769  1
  H  H22  1  0.49368794  0.63341682  0.31916167  1
  H  H23  1  0.51097788  0.96815264  0.31866346  1
  H  H24  1  0.24763410  0.19915715  0.67963498  1
  H  H25  1  0.24888743  0.53047507  0.68066685  1
  H  H26  1  0.25064741  0.86425337  0.67689941  1
  H  H27  1  0.75089695  0.19794725  0.68088957  1
  H  H28  1  0.74793611  0.53164944  0.67873217  1
  H  H29  1  0.74876684  0.86657020  0.68183836  1
  H  H30  1  0.25295208  0.13419964  0.17923848  1
  H  H31  1  0.25557106  0.46871251  0.18368653  1
  H  H32  1  0.25212369  0.80114703  0.17990163  1
  H  H33  1  0.74676667  0.13417428  0.17824615  1
  H  H34  1  0.74312742  0.46904600  0.17764007  1
  H  H35  1  0.74760382  0.80140518  0.18211346  1
  H  H36  1  0.25942917  0.19880661  0.82117438  1
  H  H37  1  0.25058636  0.53302211  0.81630273  1
  H  H38  1  0.24931417  0.86473253  0.81827739  1
  H  H39  1  0.73610699  0.19920642  0.81931933  1
  H  H40  1  0.74486253  0.53134138  0.81803715  1
  H  H41  1  0.75761209  0.86322137  0.81908137  1
  H  H42  1  0.25194473  0.13398388  0.31937028  1
  H  H43  1  0.24702940  0.46743239  0.31712283  1
  H  H44  1  0.25026609  0.80111759  0.32038945  1
  H  H45  1  0.74556863  0.13469706  0.32043342  1
  H  H46  1  0.75914543  0.46928832  0.31879327  1
  H  H47  1  0.75712223  0.80056809  0.32053904  1
  H  H48  1  0.12743603  0.05753658  0.60473455  1
  H  H49  1  0.12846066  0.38300927  0.61958295  1
  H  H50  1  0.13007393  0.72067086  0.61724477  1
  H  H51  1  0.62990681  0.05185156  0.61777783  1
  H  H52  1  0.62411536  0.38830521  0.60827506  1
  H  H53  1  0.62761772  0.71923546  0.61133393  1
  H  H54  1  0.37647685  0.27827128  0.10996823  1
  H  H55  1  0.37814592  0.61177449  0.10170122  1
  H  H56  1  0.37656386  0.94865832  0.11716760  1
  H  H57  1  0.87803508  0.27714795  0.10606788  1
  H  H58  1  0.87365333  0.61493661  0.12507939  1
  H  H59  1  0.88227003  0.94484778  0.10218396  1
  H  H60  1  0.38182668  0.05619888  0.90068357  1
  H  H61  1  0.37502875  0.38663010  0.88720984  1
  H  H62  1  0.37806480  0.72351384  0.89687470  1
  H  H63  1  0.87539908  0.05366081  0.88743866  1
  H  H64  1  0.87082353  0.38647296  0.88724459  1
  H  H65  1  0.87687542  0.72189669  0.89195970  1
  H  H66  1  0.12530348  0.27702970  0.39155501  1
  H  H67  1  0.12268619  0.61174711  0.39754694  1
  H  H68  1  0.12836157  0.94944051  0.37741634  1
  H  H69  1  0.62478488  0.28033599  0.38382898  1
  H  H70  1  0.62835354  0.61516153  0.37941137  1
  H  H71  1  0.62004686  0.94414846  0.40133205  1
  H  H72  1  0.37465641  0.21999644  0.60983449  1
  H  H73  1  0.37430134  0.55555005  0.61082817  1
  H  H74  1  0.37186635  0.88941429  0.60384808  1
  H  H75  1  0.87341651  0.22055948  0.60659600  1
  H  H76  1  0.87361606  0.55513307  0.60874712  1
  H  H77  1  0.87374895  0.88711563  0.60990474  1
  H  H78  1  0.12206199  0.11234611  0.11500555  1
  H  H79  1  0.12747431  0.44620259  0.11476287  1
  H  H80  1  0.12372671  0.78032133  0.11099884  1
  H  H81  1  0.62386031  0.11038832  0.10615686  1
  H  H82  1  0.63046454  0.44265828  0.09847716  1
  H  H83  1  0.62348524  0.77896121  0.11118526  1
  H  H84  1  0.12265206  0.21529906  0.88059567  1
  H  H85  1  0.12643424  0.55252436  0.88655248  1
  H  H86  1  0.12518244  0.88712617  0.88647196  1
  H  H87  1  0.62893777  0.22697313  0.90427819  1
  H  H88  1  0.62609384  0.55538363  0.89564866  1
  H  H89  1  0.62359636  0.88427913  0.88067893  1
  H  H90  1  0.36891794  0.11410182  0.39482188  1
  H  H91  1  0.37365223  0.44540611  0.38802469  1
  H  H92  1  0.37220648  0.77720231  0.39266434  1
  H  H93  1  0.87118909  0.11543363  0.38774515  1
  H  H94  1  0.87041709  0.44278650  0.40034179  1
  H  H95  1  0.86700932  0.77431733  0.40306766  1
  H  H96  1  0.37621387  0.27565584  0.39623916  1
  H  H97  1  0.38017082  0.61247978  0.39718028  1
  H  H98  1  0.37356032  0.94854789  0.37716367  1
  H  H99  1  0.87639311  0.27898068  0.39029983  1
  H  H100  1  0.87443216  0.61544063  0.38135758  1
  H  H101  1  0.88148309  0.94402696  0.40314191  1
  H  H102  1  0.12334379  0.05550845  0.89907605  1
  H  H103  1  0.12039179  0.38830070  0.89352060  1
  H  H104  1  0.12579394  0.72040929  0.88488208  1
  H  H105  1  0.62880230  0.05209640  0.87768249  1
  H  H106  1  0.62353364  0.38869140  0.89461158  1
  H  H107  1  0.62649441  0.71960652  0.88431839  1
  H  H108  1  0.12642083  0.27848949  0.11559539  1
  H  H109  1  0.12155652  0.61169608  0.10432376  1
  H  H110  1  0.12966040  0.95090804  0.12493901  1
  H  H111  1  0.62476913  0.27983649  0.11055525  1
  H  H112  1  0.62592423  0.61416804  0.12063961  1
  H  H113  1  0.62580246  0.94580921  0.10944559  1
  H  H114  1  0.38094171  0.05507082  0.60536431  1
  H  H115  1  0.37458012  0.38497376  0.61216317  1
  H  H116  1  0.37856758  0.72180516  0.60694592  1
  H  H117  1  0.87882134  0.05240053  0.61472937  1
  H  H118  1  0.87943119  0.38811763  0.60731208  1
  H  H119  1  0.88147721  0.72219896  0.60091314  1
  H  H120  1  0.11993040  0.11531149  0.38300115  1
  H  H121  1  0.12535731  0.44380580  0.39208358  1
  H  H122  1  0.12323608  0.77880757  0.39025137  1
  H  H123  1  0.62191191  0.11278482  0.39188789  1
  H  H124  1  0.62420727  0.44951666  0.37983944  1
  H  H125  1  0.61990408  0.78050767  0.37724682  1
  H  H126  1  0.36878404  0.22780119  0.90227440  1
  H  H127  1  0.37614229  0.55389403  0.88467846  1
  H  H128  1  0.37416409  0.88505170  0.88812830  1
  H  H129  1  0.87412901  0.21682154  0.87673186  1
  H  H130  1  0.87450214  0.55344915  0.88602589  1
  H  H131  1  0.87066019  0.89079319  0.89908584  1
  H  H132  1  0.37091923  0.10962649  0.10305531  1
  H  H133  1  0.37649421  0.44540380  0.11037629  1
  H  H134  1  0.37226723  0.77875715  0.10474214  1
  H  H135  1  0.87291371  0.11171259  0.11019699  1
  H  H136  1  0.87788766  0.44770112  0.11770686  1
  H  H137  1  0.87241141  0.77949152  0.11083704  1
  H  H138  1  0.12560309  0.22047134  0.60631939  1
  H  H139  1  0.12447840  0.55383158  0.61138343  1
  H  H140  1  0.12327569  0.88682157  0.61044430  1
  H  H141  1  0.62425173  0.21893439  0.61171983  1
  H  H142  1  0.62485306  0.55528055  0.60760471  1
  H  H143  1  0.62363917  0.88803349  0.61207390  1
  H  H144  1  0.16954539  0.75306018  0.00533899  1
  H  H145  1  0.67055382  0.74995344  0.00228491  1
  H  H146  1  0.15057976  0.25127152  0.98574965  1
  H  H147  1  0.82347794  0.91901399  0.50567657  1
  H  H148  1  0.89866995  0.58728743  0.01130089  1
  H  H149  1  0.58462309  0.74602695  0.50125282  1
  H  H150  1  0.91590228  0.08048066  0.99346033  1
  H  H151  1  0.93508444  0.41208880  0.49689586  1
  H  H152  1  0.93411048  0.24932162  -0.00083163  1
  H  H153  1  0.30947679  0.08057383  -0.00072110  1
  H  H154  1  0.45095326  0.08045270  1.00622636  1
  H  H155  1  0.67365825  0.08199665  0.00217628  1
  H  H156  1  0.93228498  0.74883363  1.00018309  1
  H  H157  1  0.05681706  0.58586069  0.50481502  1
  H  H158  1  0.54909948  0.91995509  0.50703402  1
  H  H159  1  0.79549698  0.74559130  0.50333033  1
  H  H160  1  0.82977702  0.08645743  0.50063608  1
  H  H161  1  0.95144514  0.91954088  0.50957841  1
  H  H162  1  0.33235324  0.57852720  0.99791534  1
  H  H163  1  0.91077746  0.41479404  0.99306445  1
  H  H164  1  0.29636649  0.23959103  1.00545041  1
  H  H165  1  0.09679340  0.41057087  0.50693099  1
  H  H166  1  0.17187097  0.57989874  0.49931084  1
  H  H167  1  0.79942671  0.42040914  0.50238895  1
  H  H168  1  0.80143021  0.91383193  1.00127198  1
  H  H169  1  0.10692439  0.92122293  0.48587716  1
  H  H170  1  0.57623782  0.91650072  0.00026775  1
  H  H171  1  0.41732096  0.41215411  0.50625887  1
  H  H172  1  0.41101472  0.91734133  0.00608228  1
  H  H173  1  0.70538013  0.25100497  1.00353352  1
  H  H174  1  0.66963972  0.91563802  0.50080882  1
  H  H175  1  0.94549897  0.74725535  0.49712043  1
  H  H176  1  0.32445386  0.57520270  0.50310497  1
  H  H177  1  0.31180248  0.08905618  0.50653085  1
  H  H178  1  0.56635034  0.26876167  0.00373430  1
  H  H179  1  0.94804944  0.91822419  -0.00619644  1
  H  H180  1  0.57518787  0.41696612  0.49936266  1
  H  H181  1  0.06929362  0.41699956  1.00245639  1
  H  H182  1  0.16565404  0.91675256  0.99835434  1
  H  H183  1  0.44270300  0.58858683  0.50799118  1
  H  H184  1  0.32358704  0.41910858  0.00166254  1
  H  H185  1  0.66958350  0.24579592  0.50162322  1
  H  H186  1  0.43894676  0.08287427  0.49453785  1
  H  H187  1  0.32013748  0.91786112  0.50033805  1
  H  H188  1  0.17305323  0.57433627  1.00005357  1
  H  H189  1  0.43604172  0.26752252  0.00313978  1
  H  H190  1  0.44675296  0.58856813  -0.00609447  1
  H  H191  1  0.05881349  0.58990702  -0.00558552  1
  Pb  Pb192  1  0.25075415  0.04959263  0.75343654  1
  Pb  Pb193  1  0.25128157  0.37932393  0.75257995  1
  Pb  Pb194  1  0.25152858  0.71244329  0.75346208  1
  Pb  Pb195  1  0.75238217  0.04601771  0.75221387  1
  Pb  Pb196  1  0.75498138  0.38035124  0.74543604  1
  Pb  Pb197  1  0.74877026  0.71356299  0.74479126  1
  Pb  Pb198  1  0.25197681  0.28578528  0.24654142  1
  Pb  Pb199  1  0.25390845  0.61804888  0.25161911  1
  Pb  Pb200  1  0.25016778  0.95526807  0.25292991  1
  Pb  Pb201  1  0.75053532  0.28733297  0.24568546  1
  Pb  Pb202  1  0.75003950  0.62186142  0.25012077  1
  Pb  Pb203  1  0.75362459  0.95026920  0.25203564  1
  Pb  Pb204  1  0.00118258  0.21229578  0.74609543  1
  Pb  Pb205  1  0.00085096  0.54781107  0.74905212  1
  Pb  Pb206  1  0.00063448  0.87906483  0.74967079  1
  Pb  Pb207  1  0.50404070  0.21515332  0.75664869  1
  Pb  Pb208  1  0.50221580  0.54589932  0.75037596  1
  Pb  Pb209  1  0.49787452  0.88074711  0.74816910  1
  Pb  Pb210  1  -0.00113761  0.12178517  0.24759476  1
  Pb  Pb211  1  -0.00018216  0.45283590  0.25209075  1
  Pb  Pb212  1  0.00381396  0.78505770  0.25456495  1
  Pb  Pb213  1  0.50178850  0.11941679  0.24824766  1
  Pb  Pb214  1  0.50410006  0.45273269  0.25085689  1
  Pb  Pb215  1  0.49781184  0.78726735  0.24962669  1
  C  C216  1  0.00510962  0.04757699  0.63314106  1
  C  C217  1  0.00181201  0.37920576  0.63473411  1
  C  C218  1  0.00264062  0.71306276  0.63180828  1
  C  C219  1  0.50245338  0.04709267  0.63287509  1
  C  C220  1  0.50003592  0.37887939  0.63264279  1
  C  C221  1  0.50234181  0.71359126  0.63323829  1
  C  C222  1  0.00048797  0.28621925  0.13413881  1
  C  C223  1  0.00085001  0.61972744  0.13549167  1
  C  C224  1  0.00133422  0.95420801  0.13448514  1
  C  C225  1  0.50038121  0.29074859  0.13146827  1
  C  C226  1  0.49838411  0.62002562  0.13457592  1
  C  C227  1  0.50256596  0.95363192  0.13453889  1
  C  C228  1  0.00128995  0.04691714  0.86854981  1
  C  C229  1  -0.00328633  0.38048733  0.86785669  1
  C  C230  1  -0.00014348  0.71347392  0.86513391  1
  C  C231  1  0.50125245  0.04686300  0.86597626  1
  C  C232  1  0.50075908  0.38110128  0.86572275  1
  C  C233  1  0.50001858  0.71350535  0.86732041  1
  C  C234  1  0.00115932  0.28588642  0.36770146  1
  C  C235  1  0.00176303  0.62016297  0.36570040  1
  C  C236  1  0.00064610  0.95373404  0.36788619  1
  C  C237  1  0.49818070  0.28615497  0.36713158  1
  C  C238  1  0.50063202  0.61988469  0.36699572  1
  C  C239  1  0.50125573  0.95350634  0.36597672  1
  C  C240  1  0.24950234  0.21317797  0.63175329  1
  C  C241  1  0.24983466  0.54617654  0.63307671  1
  C  C242  1  0.24902821  0.88008018  0.62946776  1
  C  C243  1  0.74968612  0.21276483  0.63312046  1
  C  C244  1  0.74905330  0.54711739  0.63134982  1
  C  C245  1  0.74928222  0.88099692  0.63372655  1
  C  C246  1  0.24893085  0.11935940  0.13174526  1
  C  C247  1  0.25288899  0.45350091  0.13606030  1
  C  C248  1  0.24896072  0.78671563  0.13203718  1
  C  C249  1  0.74734519  0.11896664  0.13063833  1
  C  C250  1  0.75084374  0.45359266  0.13067059  1
  C  C251  1  0.74795479  0.78691095  0.13426821  1
  C  C252  1  0.25020243  0.21345409  0.86872635  1
  C  C253  1  0.25105018  0.54697784  0.86446941  1
  C  C254  1  0.24903215  0.87901463  0.86617271  1
  C  C255  1  0.74574088  0.21352761  0.86667960  1
  C  C256  1  0.74847010  0.54605464  0.86582272  1
  C  C257  1  0.75097221  0.87887405  0.86631357  1
  C  C258  1  0.24720723  0.12061358  0.36741825  1
  C  C259  1  0.24865121  0.45285842  0.36503174  1
  C  C260  1  0.24813465  0.78598904  0.36788394  1
  C  C261  1  0.74677857  0.12044672  0.36829047  1
  C  C262  1  0.75153847  0.45472805  0.36631838  1
  C  C263  1  0.74832098  0.78602096  0.36797303  1
  C  C264  1  0.02664319  0.59675002  0.03772265  1
  C  C265  1  0.28287706  0.75716914  0.46070875  1
  C  C266  1  0.03231663  0.40649543  0.96239624  1
  C  C267  1  0.20870432  0.57285957  0.54025212  1
  C  C268  1  0.55591056  0.59639371  0.45664594  1
  C  C269  1  0.19803914  0.09088709  0.04113908  1
  C  C270  1  0.53742045  0.40616271  0.53883720  1
  C  C271  1  0.70710270  0.09423197  0.46201550  1
  C  C272  1  0.21478485  0.23879014  0.53792101  1
  C  C273  1  0.97997807  0.92777852  0.46506701  1
  C  C274  1  0.97025530  0.40306570  0.53827446  1
  C  C275  1  0.79213334  0.09106237  0.03798936  1
  C  C276  1  0.47647034  0.59570947  0.03816521  1
  C  C277  1  0.21115547  0.56838407  0.95961769  1
  C  C278  1  0.96873769  0.73901086  0.95962830  1
  C  C279  1  0.53786760  0.92737887  0.03942426  1
  C  C280  1  0.03668568  0.25888691  0.46078720  1
  C  C281  1  0.70751895  0.90483542  0.54026409  1
  C  C282  1  0.47012591  0.25678832  0.46115071  1
  C  C283  1  0.19597611  0.09735948  0.45856860  1
  C  C284  1  0.45567944  0.92797264  0.04223683  1
  C  C285  1  0.29305704  0.56955552  0.95875555  1
  C  C286  1  0.71285258  0.57590373  0.53894833  1
  C  C287  1  0.55453434  0.07087995  0.54217473  1
  C  C288  1  0.68789863  0.75850726  0.45542925  1
  C  C289  1  0.20245485  0.90817720  0.53742066  1
  C  C290  1  0.28606757  0.42863997  0.04179064  1
  C  C291  1  0.29053616  0.90485148  0.95941878  1
  C  C292  1  0.27717204  0.09716317  0.46463635  1
  C  C293  1  0.51984261  0.92893984  0.46280775  1
  C  C294  1  0.48165981  0.07170509  0.96253801  1
  C  C295  1  0.05225905  0.40187759  0.54285474  1
  C  C296  1  0.78871898  0.09528311  0.46242165  1
  C  C297  1  0.03478576  0.07601634  0.53886817  1
  C  C298  1  0.97979192  0.92840511  0.03669917  1
  C  C299  1  0.97051795  0.26048970  0.03940608  1
  C  C300  1  0.94519461  0.59669083  0.04549143  1
  C  C301  1  0.71100976  0.76081998  0.04109449  1
  C  C302  1  0.06081546  0.93042138  0.04629207  1
  C  C303  1  0.54242720  0.73710726  0.54006065  1
  C  C304  1  0.47334738  0.07235579  0.53600138  1
  C  C305  1  0.20881419  0.90588399  0.96044057  1
  C  C306  1  0.47487960  0.59629084  0.46481693  1
  C  C307  1  0.54594910  0.73998076  0.95818416  1
  C  C308  1  0.71000794  0.23702207  0.54025993  1
  C  C309  1  0.72717723  0.42308232  0.03610866  1
  C  C310  1  0.05575485  0.74128030  0.54197731  1
  C  C311  1  0.02555375  0.59500527  0.46159276  1
  N  N312  1  0.73051287  0.24053323  0.96149724  1
  N  N313  1  0.80459129  0.42488469  0.04102851  1
  N  N314  1  0.21313715  0.42696192  0.45966517  1
  N  N315  1  0.79026407  0.57568205  0.53786947  1
  N  N316  1  0.71273506  0.09128521  0.03770087  1
  N  N317  1  0.53368931  0.40272975  0.96195986  1
  N  N318  1  0.54252145  0.25180667  0.04418033  1
  N  N319  1  0.05854500  0.92773989  0.45445625  1
  N  N320  1  0.03516691  0.07200907  0.96401940  1
  N  N321  1  0.95267246  0.40557497  0.95912220  1
  N  N322  1  0.95944095  0.25989454  0.46179457  1
  N  N323  1  0.28636974  0.76226712  0.03729866  1
  N  N324  1  0.44123887  0.92970525  0.45466373  1
  N  N325  1  0.28830492  0.57493673  0.54141387  1
  N  N326  1  0.55498615  0.59468872  0.04510164  1
  N  N327  1  0.45690450  0.40217706  0.95951679  1
  N  N328  1  0.27206631  0.24555650  0.96201624  1
  N  N329  1  0.71705214  0.57355331  0.96074858  1
  N  N330  1  0.69430458  0.42957903  0.45461193  1
  N  N331  1  0.04985627  0.26195800  0.04158403  1
  N  N332  1  0.20836009  0.76379456  0.04066431  1
  N  N333  1  0.78705169  0.90303769  0.54005985  1
  N  N334  1  0.04816051  0.73882252  0.95764138  1
  N  N335  1  0.29003428  0.42738170  0.45839514  1
  N  N336  1  0.95725677  0.07052189  0.95905628  1
  N  N337  1  0.97715832  0.74075839  0.53733246  1
  N  N338  1  0.20656536  0.42886609  0.04291543  1
  N  N339  1  0.80765815  0.23717156  0.95352154  1
  N  N340  1  0.79051965  0.76133998  0.04010259  1
  N  N341  1  0.20553204  0.75766219  0.46126111  1
  N  N342  1  0.46851707  0.74152361  0.96333963  1
  N  N343  1  0.28184050  0.90898470  0.53647275  1
  N  N344  1  0.29210429  0.23850001  0.53759692  1
  N  N345  1  0.45987314  0.25138382  0.04395748  1
  N  N346  1  0.94676499  0.59532475  0.45587832  1
  N  N347  1  0.95724568  0.07380929  0.54062625  1
  N  N348  1  0.76637885  0.75730672  0.46316884  1
  N  N349  1  0.46315214  0.73829468  0.53814215  1
  N  N350  1  0.19428495  0.23384380  0.95672947  1
  N  N351  1  0.78921121  0.23828880  0.53830865  1
  N  N352  1  0.56034616  0.07126491  0.95493684  1
  N  N353  1  0.79318948  0.57302030  0.95764569  1
  N  N354  1  0.45776131  0.40624997  0.54158671  1
  N  N355  1  0.77190250  0.42641024  0.46023341  1
  N  N356  1  0.77285270  0.90770274  0.95977147  1
  N  N357  1  0.69513975  0.90453426  0.95504383  1
  N  N358  1  0.54765812  0.25841173  0.45863924  1
  N  N359  1  0.27684907  0.09098565  0.03802821  1
  N  N360  1  0.06653177  0.05986441  0.59427013  1
  N  N361  1  0.07014513  0.38735572  0.60293505  1
  N  N362  1  0.07182635  0.72466355  0.60052324  1
  N  N363  1  0.57158945  0.05584793  0.60070608  1
  N  N364  1  0.56379875  0.39012577  0.59571322  1
  N  N365  1  0.56786363  0.72227099  0.59830032  1
  N  N366  1  0.43682452  0.27897392  0.09687067  1
  N  N367  1  0.43977360  0.61040710  0.09295734  1
  N  N368  1  0.43554354  0.94429501  0.10167597  1
  N  N369  1  0.93894823  0.27540724  0.09561872  1
  N  N370  1  0.93085007  0.61084377  0.10626821  1
  N  N371  1  0.94384358  0.94333835  0.09293099  1
  N  N372  1  0.44393470  0.05748526  0.90824386  1
  N  N373  1  0.43545069  0.38922752  0.89975181  1
  N  N374  1  0.43972688  0.72464747  0.90540118  1
  N  N375  1  0.93526977  0.05599819  0.90118490  1
  N  N376  1  0.93097866  0.38978159  0.90081580  1
  N  N377  1  0.93774973  0.72392517  0.90327908  1
  N  N378  1  0.06521121  0.27457443  0.40420443  1
  N  N379  1  0.06115592  0.60983322  0.40646222  1
  N  N380  1  0.07054039  0.94380924  0.39473694  1
  N  N381  1  0.56516765  0.27713640  0.39853483  1
  N  N382  1  0.57071554  0.61051850  0.39756378  1
  N  N383  1  0.55824841  0.94312653  0.40868999  1
  N  N384  1  0.31405322  0.22222293  0.59739697  1
  N  N385  1  0.31360396  0.55537915  0.59795805  1
  N  N386  1  0.31092000  0.89089370  0.59307574  1
  N  N387  1  0.81215183  0.22306097  0.59648882  1
  N  N388  1  0.81301891  0.55765368  0.59683204  1
  N  N389  1  0.81282907  0.89059207  0.59835851  1
  N  N390  1  0.18051053  0.10837299  0.09912659  1
  N  N391  1  0.18796671  0.44429687  0.10189295  1
  N  N392  1  0.18391836  0.77764198  0.09812553  1
  N  N393  1  0.68458588  0.10893496  0.09484730  1
  N  N394  1  0.69185882  0.44034112  0.08977966  1
  N  N395  1  0.68366758  0.77656867  0.09845501  1
  N  N396  1  0.18068323  0.22273741  0.89678813  1
  N  N397  1  0.18619684  0.55469539  0.90060869  1
  N  N398  1  0.18439742  0.88966168  0.90095341  1
  N  N399  1  0.69087074  0.22487542  0.90941881  1
  N  N400  1  0.68775039  0.55647382  0.90412090  1
  N  N401  1  0.68229891  0.88878098  0.89614416  1
  N  N402  1  0.30827523  0.11154734  0.40652531  1
  N  N403  1  0.31294525  0.44318455  0.39979090  1
  N  N404  1  0.31183823  0.77423334  0.40468189  1
  N  N405  1  0.81211855  0.11140827  0.40286689  1
  N  N406  1  0.80852896  0.44416534  0.40760210  1
  N  N407  1  0.80462528  0.77530945  0.40962553  1
  N  N408  1  0.43728758  0.27364005  0.40645917  1
  N  N409  1  0.44117325  0.61079324  0.40763221  1
  N  N410  1  0.43176737  0.94481111  0.39425276  1
  N  N411  1  0.93695056  0.27685755  0.40245620  1
  N  N412  1  0.93380516  0.61062444  0.39614574  1
  N  N413  1  0.94348328  0.94303551  0.41115576  1
  N  N414  1  0.06206949  0.05683169  0.90757802  1
  N  N415  1  0.05993532  0.39101269  0.90560307  1
  N  N416  1  0.06558290  0.72291583  0.89813908  1
  N  N417  1  0.57054673  0.05588695  0.89447304  1
  N  N418  1  0.56197307  0.39014890  0.90395810  1
  N  N419  1  0.56773511  0.72318489  0.90015713  1
  N  N420  1  0.06678470  0.27760009  0.10146594  1
  N  N421  1  0.06027758  0.61084084  0.09435899  1
  N  N422  1  0.07290833  0.94580259  0.10545071  1
  N  N423  1  0.56450798  0.27957266  0.09734725  1
  N  N424  1  0.56686207  0.60992886  0.10502726  1
  N  N425  1  0.56555562  0.94331445  0.09716517  1
  N  N426  1  0.44167566  0.05724343  0.59378809  1
  N  N427  1  0.43497275  0.38842498  0.59903391  1
  N  N428  1  0.43999239  0.72375199  0.59648758  1
  N  N429  1  0.93870255  0.05593760  0.60080568  1
  N  N430  1  0.94025078  0.38903029  0.59591745  1
  N  N431  1  0.94322379  0.72189120  0.59217321  1
  N  N432  1  0.17849752  0.11132595  0.39980753  1
  N  N433  1  0.18646399  0.44295424  0.40210155  1
  N  N434  1  0.18359185  0.77592298  0.40201076  1
  N  N435  1  0.68200197  0.10939916  0.40512264  1
  N  N436  1  0.68237653  0.44535832  0.39564031  1
  N  N437  1  0.67674666  0.77615812  0.39644794  1
  N  N438  1  0.30731690  0.22308157  0.91038748  1
  N  N439  1  0.31661620  0.55630553  0.89928081  1
  N  N440  1  0.31444766  0.88885079  0.90248329  1
  N  N441  1  0.81645448  0.22127473  0.89432492  1
  N  N442  1  0.81417784  0.55627093  0.89875785  1
  N  N443  1  0.80862347  0.88968020  0.90695129  1
  N  N444  1  0.30946693  0.10934902  0.09340054  1
  N  N445  1  0.31587026  0.44322973  0.09869482  1
  N  N446  1  0.31114858  0.77700652  0.09438297  1
  N  N447  1  0.81346193  0.10799698  0.09550378  1
  N  N448  1  0.81926293  0.44423167  0.10143824  1
  N  N449  1  0.81175694  0.77759204  0.09883042  1
  N  N450  1  0.18586698  0.22353755  0.59451144  1
  N  N451  1  0.18449482  0.55684843  0.59751385  1
  N  N452  1  0.18219283  0.89088658  0.59531704  1
  N  N453  1  0.68414044  0.22191617  0.59823292  1
  N  N454  1  0.68471867  0.55867022  0.59518867  1
  N  N455  1  0.68364277  0.89021947  0.59809379  1
  Cl  Cl456  1  0.25346991  0.05214547  0.62013243  1
  Cl  Cl457  1  0.25297294  0.38268895  0.62174388  1
  Cl  Cl458  1  0.25500449  0.71715606  0.62174269  1
  Cl  Cl459  1  0.75482885  0.04928363  0.62054355  1
  Cl  Cl460  1  0.75348268  0.39253878  0.60877541  1
  Cl  Cl461  1  0.75832614  0.72469701  0.60522356  1
  Cl  Cl462  1  0.25452776  0.27048597  0.10489528  1
  Cl  Cl463  1  0.25060479  0.61190264  0.11658950  1
  Cl  Cl464  1  0.25341967  0.95249748  0.12201454  1
  Cl  Cl465  1  0.74716254  0.27534280  0.10617552  1
  Cl  Cl466  1  0.74927935  0.61708959  0.12333385  1
  Cl  Cl467  1  0.75671526  0.94582472  0.11362501  1
  Cl  Cl468  1  0.25611088  0.05888390  0.89587226  1
  Cl  Cl469  1  0.24969583  0.38505172  0.88616413  1
  Cl  Cl470  1  0.25062121  0.72223979  0.88763340  1
  Cl  Cl471  1  0.75421443  0.05408711  0.88888946  1
  Cl  Cl472  1  0.74694038  0.38432411  0.87944048  1
  Cl  Cl473  1  0.75133698  0.72198505  0.87674336  1
  Cl  Cl474  1  0.25074497  0.27916763  0.37673435  1
  Cl  Cl475  1  0.25085941  0.60906096  0.39189243  1
  Cl  Cl476  1  0.25070056  0.94617337  0.38898579  1
  Cl  Cl477  1  0.74953146  0.28061118  0.37761750  1
  Cl  Cl478  1  0.75160923  0.62002397  0.38123931  1
  Cl  Cl479  1  0.75377758  0.94134500  0.39528345  1
  Cl  Cl480  1  -0.00046728  0.21785661  0.61794650  1
  Cl  Cl481  1  0.00120161  0.55568934  0.61556826  1
  Cl  Cl482  1  -0.00286095  0.88675962  0.61160166  1
  Cl  Cl483  1  0.49872838  0.21851308  0.62533416  1
  Cl  Cl484  1  0.49741248  0.55297956  0.61542734  1
  Cl  Cl485  1  0.49924235  0.88982502  0.61258645  1
  Cl  Cl486  1  -0.00454233  0.11212891  0.11340869  1
  Cl  Cl487  1  0.00295404  0.44411339  0.11657335  1
  Cl  Cl488  1  -0.00007649  0.78062140  0.12096649  1
  Cl  Cl489  1  0.49547193  0.11005605  0.11144007  1
  Cl  Cl490  1  0.50396839  0.44556277  0.12048169  1
  Cl  Cl491  1  0.49653929  0.78028805  0.11921927  1
  Cl  Cl492  1  -0.00092215  0.21752282  0.88207524  1
  Cl  Cl493  1  -0.00040832  0.55268488  0.88291901  1
  Cl  Cl494  1  -0.00795415  0.88938998  0.88299138  1
  Cl  Cl495  1  0.49828453  0.23234595  0.90207691  1
  Cl  Cl496  1  0.50176385  0.55537428  0.88393811  1
  Cl  Cl497  1  0.49919035  0.88473666  0.88059193  1
  Cl  Cl498  1  -0.00311514  0.11676035  0.37517014  1
  Cl  Cl499  1  -0.00340865  0.44280220  0.38673807  1
  Cl  Cl500  1  -0.00989946  0.77633015  0.39539224  1
  Cl  Cl501  1  0.49560214  0.11513701  0.38054320  1
  Cl  Cl502  1  0.49663895  0.44485639  0.38822636  1
  Cl  Cl503  1  0.49619313  0.77997820  0.38181014  1
  Cl  Cl504  1  0.35748315  0.14372845  0.75319161  1
  Cl  Cl505  1  0.36219700  0.47762654  0.74986118  1
  Cl  Cl506  1  0.36304306  0.81247441  0.74928370  1
  Cl  Cl507  1  0.86229561  0.14547513  0.75421169  1
  Cl  Cl508  1  0.86224091  0.47593642  0.74893911  1
  Cl  Cl509  1  0.86322427  0.81207269  0.74533237  1
  Cl  Cl510  1  0.13625194  0.18846812  0.24527929  1
  Cl  Cl511  1  0.13566573  0.52220155  0.24743562  1
  Cl  Cl512  1  0.13622191  0.85522434  0.25116329  1
  Cl  Cl513  1  0.63645938  0.18889689  0.24641286  1
  Cl  Cl514  1  0.63749793  0.52214556  0.25444311  1
  Cl  Cl515  1  0.63667684  0.85745226  0.25275680  1
  Cl  Cl516  1  0.13817270  0.14333132  0.75517248  1
  Cl  Cl517  1  0.13830624  0.47787114  0.74979448  1
  Cl  Cl518  1  0.13665295  0.81134402  0.74817060  1
  Cl  Cl519  1  0.63723942  0.14458910  0.75284734  1
  Cl  Cl520  1  0.63624202  0.47749370  0.74791800  1
  Cl  Cl521  1  0.64148146  0.81106941  0.75004779  1
  Cl  Cl522  1  0.36057388  0.18965799  0.24469027  1
  Cl  Cl523  1  0.35868206  0.52424653  0.25275598  1
  Cl  Cl524  1  0.36253053  0.85528855  0.25046937  1
  Cl  Cl525  1  0.86118255  0.18769445  0.24640585  1
  Cl  Cl526  1  0.86262845  0.52293576  0.24669537  1
  Cl  Cl527  1  0.85733471  0.85670879  0.25040819  1
  Cl  Cl528  1  0.11175102  0.31126406  0.75189733  1
  Cl  Cl529  1  0.11428816  0.64439800  0.75080551  1
  Cl  Cl530  1  0.10911584  0.97894747  0.75205765  1
  Cl  Cl531  1  0.60768264  0.30929853  0.75037822  1
  Cl  Cl532  1  0.61286194  0.64593048  0.74933849  1
  Cl  Cl533  1  0.61603293  0.97774998  0.75097559  1
  Cl  Cl534  1  0.38594880  0.02152699  0.25103509  1
  Cl  Cl535  1  0.38651085  0.35511278  0.24707302  1
  Cl  Cl536  1  0.38873606  0.68766166  0.25042246  1
  Cl  Cl537  1  0.89121192  0.01944286  0.25050831  1
  Cl  Cl538  1  0.88689124  0.35505850  0.24984206  1
  Cl  Cl539  1  0.88419522  0.68942457  0.25015278  1
  Cl  Cl540  1  0.38619625  0.31061854  0.75307641  1
  Cl  Cl541  1  0.38657938  0.64422648  0.74993486  1
  Cl  Cl542  1  0.39289742  0.97747576  0.75223864  1
  Cl  Cl543  1  0.88724458  0.31135470  0.75393423  1
  Cl  Cl544  1  0.89039612  0.64495247  0.74893000  1
  Cl  Cl545  1  0.88647434  0.97809037  0.74795928  1
  Cl  Cl546  1  0.11449232  0.02301082  0.25122494  1
  Cl  Cl547  1  0.11234161  0.35574356  0.24543929  1
  Cl  Cl548  1  0.10614506  0.68936131  0.25064160  1
  Cl  Cl549  1  0.60773736  0.02313316  0.24875073  1
  Cl  Cl550  1  0.61203708  0.35583073  0.25318922  1
  Cl  Cl551  1  0.61472599  0.68956449  0.25214355  1
