# generated using pymatgen
data_H8PbC4(N3Cl2)2
_symmetry_space_group_name_H-M   'P 1'
_cell_length_a   16.62637892
_cell_length_b   22.51012743
_cell_length_c   21.59173875
_cell_angle_alpha   89.99991004
_cell_angle_beta   90.00100096
_cell_angle_gamma   89.99513019
_symmetry_Int_Tables_number   1
_chemical_formula_structural   H8PbC4(N3Cl2)2
_chemical_formula_sum   'H192 Pb24 C96 N144 Cl96'
_cell_volume   8080.96531604
_cell_formula_units_Z   24
loop_
 _symmetry_equiv_pos_site_id
 _symmetry_equiv_pos_as_xyz
  1  'x, y, z'
loop_
 _atom_site_type_symbol
 _atom_site_label
 _atom_site_symmetry_multiplicity
 _atom_site_fract_x
 _atom_site_fract_y
 _atom_site_fract_z
 _atom_site_occupancy
  H  H0  1  0.00542750  0.03198021  0.67953926  1
  H  H1  1  0.00689864  0.36294280  0.68030503  1
  H  H2  1  -0.00889186  0.69753915  0.68190440  1
  H  H3  1  0.49630935  0.03386771  0.67491628  1
  H  H4  1  0.50306719  0.36210750  0.67540510  1
  H  H5  1  0.50828532  0.69653207  0.68133231  1
  H  H6  1  -0.00673935  0.30220733  0.18092481  1
  H  H7  1  -0.00737751  0.63689859  0.17736959  1
  H  H8  1  0.01001645  0.96919355  0.18042866  1
  H  H9  1  0.50783249  0.30194835  0.17548875  1
  H  H10  1  0.50395879  0.63677804  0.17393963  1
  H  H11  1  0.49930085  0.96875835  0.17982465  1
  H  H12  1  -0.00060814  0.03138134  0.82152276  1
  H  H13  1  0.00395000  0.36440957  0.81773659  1
  H  H14  1  -0.00442131  0.69225509  0.82241192  1
  H  H15  1  0.50614155  0.02959982  0.82217031  1
  H  H16  1  0.50251158  0.36346730  0.81942821  1
  H  H17  1  0.50475572  0.69555666  0.82424754  1
  H  H18  1  -0.00296691  0.30198364  0.31697158  1
  H  H19  1  0.00844645  0.63499396  0.31503238  1
  H  H20  1  -0.01805622  0.97010438  0.32367580  1
  H  H21  1  0.50488061  0.30360915  0.32182721  1
  H  H22  1  0.50018138  0.63555613  0.32175096  1
  H  H23  1  0.51693136  0.97322745  0.32328033  1
  H  H24  1  0.23611389  0.19970361  0.68045778  1
  H  H25  1  0.23474005  0.53116827  0.68263420  1
  H  H26  1  0.24771875  0.86102407  0.67494509  1
  H  H27  1  0.76250246  0.19605162  0.68103912  1
  H  H28  1  0.76407012  0.53064204  0.67532994  1
  H  H29  1  0.74878363  0.87585731  0.68453460  1
  H  H30  1  0.24992794  0.13619165  0.17786488  1
  H  H31  1  0.24724758  0.47190399  0.17694914  1
  H  H32  1  0.24741837  0.79883933  0.17593432  1
  H  H33  1  0.74519719  0.13538912  0.18134443  1
  H  H34  1  0.74459585  0.47213963  0.18286924  1
  H  H35  1  0.74986902  0.80070069  0.17908109  1
  H  H36  1  0.23902096  0.19807662  0.82334569  1
  H  H37  1  0.25935069  0.53036425  0.82738740  1
  H  H38  1  0.24404582  0.86252566  0.82063383  1
  H  H39  1  0.76021591  0.19930784  0.81902423  1
  H  H40  1  0.74692748  0.52979999  0.82091537  1
  H  H41  1  0.75982284  0.86272125  0.81968462  1
  H  H42  1  0.25198692  0.13388140  0.32039784  1
  H  H43  1  0.24737322  0.46925521  0.31837733  1
  H  H44  1  0.26677046  0.80056597  0.32679018  1
  H  H45  1  0.75382042  0.13743000  0.32113880  1
  H  H46  1  0.74688751  0.46817983  0.32439871  1
  H  H47  1  0.73818835  0.80103117  0.32037597  1
  H  H48  1  0.11673384  0.05762434  0.59725157  1
  H  H49  1  0.12144558  0.38910578  0.60286720  1
  H  H50  1  0.12316078  0.71984582  0.61614109  1
  H  H51  1  0.62009641  0.05308643  0.60604554  1
  H  H52  1  0.61918778  0.39130229  0.60017186  1
  H  H53  1  0.62128833  0.72232435  0.60174330  1
  H  H54  1  0.37495039  0.28167068  0.11348239  1
  H  H55  1  0.37929572  0.61439535  0.10615282  1
  H  H56  1  0.37212630  0.94494022  0.11097708  1
  H  H57  1  0.87908733  0.27758763  0.10227235  1
  H  H58  1  0.88428602  0.60920303  0.09445339  1
  H  H59  1  0.87209071  0.94871602  0.12400943  1
  H  H60  1  0.36825806  0.04949203  0.87857011  1
  H  H61  1  0.37022296  0.38655650  0.88402101  1
  H  H62  1  0.38028441  0.71786717  0.89596370  1
  H  H63  1  0.87270794  0.05377677  0.89027802  1
  H  H64  1  0.87072517  0.38605907  0.87747197  1
  H  H65  1  0.88153171  0.72209806  0.90059094  1
  H  H66  1  0.12298388  0.28047389  0.38513511  1
  H  H67  1  0.12909030  0.61540581  0.38873497  1
  H  H68  1  0.12419490  0.94860684  0.37246877  1
  H  H69  1  0.61935439  0.27747179  0.40142174  1
  H  H70  1  0.62957975  0.61087365  0.38812117  1
  H  H71  1  0.61747995  0.94304509  0.41100302  1
  H  H72  1  0.37965232  0.21161014  0.63012814  1
  H  H73  1  0.37241824  0.54837523  0.62805426  1
  H  H74  1  0.37352855  0.88730970  0.60783220  1
  H  H75  1  0.87370568  0.22057964  0.59983801  1
  H  H76  1  0.86284961  0.56169220  0.58796510  1
  H  H77  1  0.87414775  0.88691576  0.61209337  1
  H  H78  1  0.13155537  0.11067495  0.10357217  1
  H  H79  1  0.13272751  0.44290330  0.09981985  1
  H  H80  1  0.12328309  0.77825168  0.10673835  1
  H  H81  1  0.63497678  0.11046405  0.10050793  1
  H  H82  1  0.63139066  0.44757476  0.10344161  1
  H  H83  1  0.61609635  0.78179438  0.11766795  1
  H  H84  1  0.13074773  0.22577325  0.90640498  1
  H  H85  1  0.12130903  0.55272693  0.88171092  1
  H  H86  1  0.13372342  0.88771669  0.90184355  1
  H  H87  1  0.62460933  0.21701254  0.87700064  1
  H  H88  1  0.62471277  0.55626444  0.89494217  1
  H  H89  1  0.62689891  0.88220689  0.88134555  1
  H  H90  1  0.38481131  0.11438585  0.38295665  1
  H  H91  1  0.37907954  0.44640534  0.38477059  1
  H  H92  1  0.36555243  0.77256480  0.41504102  1
  H  H93  1  0.87704152  0.11097809  0.39404378  1
  H  H94  1  0.87874770  0.44562172  0.38763494  1
  H  H95  1  0.87398989  0.78284145  0.37888352  1
  H  H96  1  0.37192820  0.27995516  0.38244602  1
  H  H97  1  0.38175974  0.61148604  0.39824427  1
  H  H98  1  0.37433693  0.95148737  0.37119266  1
  H  H99  1  0.87305393  0.28097514  0.38684251  1
  H  H100  1  0.88000850  0.61348347  0.38004621  1
  H  H101  1  0.88255420  0.94078997  0.41252336  1
  H  H102  1  0.12056726  0.05544228  0.89567290  1
  H  H103  1  0.11911309  0.38779647  0.89467880  1
  H  H104  1  0.12906335  0.71763495  0.88393474  1
  H  H105  1  0.61391420  0.05785928  0.90461574  1
  H  H106  1  0.61873172  0.39036629  0.89548863  1
  H  H107  1  0.62920451  0.72114073  0.89373362  1
  H  H108  1  0.12730770  0.28154142  0.11786546  1
  H  H109  1  0.13052562  0.61779712  0.12158758  1
  H  H110  1  0.11727728  0.94191508  0.09590548  1
  H  H111  1  0.62267584  0.27559913  0.09896035  1
  H  H112  1  0.62834364  0.61511803  0.10562466  1
  H  H113  1  0.62089474  0.94259045  0.10861795  1
  H  H114  1  0.37145830  0.05444012  0.60660431  1
  H  H115  1  0.37091029  0.38564290  0.61336703  1
  H  H116  1  0.37333802  0.71881220  0.61967633  1
  H  H117  1  0.86983926  0.04996179  0.61900363  1
  H  H118  1  0.87334105  0.38660397  0.61812318  1
  H  H119  1  0.87517640  0.72395486  0.60290219  1
  H  H120  1  0.13593740  0.11173658  0.39634521  1
  H  H121  1  0.13112818  0.44407622  0.39652693  1
  H  H122  1  0.12385098  0.78507585  0.37228852  1
  H  H123  1  0.62845049  0.11120269  0.39131436  1
  H  H124  1  0.63055863  0.44136298  0.39989035  1
  H  H125  1  0.62735952  0.77596366  0.40154527  1
  H  H126  1  0.37633013  0.21728614  0.87933814  1
  H  H127  1  0.36727207  0.55981604  0.90868121  1
  H  H128  1  0.38128213  0.88206776  0.87875307  1
  H  H129  1  0.87235482  0.22341402  0.89782959  1
  H  H130  1  0.87346046  0.55609439  0.88990616  1
  H  H131  1  0.87527014  0.88769346  0.89550873  1
  H  H132  1  0.37967522  0.11489960  0.11135128  1
  H  H133  1  0.38080950  0.44953502  0.11637387  1
  H  H134  1  0.37222290  0.77736603  0.10840175  1
  H  H135  1  0.88240728  0.11357826  0.12355889  1
  H  H136  1  0.87934119  0.44953034  0.12127429  1
  H  H137  1  0.86493371  0.77754083  0.10242951  1
  H  H138  1  0.13518122  0.22439915  0.59458370  1
  H  H139  1  0.12607622  0.55475896  0.60026161  1
  H  H140  1  0.12446770  0.88936890  0.60443156  1
  H  H141  1  0.62636842  0.21723567  0.62170885  1
  H  H142  1  0.62050021  0.54723893  0.62796825  1
  H  H143  1  0.62555215  0.88901231  0.61057321  1
  H  H144  1  0.17326855  0.91486588  0.49941143  1
  H  H145  1  0.07748599  0.59520107  0.50102433  1
  H  H146  1  0.69924950  0.76499984  0.50354222  1
  H  H147  1  0.80289324  0.24572790  0.49340611  1
  H  H148  1  0.04180530  0.91647982  -0.00318000  1
  H  H149  1  0.57081547  0.90882290  0.00157203  1
  H  H150  1  0.80877728  0.25169545  1.00582095  1
  H  H151  1  0.40742623  0.41684468  0.50667786  1
  H  H152  1  0.85540967  0.08621510  0.01539046  1
  H  H153  1  0.89937534  0.41474745  0.99052302  1
  H  H154  1  0.55506019  0.74880535  0.49580192  1
  H  H155  1  0.91970922  0.25500910  0.49930331  1
  H  H156  1  0.05928788  0.41844057  0.49677076  1
  H  H157  1  0.13099277  0.75254033  0.48741818  1
  H  H158  1  0.64716398  0.24719340  0.98966315  1
  H  H159  1  0.40206343  0.24687024  0.49363129  1
  H  H160  1  0.84186372  0.41647952  0.49472821  1
  H  H161  1  0.19839386  0.41410118  -0.00292126  1
  H  H162  1  0.70061132  0.08243821  -0.00538836  1
  H  H163  1  0.40632429  0.25205097  0.00564260  1
  H  H164  1  0.91803259  0.58865866  0.49383975  1
  H  H165  1  0.81823193  0.91466479  1.00468301  1
  H  H166  1  0.53937118  0.07590664  1.00603073  1
  H  H167  1  0.39347190  0.08645638  0.98381226  1
  H  H168  1  0.78054842  0.58445514  0.49000775  1
  H  H169  1  0.69727582  0.41963629  -0.00284323  1
  H  H170  1  0.19385048  0.08647499  0.50725691  1
  H  H171  1  0.94403623  0.25163378  -0.00485996  1
  H  H172  1  0.81670188  0.92470343  0.51238461  1
  H  H173  1  0.96666402  0.91675276  0.50891659  1
  H  H174  1  0.84078356  0.73745244  0.47858812  1
  H  H175  1  0.06029636  0.41390275  1.00392278  1
  H  H176  1  0.06442020  0.08767871  0.99793751  1
  H  H177  1  0.33390176  0.91854260  0.49800723  1
  H  H178  1  0.59037638  0.58308151  0.49495643  1
  H  H179  1  0.68654383  0.92737985  0.51240839  1
  H  H180  1  0.14395304  0.58375693  0.99200734  1
  H  H181  1  0.35342120  0.57896655  0.51463647  1
  H  H182  1  0.55648751  0.42270781  1.00181783  1
  H  H183  1  0.20020851  0.91339006  1.00822240  1
  H  H184  1  0.07956203  0.25517463  0.49789012  1
  H  H185  1  0.95078912  0.74568262  1.00378683  1
  H  H186  1  0.19395076  0.57758707  0.49299743  1
  H  H187  1  0.21277385  0.24989992  0.48973959  1
  H  H188  1  0.53540020  0.91992599  0.50852055  1
  H  H189  1  0.35480708  0.90816767  0.98743348  1
  H  H190  1  0.04485157  0.08313864  0.49654399  1
  H  H191  1  0.80525656  0.75029907  -0.00742149  1
  Pb  Pb192  1  0.24326214  0.04981701  0.74791511  1
  Pb  Pb193  1  0.24791518  0.37992054  0.75451181  1
  Pb  Pb194  1  0.24973194  0.71212845  0.75098393  1
  Pb  Pb195  1  0.74700890  0.04467954  0.75696964  1
  Pb  Pb196  1  0.74236041  0.38309926  0.74674422  1
  Pb  Pb197  1  0.74786138  0.71639045  0.74482945  1
  Pb  Pb198  1  0.25188826  0.28698105  0.24965097  1
  Pb  Pb199  1  0.25443277  0.62143626  0.25149723  1
  Pb  Pb200  1  0.24910949  0.95258728  0.24397653  1
  Pb  Pb201  1  0.75068344  0.28734611  0.24785896  1
  Pb  Pb202  1  0.75099569  0.61975635  0.24973318  1
  Pb  Pb203  1  0.74997088  0.95397065  0.26093963  1
  Pb  Pb204  1  -0.00638268  0.21637275  0.74857731  1
  Pb  Pb205  1  -0.00163804  0.54717142  0.73955729  1
  Pb  Pb206  1  0.00060255  0.87949917  0.75469856  1
  Pb  Pb207  1  0.49956017  0.21281870  0.75550300  1
  Pb  Pb208  1  0.49673889  0.54773737  0.75693504  1
  Pb  Pb209  1  0.49413647  0.88191025  0.74292425  1
  Pb  Pb210  1  0.00262540  0.11998606  0.25365477  1
  Pb  Pb211  1  0.00371612  0.45435226  0.24940556  1
  Pb  Pb212  1  -0.00129618  0.78686175  0.24152645  1
  Pb  Pb213  1  0.50188960  0.11978545  0.24051826  1
  Pb  Pb214  1  0.50238274  0.45369644  0.25129839  1
  Pb  Pb215  1  0.49978279  0.78767013  0.26100851  1
  C  C216  1  -0.00234527  0.04683719  0.63212971  1
  C  C217  1  0.00023026  0.37920741  0.63319541  1
  C  C218  1  -0.00359139  0.71307055  0.63450807  1
  C  C219  1  0.49595031  0.04774232  0.62670938  1
  C  C220  1  0.49735499  0.37887453  0.62859468  1
  C  C221  1  0.50077333  0.71238492  0.63428749  1
  C  C222  1  0.00011786  0.28668628  0.13366923  1
  C  C223  1  0.00233734  0.62149109  0.13052839  1
  C  C224  1  0.00005781  0.95427064  0.13325292  1
  C  C225  1  0.50134588  0.28616915  0.12824679  1
  C  C226  1  0.50391367  0.62161333  0.12605636  1
  C  C227  1  0.49713419  0.95250615  0.13252685  1
  C  C228  1  -0.00232166  0.04734431  0.86891680  1
  C  C229  1  -0.00243615  0.37905941  0.86542800  1
  C  C230  1  0.00170667  0.70980041  0.86898466  1
  C  C231  1  0.49585574  0.04523944  0.86921695  1
  C  C232  1  0.49677187  0.37935683  0.86668451  1
  C  C233  1  0.50459386  0.71115412  0.87158463  1
  C  C234  1  -0.00227300  0.28725449  0.36487178  1
  C  C235  1  0.00559310  0.62116666  0.36315165  1
  C  C236  1  -0.00416284  0.95434881  0.36999323  1
  C  C237  1  0.49878568  0.28729000  0.36877174  1
  C  C238  1  0.50441997  0.61952885  0.36906784  1
  C  C239  1  0.50331251  0.95729782  0.36954006  1
  C  C240  1  0.25016970  0.21218631  0.63310004  1
  C  C241  1  0.24483333  0.54482761  0.63497175  1
  C  C242  1  0.24814562  0.87831366  0.62790751  1
  C  C243  1  0.75413938  0.21140064  0.63387367  1
  C  C244  1  0.74932336  0.54583245  0.62893629  1
  C  C245  1  0.74953171  0.88459490  0.63505217  1
  C  C246  1  0.25419279  0.12112291  0.13053367  1
  C  C247  1  0.25339201  0.45570697  0.12999994  1
  C  C248  1  0.24763485  0.78471050  0.12772928  1
  C  C249  1  0.75500724  0.12013585  0.13414841  1
  C  C250  1  0.75213658  0.45678841  0.13550229  1
  C  C251  1  0.74380842  0.78694100  0.13122329  1
  C  C252  1  0.24865844  0.21350933  0.87019282  1
  C  C253  1  0.24877089  0.54672782  0.87390660  1
  C  C254  1  0.25366585  0.87709864  0.86809738  1
  C  C255  1  0.75194541  0.21368198  0.86663242  1
  C  C256  1  0.74828245  0.54647255  0.86804997  1
  C  C257  1  0.75431561  0.87762402  0.86721786  1
  C  C258  1  0.25735592  0.12033883  0.36835722  1
  C  C259  1  0.25262190  0.45401201  0.36597724  1
  C  C260  1  0.25107399  0.78574585  0.37297661  1
  C  C261  1  0.75325608  0.12081231  0.36827644  1
  C  C262  1  0.75262322  0.45245356  0.37157602  1
  C  C263  1  0.74665080  0.78657882  0.36799073  1
  C  C264  1  0.02639873  0.40439958  0.96194485  1
  C  C265  1  0.45496513  0.07342788  0.53465429  1
  C  C266  1  0.94458847  0.40442499  0.95561515  1
  C  C267  1  0.22289203  0.09318219  0.03609633  1
  C  C268  1  0.29156479  0.90767834  0.53614832  1
  C  C269  1  0.72039179  0.42162544  0.46629426  1
  C  C270  1  0.27031529  0.57995208  0.96938531  1
  C  C271  1  0.54379971  0.59513485  0.03437719  1
  C  C272  1  0.26225538  0.75680038  0.47047101  1
  C  C273  1  0.95795785  0.26373540  0.45948818  1
  C  C274  1  0.69527640  0.23820076  0.95587796  1
  C  C275  1  0.03992181  0.26378909  0.45884052  1
  C  C276  1  0.30501542  0.24076521  0.95754123  1
  C  C277  1  0.53159088  0.92187868  0.04024824  1
  C  C278  1  0.70162899  0.90203757  0.95752598  1
  C  C279  1  0.95940667  0.59847057  0.45622183  1
  C  C280  1  0.04128782  0.60030590  0.45944878  1
  C  C281  1  0.22410396  0.56943283  0.53691710  1
  C  C282  1  0.78271369  0.90414852  0.96390229  1
  C  C283  1  0.44964111  0.25778594  0.45741254  1
  C  C284  1  0.22838801  0.09617478  0.46555043  1
  C  C285  1  0.54229674  0.74057096  0.96352317  1
  C  C286  1  0.53548348  0.07325280  0.53443715  1
  C  C287  1  0.23933667  0.23790885  0.53409820  1
  C  C288  1  0.30508148  0.56884730  0.54703447  1
  C  C289  1  0.73117261  0.09292281  0.03790190  1
  C  C290  1  0.69012693  0.76390256  0.04079199  1
  C  C291  1  0.67933302  0.57123852  0.54574229  1
  C  C292  1  0.77679583  0.24033077  0.96351118  1
  C  C293  1  0.02558924  0.40713471  0.53842216  1
  C  C294  1  0.53122448  0.25690732  0.03236607  1
  C  C295  1  0.52368657  0.73927450  0.53892601  1
  C  C296  1  0.77409861  0.23771859  0.53782030  1
  C  C297  1  0.23035604  0.90363555  0.96467682  1
  C  C298  1  0.20789404  0.75921307  0.03561197  1
  C  C299  1  0.46368647  0.59482165  0.03453487  1
  C  C300  1  0.77130461  0.76149008  0.03409565  1
  C  C301  1  0.28815430  0.75879976  0.03599758  1
  C  C302  1  0.52894449  0.41187616  0.53466866  1
  C  C303  1  0.52360952  0.40921537  0.96053112  1
  C  C304  1  0.30795065  0.42470605  0.04176716  1
  C  C305  1  0.30982228  0.09738335  0.45939714  1
  C  C306  1  0.43419102  0.92969879  0.45289932  1
  C  C307  1  0.31848192  0.23270195  0.54826064  1
  C  C308  1  0.05844692  0.59537394  0.04329113  1
  C  C309  1  0.97590177  0.26057834  0.03819744  1
  C  C310  1  0.72874131  0.42959431  0.04020781  1
  C  C311  1  0.18262050  0.76068678  0.45729301  1
  N  N312  1  0.29967924  0.42812407  0.45751620  1
  N  N313  1  0.52827936  0.25697514  0.46423677  1
  N  N314  1  0.45015220  0.40879189  0.53997903  1
  N  N315  1  0.22944162  0.42343864  0.03694979  1
  N  N316  1  0.51575383  0.07925751  0.96189619  1
  N  N317  1  0.79910180  0.42454053  0.46125922  1
  N  N318  1  0.45222286  0.92293540  0.04036547  1
  N  N319  1  0.98805344  0.92342594  0.46428461  1
  N  N320  1  0.06456464  0.92681408  0.45251305  1
  N  N321  1  0.22838463  0.24400907  0.96734597  1
  N  N322  1  0.01587985  0.92608941  0.03889999  1
  N  N323  1  0.72310651  0.75428612  0.46104032  1
  N  N324  1  0.94647516  0.40607684  0.54317121  1
  N  N325  1  0.01742731  0.07246451  0.53765674  1
  N  N326  1  0.80995641  0.09404340  0.04693720  1
  N  N327  1  0.05471966  0.26072960  0.04369117  1
  N  N328  1  0.45249893  0.25935384  0.03868361  1
  N  N329  1  0.71315003  0.57684079  0.96115484  1
  N  N330  1  0.30053716  0.09483491  0.03771295  1
  N  N331  1  0.80747001  0.42943175  0.04640081  1
  N  N332  1  0.46940900  0.59217462  0.46334196  1
  N  N333  1  0.19248833  0.57598143  0.95981080  1
  N  N334  1  0.54764555  0.59154639  0.45872852  1
  N  N335  1  0.80243685  0.76586380  0.45611177  1
  N  N336  1  0.46512450  0.74018400  0.96530942  1
  N  N337  1  0.04393601  0.73893620  0.54356049  1
  N  N338  1  0.97821665  0.74172013  0.96116220  1
  N  N339  1  0.02998136  0.07222863  0.96193555  1
  N  N340  1  0.93989975  0.07019215  0.54339373  1
  N  N341  1  0.71373598  0.09134015  0.46066660  1
  N  N342  1  0.96766598  0.74016047  0.53878097  1
  N  N343  1  0.69575361  0.23865254  0.54574910  1
  N  N344  1  0.51158179  0.92662611  0.46497625  1
  N  N345  1  0.44489368  0.73918597  0.54508844  1
  N  N346  1  0.78991472  0.09148060  0.46148389  1
  N  N347  1  0.93860332  0.92901707  0.04659048  1
  N  N348  1  0.95142543  0.07317498  0.96084300  1
  N  N349  1  0.44459266  0.40749822  0.95673484  1
  N  N350  1  0.78928683  0.57661126  0.95989267  1
  N  N351  1  0.05589096  0.74100698  0.95613648  1
  N  N352  1  0.22324436  0.42735889  0.46160708  1
  N  N353  1  0.70903816  0.89283576  0.53877504  1
  N  N354  1  0.43796905  0.06818119  0.95570902  1
  N  N355  1  0.98179649  0.59177998  0.03329828  1
  N  N356  1  0.21174064  0.90848221  0.53623328  1
  N  N357  1  0.30909136  0.90302661  0.95537723  1
  N  N358  1  0.79201770  0.89129238  0.53910343  1
  N  N359  1  0.75664990  0.57616295  0.53341809  1
  N  N360  1  0.05445466  0.05812582  0.59093910  1
  N  N361  1  0.05994897  0.39095265  0.59327077  1
  N  N362  1  0.06307703  0.72267782  0.60254564  1
  N  N363  1  0.56105225  0.05765539  0.59050889  1
  N  N364  1  0.55835274  0.39339694  0.58945757  1
  N  N365  1  0.55976786  0.72359678  0.59342245  1
  N  N366  1  0.43379815  0.27701175  0.09785480  1
  N  N367  1  0.43843582  0.61081759  0.09053646  1
  N  N368  1  0.43231193  0.94223268  0.09871815  1
  N  N369  1  0.94055279  0.27571603  0.09327068  1
  N  N370  1  0.94678872  0.60854701  0.08900976  1
  N  N371  1  0.92949375  0.94520614  0.10589185  1
  N  N372  1  0.42573876  0.05642451  0.89566180  1
  N  N373  1  0.42970132  0.38920317  0.89817827  1
  N  N374  1  0.44121897  0.72131588  0.90687456  1
  N  N375  1  0.93235674  0.05635619  0.90306190  1
  N  N376  1  0.92826118  0.38877194  0.89555001  1
  N  N377  1  0.94339366  0.72053093  0.90927367  1
  N  N378  1  0.06332777  0.27805873  0.39970375  1
  N  N379  1  0.06879739  0.61394137  0.40122743  1
  N  N380  1  0.06849937  0.94403479  0.39317512  1
  N  N381  1  0.55740361  0.27574354  0.40856635  1
  N  N382  1  0.56983663  0.60859290  0.40169500  1
  N  N383  1  0.55522744  0.94631618  0.41444605  1
  N  N384  1  0.32464772  0.21745102  0.60813832  1
  N  N385  1  0.31622928  0.55359265  0.60789509  1
  N  N386  1  0.31404454  0.88998740  0.59363087  1
  N  N387  1  0.81196358  0.22191044  0.59183809  1
  N  N388  1  0.80058969  0.55834094  0.58416728  1
  N  N389  1  0.81385716  0.88988143  0.59960905  1
  N  N390  1  0.19233264  0.10894782  0.09205316  1
  N  N391  1  0.19445204  0.44419663  0.09070143  1
  N  N392  1  0.18223078  0.77483249  0.09163910  1
  N  N393  1  0.69678785  0.10878044  0.09216694  1
  N  N394  1  0.69324921  0.44582868  0.09462792  1
  N  N395  1  0.67419630  0.77879961  0.09961970  1
  N  N396  1  0.19300877  0.22640392  0.91171256  1
  N  N397  1  0.17854996  0.55498533  0.90097226  1
  N  N398  1  0.19561128  0.88838711  0.91030205  1
  N  N399  1  0.68170305  0.22185972  0.89545319  1
  N  N400  1  0.68607388  0.55830966  0.90439694  1
  N  N401  1  0.68495803  0.88644266  0.89900954  1
  N  N402  1  0.32649013  0.11165150  0.40047748  1
  N  N403  1  0.31903975  0.44453970  0.39821976  1
  N  N404  1  0.30363965  0.77205221  0.41967388  1
  N  N405  1  0.81607006  0.10973908  0.40424853  1
  N  N406  1  0.81970771  0.44427004  0.40305538  1
  N  N407  1  0.81590397  0.77443968  0.39512927  1
  N  N408  1  0.43024296  0.27576816  0.39889688  1
  N  N409  1  0.44318628  0.60898118  0.40743461  1
  N  N410  1  0.42914470  0.94701862  0.39332400  1
  N  N411  1  0.93292326  0.27816906  0.40066283  1
  N  N412  1  0.93864832  0.61135928  0.39609955  1
  N  N413  1  0.94475561  0.94279818  0.41532801  1
  N  N414  1  0.05934921  0.05916851  0.90549964  1
  N  N415  1  0.05794158  0.38872761  0.90533834  1
  N  N416  1  0.06990771  0.72289645  0.89817510  1
  N  N417  1  0.55190086  0.05508179  0.91177520  1
  N  N418  1  0.55732074  0.39169143  0.90576284  1
  N  N419  1  0.56950141  0.72341022  0.90690288  1
  N  N420  1  0.06793922  0.27679746  0.10322244  1
  N  N421  1  0.07360396  0.61286432  0.10262791  1
  N  N422  1  0.05500791  0.94311539  0.09054875  1
  N  N423  1  0.56181482  0.27335431  0.08799147  1
  N  N424  1  0.56936028  0.61116015  0.09026667  1
  N  N425  1  0.56038304  0.94007678  0.09628306  1
  N  N426  1  0.43031153  0.05798886  0.59116997  1
  N  N427  1  0.43001222  0.38785748  0.59767119  1
  N  N428  1  0.43248964  0.72229867  0.60432953  1
  N  N429  1  0.92816360  0.05510685  0.60279806  1
  N  N430  1  0.93248918  0.38890998  0.60277299  1
  N  N431  1  0.93701731  0.72432265  0.59521387  1
  N  N432  1  0.19671598  0.11059141  0.40769109  1
  N  N433  1  0.19295923  0.44334734  0.40512422  1
  N  N434  1  0.17737436  0.77841077  0.39579966  1
  N  N435  1  0.68937214  0.10949816  0.40301768  1
  N  N436  1  0.69133142  0.43900766  0.41087507  1
  N  N437  1  0.68931469  0.77863118  0.40975226  1
  N  N438  1  0.31966715  0.22267130  0.89817920  1
  N  N439  1  0.30563956  0.56158211  0.91644470  1
  N  N440  1  0.32306822  0.88569013  0.89629298  1
  N  N441  1  0.81091472  0.22501969  0.90753571  1
  N  N442  1  0.81274371  0.55772804  0.90216537  1
  N  N443  1  0.81460619  0.88889319  0.90635084  1
  N  N444  1  0.32009649  0.11225571  0.09788907  1
  N  N445  1  0.32314131  0.44429991  0.09940199  1
  N  N446  1  0.31314297  0.77413472  0.09215629  1
  N  N447  1  0.82438536  0.11147531  0.10591659  1
  N  N448  1  0.82044932  0.44643669  0.10606335  1
  N  N449  1  0.80381318  0.77631037  0.09160224  1
  N  N450  1  0.19724038  0.22448949  0.58846521  1
  N  N451  1  0.18761434  0.55469143  0.59221026  1
  N  N452  1  0.18515110  0.88876555  0.59218673  1
  N  N453  1  0.68506668  0.22200885  0.60540852  1
  N  N454  1  0.67475853  0.55393673  0.60539708  1
  N  N455  1  0.68615943  0.89113565  0.59888646  1
  Cl  Cl456  1  0.23834737  0.05375237  0.61292050  1
  Cl  Cl457  1  0.24621992  0.38641444  0.62329061  1
  Cl  Cl458  1  0.24781115  0.72163584  0.61878496  1
  Cl  Cl459  1  0.74600337  0.04190592  0.62581759  1
  Cl  Cl460  1  0.74645414  0.39158121  0.61150250  1
  Cl  Cl461  1  0.75004080  0.72624367  0.60135948  1
  Cl  Cl462  1  0.25206871  0.28612487  0.11992824  1
  Cl  Cl463  1  0.25449719  0.61263377  0.11824433  1
  Cl  Cl464  1  0.24099095  0.94320771  0.10754877  1
  Cl  Cl465  1  0.75102724  0.27763182  0.11282696  1
  Cl  Cl466  1  0.75937593  0.61500531  0.12092472  1
  Cl  Cl467  1  0.74535611  0.94734383  0.12785388  1
  Cl  Cl468  1  0.24226334  0.04957512  0.88244711  1
  Cl  Cl469  1  0.24209294  0.39349353  0.89167802  1
  Cl  Cl470  1  0.25442346  0.71551664  0.88331740  1
  Cl  Cl471  1  0.73977506  0.05673516  0.89405348  1
  Cl  Cl472  1  0.74062920  0.39064309  0.88085076  1
  Cl  Cl473  1  0.76020180  0.72552046  0.87877531  1
  Cl  Cl474  1  0.24652321  0.27874897  0.38367535  1
  Cl  Cl475  1  0.25708435  0.61273711  0.38580192  1
  Cl  Cl476  1  0.24910374  0.94401511  0.37799876  1
  Cl  Cl477  1  0.74677265  0.28128731  0.38280753  1
  Cl  Cl478  1  0.75365747  0.60932315  0.39446748  1
  Cl  Cl479  1  0.75094388  0.93999128  0.40637122  1
  Cl  Cl480  1  0.00329192  0.22239099  0.61234204  1
  Cl  Cl481  1  -0.00787833  0.55936535  0.60389669  1
  Cl  Cl482  1  -0.00286092  0.89448120  0.60802023  1
  Cl  Cl483  1  0.50345723  0.21430863  0.62854670  1
  Cl  Cl484  1  0.49728307  0.54743507  0.62384286  1
  Cl  Cl485  1  0.50340993  0.89369168  0.60458443  1
  Cl  Cl486  1  0.00917580  0.10906450  0.11560826  1
  Cl  Cl487  1  0.01025879  0.44477719  0.11538680  1
  Cl  Cl488  1  -0.01078216  0.77500999  0.10503987  1
  Cl  Cl489  1  0.51072821  0.10783679  0.10252512  1
  Cl  Cl490  1  0.50924840  0.44668679  0.11727189  1
  Cl  Cl491  1  0.49413967  0.78196749  0.13082831  1
  Cl  Cl492  1  -0.00095708  0.22142129  0.88467273  1
  Cl  Cl493  1  -0.00373332  0.55601171  0.87122501  1
  Cl  Cl494  1  0.00949576  0.89241340  0.89306018  1
  Cl  Cl495  1  0.49969825  0.21897755  0.89033438  1
  Cl  Cl496  1  0.49658770  0.55623420  0.88972108  1
  Cl  Cl497  1  0.50385511  0.88380989  0.87581057  1
  Cl  Cl498  1  0.00774381  0.10757461  0.39141748  1
  Cl  Cl499  1  0.00741956  0.44370178  0.38460243  1
  Cl  Cl500  1  -0.00612442  0.78668489  0.37269847  1
  Cl  Cl501  1  0.50759457  0.11208262  0.37113448  1
  Cl  Cl502  1  0.50350519  0.44355063  0.38693443  1
  Cl  Cl503  1  0.50328701  0.77694529  0.39718061  1
  Cl  Cl504  1  0.36491735  0.14423381  0.75354395  1
  Cl  Cl505  1  0.36121150  0.47989203  0.75143584  1
  Cl  Cl506  1  0.35990961  0.81423174  0.74924812  1
  Cl  Cl507  1  0.85908467  0.14549755  0.75180189  1
  Cl  Cl508  1  0.86033100  0.47989389  0.74632644  1
  Cl  Cl509  1  0.86366529  0.81508811  0.74013665  1
  Cl  Cl510  1  0.14012069  0.18607120  0.24972677  1
  Cl  Cl511  1  0.14145030  0.52109124  0.25188621  1
  Cl  Cl512  1  0.13730046  0.85208806  0.25263408  1
  Cl  Cl513  1  0.64191096  0.18455775  0.24427848  1
  Cl  Cl514  1  0.64383513  0.51702214  0.25770700  1
  Cl  Cl515  1  0.64097783  0.85130483  0.25295710  1
  Cl  Cl516  1  0.14398659  0.14802333  0.75258009  1
  Cl  Cl517  1  0.13910335  0.48272265  0.75532691  1
  Cl  Cl518  1  0.14084659  0.81546465  0.74801592  1
  Cl  Cl519  1  0.63786952  0.14704207  0.75450592  1
  Cl  Cl520  1  0.63887456  0.47939279  0.74363562  1
  Cl  Cl521  1  0.64483530  0.81484326  0.74577233  1
  Cl  Cl522  1  0.36307653  0.18601609  0.24505231  1
  Cl  Cl523  1  0.36254317  0.51842350  0.24755288  1
  Cl  Cl524  1  0.35816842  0.85096787  0.25304963  1
  Cl  Cl525  1  0.86513409  0.18751528  0.24864299  1
  Cl  Cl526  1  0.86480144  0.52032720  0.25648319  1
  Cl  Cl527  1  0.86191008  0.85452422  0.25204842  1
  Cl  Cl528  1  0.10874873  0.31526397  0.75012635  1
  Cl  Cl529  1  0.11141878  0.64737215  0.74913127  1
  Cl  Cl530  1  0.10763138  0.98205377  0.74861592  1
  Cl  Cl531  1  0.60848937  0.31365799  0.74971651  1
  Cl  Cl532  1  0.61348231  0.64579195  0.74700939  1
  Cl  Cl533  1  0.60788679  0.98108559  0.75128631  1
  Cl  Cl534  1  0.38645800  0.02061640  0.24944124  1
  Cl  Cl535  1  0.38870605  0.35398524  0.24893767  1
  Cl  Cl536  1  0.39501625  0.68302321  0.25360157  1
  Cl  Cl537  1  0.88773183  0.02054900  0.24553125  1
  Cl  Cl538  1  0.89091541  0.35386866  0.25033575  1
  Cl  Cl539  1  0.88547013  0.68800325  0.25644485  1
  Cl  Cl540  1  0.38751200  0.31337281  0.75205723  1
  Cl  Cl541  1  0.39097209  0.64854641  0.74554485  1
  Cl  Cl542  1  0.39009005  0.97771733  0.75238294  1
  Cl  Cl543  1  0.88833503  0.31153496  0.75052003  1
  Cl  Cl544  1  0.88954274  0.64945880  0.74606431  1
  Cl  Cl545  1  0.88920948  0.98048583  0.75086835  1
  Cl  Cl546  1  0.11023177  0.01695287  0.25525001  1
  Cl  Cl547  1  0.11282512  0.35208167  0.24830572  1
  Cl  Cl548  1  0.10830042  0.68634024  0.24735090  1
  Cl  Cl549  1  0.60921386  0.01669263  0.24780820  1
  Cl  Cl550  1  0.60806625  0.34854782  0.24951384  1
  Cl  Cl551  1  0.61339732  0.68699173  0.25359999  1
