# generated using pymatgen
data_H8PbC4(N3Cl2)2
_symmetry_space_group_name_H-M   'P 1'
_cell_length_a   16.62646239
_cell_length_b   22.51381623
_cell_length_c   21.59285768
_cell_angle_alpha   90.00116750
_cell_angle_beta   90.00458833
_cell_angle_gamma   89.99370940
_symmetry_Int_Tables_number   1
_chemical_formula_structural   H8PbC4(N3Cl2)2
_chemical_formula_sum   'H192 Pb24 C96 N144 Cl96'
_cell_volume   8082.74893887
_cell_formula_units_Z   24
loop_
 _symmetry_equiv_pos_site_id
 _symmetry_equiv_pos_as_xyz
  1  'x, y, z'
loop_
 _atom_site_type_symbol
 _atom_site_label
 _atom_site_symmetry_multiplicity
 _atom_site_fract_x
 _atom_site_fract_y
 _atom_site_fract_z
 _atom_site_occupancy
  H  H0  1  0.00061728  0.02992468  0.68419983  1
  H  H1  1  -0.00402201  0.36284229  0.68021358  1
  H  H2  1  -0.00717928  0.69578633  0.68255459  1
  H  H3  1  0.50286531  0.02748298  0.67130405  1
  H  H4  1  0.50824268  0.36534815  0.67841006  1
  H  H5  1  0.49796872  0.69280452  0.67566938  1
  H  H6  1  -0.01913869  0.30452428  0.17555992  1
  H  H7  1  0.00356972  0.63963104  0.17476341  1
  H  H8  1  -0.00764058  0.97149370  0.17886787  1
  H  H9  1  0.52094064  0.30372464  0.17813611  1
  H  H10  1  0.49037841  0.63458490  0.17572257  1
  H  H11  1  0.51178390  0.97092272  0.17532667  1
  H  H12  1  0.00184988  0.03111244  0.82275239  1
  H  H13  1  -0.00408019  0.36398201  0.82084459  1
  H  H14  1  -0.00048658  0.69317046  0.82270098  1
  H  H15  1  0.50938772  0.02661711  0.82164226  1
  H  H16  1  0.49664101  0.36588052  0.81894871  1
  H  H17  1  0.49958151  0.69721393  0.81696083  1
  H  H18  1  0.00300022  0.30434012  0.32254881  1
  H  H19  1  -0.00399668  0.63744273  0.32298171  1
  H  H20  1  0.00457625  0.96874462  0.32569414  1
  H  H21  1  0.49439257  0.30410056  0.31864803  1
  H  H22  1  0.49663623  0.63915499  0.32125314  1
  H  H23  1  0.48584113  0.96782065  0.32436820  1
  H  H24  1  0.25405653  0.20003160  0.68127581  1
  H  H25  1  0.24678276  0.52610881  0.67621063  1
  H  H26  1  0.26166618  0.86145496  0.67606886  1
  H  H27  1  0.75976443  0.19615783  0.67940360  1
  H  H28  1  0.75409179  0.53186910  0.68218285  1
  H  H29  1  0.73965241  0.86545697  0.67891499  1
  H  H30  1  0.23217650  0.13642100  0.17387503  1
  H  H31  1  0.25377645  0.47005774  0.18049655  1
  H  H32  1  0.26309402  0.80495809  0.17667064  1
  H  H33  1  0.75245741  0.13571382  0.17984137  1
  H  H34  1  0.75225109  0.46953771  0.17960012  1
  H  H35  1  0.73671105  0.80412057  0.17779723  1
  H  H36  1  0.25024543  0.19568214  0.82250852  1
  H  H37  1  0.25695556  0.53022619  0.82403895  1
  H  H38  1  0.24455300  0.86255527  0.82062261  1
  H  H39  1  0.74599358  0.18438834  0.82409215  1
  H  H40  1  0.75532402  0.53156752  0.82163274  1
  H  H41  1  0.75769895  0.86354472  0.82161142  1
  H  H42  1  0.23543069  0.13308331  0.32150206  1
  H  H43  1  0.24743795  0.47484953  0.32264488  1
  H  H44  1  0.24859766  0.80455084  0.32099402  1
  H  H45  1  0.76928324  0.13859538  0.32518217  1
  H  H46  1  0.75404620  0.46996570  0.31935550  1
  H  H47  1  0.75387817  0.80469827  0.31894373  1
  H  H48  1  0.12530646  0.05275306  0.61545271  1
  H  H49  1  0.12976025  0.38472663  0.61731728  1
  H  H50  1  0.12371022  0.71816629  0.61669008  1
  H  H51  1  0.62298508  0.05341786  0.59800343  1
  H  H52  1  0.62758570  0.38988323  0.60392803  1
  H  H53  1  0.62652566  0.72152027  0.61033345  1
  H  H54  1  0.37649030  0.28439186  0.13387915  1
  H  H55  1  0.38621871  0.60790570  0.09079147  1
  H  H56  1  0.37817812  0.94919118  0.11429664  1
  H  H57  1  0.88374210  0.27140775  0.08656185  1
  H  H58  1  0.88318291  0.61225553  0.10335051  1
  H  H59  1  0.88534889  0.94292660  0.09661554  1
  H  H60  1  0.37574229  0.05044773  0.88205478  1
  H  H61  1  0.38708042  0.39066105  0.90079462  1
  H  H62  1  0.37492934  0.71852415  0.88609518  1
  H  H63  1  0.87385574  0.05347769  0.88688335  1
  H  H64  1  0.88881561  0.39261453  0.90113567  1
  H  H65  1  0.87548874  0.72169611  0.89382694  1
  H  H66  1  0.13629737  0.28055453  0.38301621  1
  H  H67  1  0.13062440  0.61286965  0.38131707  1
  H  H68  1  0.12432058  0.93975527  0.39837863  1
  H  H69  1  0.63245987  0.28479040  0.37238208  1
  H  H70  1  0.62665191  0.61436676  0.38591262  1
  H  H71  1  0.62355771  0.95085917  0.37761942  1
  H  H72  1  0.36591866  0.22356274  0.59910712  1
  H  H73  1  0.37157970  0.55190820  0.60776787  1
  H  H74  1  0.36888864  0.89256138  0.59325154  1
  H  H75  1  0.86556402  0.22642452  0.59490678  1
  H  H76  1  0.86802055  0.55651617  0.60444133  1
  H  H77  1  0.87541796  0.88292719  0.62060494  1
  H  H78  1  0.13195946  0.10807098  0.08833907  1
  H  H79  1  0.11716583  0.45242008  0.12432268  1
  H  H80  1  0.12517084  0.78192463  0.12338964  1
  H  H81  1  0.63344941  0.10716757  0.10676076  1
  H  H82  1  0.61740194  0.44893617  0.11856378  1
  H  H83  1  0.62924733  0.77657020  0.09460470  1
  H  H84  1  0.12480851  0.21810451  0.88944329  1
  H  H85  1  0.11812738  0.55102074  0.87957855  1
  H  H86  1  0.11959439  0.88955634  0.89108940  1
  H  H87  1  0.62316898  0.21958923  0.89039228  1
  H  H88  1  0.61740563  0.55055844  0.87803410  1
  H  H89  1  0.62129249  0.88698572  0.87956510  1
  H  H90  1  0.38101161  0.11836161  0.36483009  1
  H  H91  1  0.37236552  0.44819653  0.39318127  1
  H  H92  1  0.37441307  0.78063085  0.39049433  1
  H  H93  1  0.86625136  0.10478284  0.41180950  1
  H  H94  1  0.86891331  0.44507236  0.39764335  1
  H  H95  1  0.86988506  0.77772003  0.39743898  1
  H  H96  1  0.38643792  0.27885653  0.40090786  1
  H  H97  1  0.37816834  0.61015249  0.39449847  1
  H  H98  1  0.37838140  0.94207880  0.40536873  1
  H  H99  1  0.88835458  0.27497975  0.40004025  1
  H  H100  1  0.88286745  0.60983603  0.40197756  1
  H  H101  1  0.87617784  0.95013970  0.39291630  1
  H  H102  1  0.12284477  0.05637141  0.89542001  1
  H  H103  1  0.13531015  0.38129606  0.87548701  1
  H  H104  1  0.12403231  0.72139438  0.89341809  1
  H  H105  1  0.62239379  0.05794333  0.90078542  1
  H  H106  1  0.63410313  0.38800592  0.87653750  1
  H  H107  1  0.62453335  0.71997339  0.88573833  1
  H  H108  1  0.12434400  0.28340712  0.12863940  1
  H  H109  1  0.13201148  0.61469441  0.10831158  1
  H  H110  1  0.13182158  0.95101593  0.12411401  1
  H  H111  1  0.61707368  0.26937759  0.08975138  1
  H  H112  1  0.63076757  0.61700799  0.12253630  1
  H  H113  1  0.62581963  0.93991217  0.09881852  1
  H  H114  1  0.37457056  0.05127872  0.60596270  1
  H  H115  1  0.37889223  0.38645164  0.61151141  1
  H  H116  1  0.37830670  0.72068991  0.60226428  1
  H  H117  1  0.87594966  0.05195502  0.61502716  1
  H  H118  1  0.88125380  0.39006033  0.60291857  1
  H  H119  1  0.87492550  0.72305557  0.60800976  1
  H  H120  1  0.14030818  0.10773390  0.41076179  1
  H  H121  1  0.12362033  0.44617249  0.39426276  1
  H  H122  1  0.12535651  0.77840909  0.39220680  1
  H  H123  1  0.62469364  0.11963720  0.37180784  1
  H  H124  1  0.62024114  0.44789118  0.38270745  1
  H  H125  1  0.62204337  0.78351724  0.38446023  1
  H  H126  1  0.37367071  0.21989367  0.89349123  1
  H  H127  1  0.36414362  0.55964902  0.90640836  1
  H  H128  1  0.36791857  0.89005303  0.89238710  1
  H  H129  1  0.87133850  0.22003181  0.88804320  1
  H  H130  1  0.86487374  0.55777259  0.90085608  1
  H  H131  1  0.86695118  0.89283464  0.90395812  1
  H  H132  1  0.37360563  0.11985550  0.12737536  1
  H  H133  1  0.36409340  0.44613177  0.10026258  1
  H  H134  1  0.37074914  0.77582247  0.09437382  1
  H  H135  1  0.88243463  0.11276828  0.11392964  1
  H  H136  1  0.86565038  0.44672247  0.10075348  1
  H  H137  1  0.87498334  0.78079771  0.12433468  1
  H  H138  1  0.11943332  0.21911594  0.61949288  1
  H  H139  1  0.12277550  0.55483678  0.60658522  1
  H  H140  1  0.12374449  0.88354794  0.62271542  1
  H  H141  1  0.62115243  0.21657003  0.62442675  1
  H  H142  1  0.61955831  0.54890560  0.62240901  1
  H  H143  1  0.62794946  0.88956723  0.60004350  1
  H  H144  1  0.55406529  0.08140140  1.00284660  1
  H  H145  1  0.91345675  0.91351710  0.49536100  1
  H  H146  1  0.41320986  0.91720899  0.00735105  1
  H  H147  1  0.29877195  0.41504490  -0.00556246  1
  H  H148  1  0.41991923  0.74481059  0.99855039  1
  H  H149  1  0.63484228  0.08241290  0.47765965  1
  H  H150  1  0.81463336  0.23735233  0.99482379  1
  H  H151  1  0.09031698  0.58404828  0.00330258  1
  H  H152  1  0.91113279  0.08352647  0.99944007  1
  H  H153  1  0.36468395  0.08921937  1.01089852  1
  H  H154  1  0.80458127  0.41619217  0.50413487  1
  H  H155  1  0.80724851  0.58440095  0.49625230  1
  H  H156  1  0.94536955  0.42088003  0.49701727  1
  H  H157  1  0.17668416  0.74562992  0.49903011  1
  H  H158  1  0.13646097  0.41956558  0.01002057  1
  H  H159  1  0.61458253  0.58553314  0.01104210  1
  H  H160  1  0.22324295  0.08222505  0.51227341  1
  H  H161  1  0.45664536  0.42215888  1.00442677  1
  H  H162  1  0.68421087  0.23535326  0.99642967  1
  H  H163  1  0.78741810  0.24803442  0.49441388  1
  H  H164  1  0.95512090  0.91350450  -0.00725411  1
  H  H165  1  0.80253947  0.42035824  -0.00747079  1
  H  H166  1  0.29515605  0.25204393  0.49827983  1
  H  H167  1  0.78003974  0.08922123  0.50939358  1
  H  H168  1  0.61343269  0.25893088  0.48710724  1
  H  H169  1  0.70384246  0.75146140  -0.00595152  1
  H  H170  1  0.64649321  0.57761259  0.50918699  1
  H  H171  1  0.93316164  0.75238616  0.50081648  1
  H  H172  1  0.79897111  0.58813572  1.00776467  1
  H  H173  1  0.64804206  0.42108492  0.01076737  1
  H  H174  1  0.10922391  0.92281834  0.01563147  1
  H  H175  1  0.37935206  0.25105219  0.02026490  1
  H  H176  1  0.95897397  0.42176039  1.00753260  1
  H  H177  1  0.53335992  0.25165120  -0.00730200  1
  H  H178  1  0.92065967  0.07409450  0.50200034  1
  H  H179  1  0.41041304  0.08173956  0.49814470  1
  H  H180  1  0.58166070  0.75177031  0.50558978  1
  H  H181  1  0.68826462  0.91390706  0.49188467  1
  H  H182  1  0.08137184  0.07958186  0.50383043  1
  H  H183  1  0.95027407  0.58219319  0.50414094  1
  H  H184  1  0.16473835  0.24595071  0.00120630  1
  H  H185  1  0.79305833  0.91863941  1.00440275  1
  H  H186  1  0.95422789  0.25045112  0.50370539  1
  H  H187  1  0.07343027  0.92091497  0.50231895  1
  H  H188  1  0.97086680  0.24883509  -0.00922947  1
  H  H189  1  0.57967188  0.74473156  0.99851808  1
  H  H190  1  0.29673735  0.74782840  -0.00569522  1
  H  H191  1  0.45441585  0.25321350  0.50698100  1
  Pb  Pb192  1  0.24875502  0.04730394  0.75105856  1
  Pb  Pb193  1  0.25066991  0.37945922  0.75338037  1
  Pb  Pb194  1  0.24892553  0.71321924  0.75223862  1
  Pb  Pb195  1  0.74248601  0.04881042  0.74651650  1
  Pb  Pb196  1  0.75147327  0.38246914  0.74928048  1
  Pb  Pb197  1  0.74832042  0.71443706  0.75474154  1
  Pb  Pb198  1  0.25501590  0.28639546  0.26149903  1
  Pb  Pb199  1  0.25244614  0.62046775  0.24290714  1
  Pb  Pb200  1  0.25399214  0.95297030  0.25543745  1
  Pb  Pb201  1  0.75902306  0.28225056  0.24120473  1
  Pb  Pb202  1  0.75353654  0.61995997  0.25370300  1
  Pb  Pb203  1  0.75466207  0.95355293  0.24039790  1
  Pb  Pb204  1  -0.00352256  0.21355067  0.74753677  1
  Pb  Pb205  1  0.00060590  0.54786281  0.74624760  1
  Pb  Pb206  1  -0.00243323  0.88115112  0.75294255  1
  Pb  Pb207  1  0.49327519  0.21647702  0.75323955  1
  Pb  Pb208  1  0.49458190  0.54687470  0.75605874  1
  Pb  Pb209  1  0.49551496  0.88080507  0.74847658  1
  Pb  Pb210  1  0.00780003  0.11740459  0.25611336  1
  Pb  Pb211  1  -0.00029883  0.45271373  0.25313307  1
  Pb  Pb212  1  0.00209677  0.78675667  0.25694259  1
  Pb  Pb213  1  0.50494491  0.11873569  0.24240200  1
  Pb  Pb214  1  0.49989494  0.45361018  0.24685231  1
  Pb  Pb215  1  0.50179950  0.78627838  0.24216652  1
  C  C216  1  0.00050063  0.04493784  0.63637432  1
  C  C217  1  0.00251227  0.37914811  0.63320819  1
  C  C218  1  -0.00268090  0.71188338  0.63532736  1
  C  C219  1  0.49979464  0.04329990  0.62390598  1
  C  C220  1  0.50472772  0.38043798  0.63098024  1
  C  C221  1  0.50131063  0.71075578  0.62919222  1
  C  C222  1  -0.00428582  0.28769430  0.12984751  1
  C  C223  1  0.00673447  0.62242474  0.12803506  1
  C  C224  1  0.00391536  0.95590373  0.13200630  1
  C  C225  1  0.50503081  0.28771856  0.13211651  1
  C  C226  1  0.50319920  0.61977503  0.12903623  1
  C  C227  1  0.50482761  0.95406769  0.12865249  1
  C  C228  1  -0.00109162  0.04696505  0.87001291  1
  C  C229  1  0.00660047  0.37889765  0.86789586  1
  C  C230  1  -0.00028305  0.71114300  0.86928014  1
  C  C231  1  0.50303173  0.04416146  0.86812464  1
  C  C232  1  0.50651921  0.38063930  0.86620640  1
  C  C233  1  0.49978391  0.71198562  0.86485941  1
  C  C234  1  0.00910467  0.28842332  0.36959699  1
  C  C235  1  0.00291957  0.62144219  0.36993327  1
  C  C236  1  0.00169631  0.95283840  0.37327316  1
  C  C237  1  0.50497859  0.29008339  0.36607223  1
  C  C238  1  0.50085492  0.62205323  0.36786305  1
  C  C239  1  0.49639237  0.95329263  0.37149719  1
  C  C240  1  0.24645933  0.21414911  0.63358888  1
  C  C241  1  0.24676550  0.54386425  0.62976641  1
  C  C242  1  0.25141508  0.87856760  0.62996955  1
  C  C243  1  0.74909230  0.21203483  0.63273393  1
  C  C244  1  0.74690148  0.54591551  0.63435583  1
  C  C245  1  0.74758540  0.87892418  0.63117153  1
  C  C246  1  0.24718565  0.12140109  0.12758650  1
  C  C247  1  0.24445310  0.45579647  0.13295827  1
  C  C248  1  0.25320814  0.78884320  0.13008817  1
  C  C249  1  0.75638629  0.11909671  0.13305098  1
  C  C250  1  0.74435719  0.45392017  0.13230324  1
  C  C251  1  0.74670449  0.78838305  0.13109515  1
  C  C252  1  0.24898620  0.21074057  0.87014182  1
  C  C253  1  0.24601320  0.54639730  0.87037489  1
  C  C254  1  0.24387040  0.87926089  0.86779134  1
  C  C255  1  0.74685282  0.20599176  0.86907310  1
  C  C256  1  0.74593889  0.54642745  0.86896808  1
  C  C257  1  0.74889013  0.87992464  0.86835337  1
  C  C258  1  0.25236163  0.11974956  0.36804113  1
  C  C259  1  0.24759864  0.45695158  0.36921126  1
  C  C260  1  0.24938201  0.78819240  0.36817566  1
  C  C261  1  0.75320376  0.12134334  0.37064797  1
  C  C262  1  0.74758706  0.45420893  0.36659191  1
  C  C263  1  0.74864945  0.78937582  0.36650686  1
  C  C264  1  0.95387460  0.07417567  0.96267380  1
  C  C265  1  0.19372474  0.90951963  0.54464761  1
  C  C266  1  0.43322456  0.25983900  0.05110049  1
  C  C267  1  0.53454342  0.91950474  0.03475853  1
  C  C268  1  0.96970530  0.59009660  0.03496024  1
  C  C269  1  0.05885967  0.58936325  0.45725300  1
  C  C270  1  0.72495109  0.08815988  0.04001240  1
  C  C271  1  0.72392800  0.90378629  0.53337850  1
  C  C272  1  0.48463554  0.26460123  0.46387081  1
  C  C273  1  0.04166033  0.06919471  0.54224144  1
  C  C274  1  0.19157699  0.75694777  0.04505265  1
  C  C275  1  0.53593071  0.40918447  0.53755593  1
  C  C276  1  0.23415845  0.09245700  0.03043269  1
  C  C277  1  0.77398165  0.57241323  0.53787753  1
  C  C278  1  0.06365691  0.25807392  0.45804863  1
  C  C279  1  0.45871094  0.73582301  0.95907765  1
  C  C280  1  0.98884759  0.40851996  0.96491982  1
  C  C281  1  0.24790011  0.09343794  0.46705307  1
  C  C282  1  0.26371306  0.57847265  0.96529941  1
  C  C283  1  0.21468676  0.75804858  0.46018249  1
  C  C284  1  0.32624152  0.09717529  0.44965124  1
  C  C285  1  0.69233126  0.56944376  0.54421805  1
  C  C286  1  0.68606819  0.57174315  0.95670017  1
  C  C287  1  0.77131692  0.42830361  0.03606448  1
  C  C288  1  0.55623114  0.92747731  0.45763987  1
  C  C289  1  0.97791867  0.40898618  0.53902413  1
  C  C290  1  0.28941834  0.23675195  0.96418221  1
  C  C291  1  0.06916273  0.40395112  0.95454128  1
  C  C292  1  0.47659487  0.92454125  0.46684571  1
  C  C293  1  0.77251139  0.42621158  0.46138473  1
  C  C294  1  0.48607991  0.58952594  0.03186810  1
  C  C295  1  0.18591706  0.42968981  0.04493292  1
  C  C296  1  0.95964091  0.06768482  0.54176845  1
  C  C297  1  0.53544514  0.07082977  0.52893499  1
  C  C298  1  0.54084601  0.73600117  0.95900599  1
  C  C299  1  0.47017255  0.58857809  0.45992012  1
  C  C300  1  0.03541053  0.07536552  0.96383307  1
  C  C301  1  0.20762712  0.23640902  0.96431475  1
  C  C302  1  0.31405691  0.09687320  0.04213960  1
  C  C303  1  0.56559020  0.26728732  0.45394588  1
  C  C304  1  0.76695748  0.57510814  0.96587892  1
  C  C305  1  0.26735849  0.42744960  0.03668384  1
  C  C306  1  0.80524356  0.90080299  0.54161606  1
  C  C307  1  0.80847379  0.75699317  0.04587956  1
  C  C308  1  0.98401452  0.92562962  0.03620098  1
  C  C309  1  0.28506075  0.57741189  0.53953448  1
  C  C310  1  0.48678078  0.40939923  0.96156648  1
  C  C311  1  0.96824531  0.74069374  0.54162426  1
  N  N312  1  0.96182926  0.74355263  0.96107193  1
  N  N313  1  0.46442560  0.74265458  0.53680818  1
  N  N314  1  0.04753708  0.73947707  0.54449956  1
  N  N315  1  0.54756808  0.59027822  0.45858226  1
  N  N316  1  0.73047927  0.75723711  0.03662207  1
  N  N317  1  0.68692547  0.23878077  0.54759588  1
  N  N318  1  0.70707119  0.24942830  0.95446243  1
  N  N319  1  0.45871544  0.40788644  0.53856172  1
  N  N320  1  0.06632512  0.25922904  0.04887040  1
  N  N321  1  0.26957983  0.75665609  0.03600832  1
  N  N322  1  0.45628427  0.07115470  0.53299946  1
  N  N323  1  0.76128198  0.08528685  0.46375920  1
  N  N324  1  0.76726872  0.91099512  0.96151573  1
  N  N325  1  0.26760336  0.23799303  0.53858671  1
  N  N326  1  0.68487198  0.09843999  0.45238948  1
  N  N327  1  0.06245432  0.92800558  0.04673788  1
  N  N328  1  0.03498975  0.91870506  0.46392903  1
  N  N329  1  0.56531113  0.40769322  0.95378969  1
  N  N330  1  0.70045583  0.76348002  0.45776028  1
  N  N331  1  0.27021725  0.91288043  0.53418978  1
  N  N332  1  0.03792781  0.74385005  0.96086052  1
  N  N333  1  0.20759136  0.57871376  0.53801105  1
  N  N334  1  0.76371398  0.24253856  0.53881084  1
  N  N335  1  0.98050325  0.58991518  0.46350243  1
  N  N336  1  0.98502499  0.25752572  0.46311526  1
  N  N337  1  0.99036862  0.25516773  0.03599782  1
  N  N338  1  0.51084361  0.25498466  0.03710267  1
  N  N339  1  0.04853896  0.59169316  0.03809614  1
  N  N340  1  0.52529160  0.07348390  0.96144241  1
  N  N341  1  0.29389110  0.75890268  0.46031837  1
  N  N342  1  0.18692703  0.57511856  0.95760621  1
  N  N343  1  0.21051663  0.42456096  0.46121492  1
  N  N344  1  0.77686840  0.76073838  0.46176865  1
  N  N345  1  0.56339130  0.59351999  0.04332899  1
  N  N346  1  0.69248616  0.42667955  0.04425795  1
  N  N347  1  0.28136238  0.90905236  0.96053302  1
  N  N348  1  0.54241522  0.74335024  0.54123693  1
  N  N349  1  0.44788002  0.07211205  0.95587632  1
  N  N350  1  0.45600248  0.92405628  0.04053772  1
  N  N351  1  0.28658611  0.42558100  0.46112764  1
  N  N352  1  0.18999243  0.23630417  0.54404344  1
  N  N353  1  0.05671400  0.40751312  0.54385768  1
  N  N354  1  0.69367506  0.42612181  0.45607213  1
  N  N355  1  0.78920356  0.25010452  0.95324845  1
  N  N356  1  0.95727134  0.93315927  0.46564161  1
  N  N357  1  0.80254745  0.09066055  0.04098573  1
  N  N358  1  0.68987026  0.90847693  0.95475161  1
  N  N359  1  0.20456431  0.90907905  0.96001694  1
  N  N360  1  0.06565849  0.05516300  0.60130515  1
  N  N361  1  0.07030222  0.38905946  0.60254294  1
  N  N362  1  0.06378476  0.72160315  0.60300622  1
  N  N363  1  0.56254078  0.05454503  0.58568764  1
  N  N364  1  0.56716250  0.39258198  0.59302364  1
  N  N365  1  0.56654827  0.72252489  0.59651844  1
  N  N366  1  0.43019491  0.27835856  0.11041838  1
  N  N367  1  0.44831544  0.60610316  0.08460266  1
  N  N368  1  0.43702383  0.94609421  0.09811692  1
  N  N369  1  0.94574436  0.27521555  0.08398885  1
  N  N370  1  0.94352956  0.60884315  0.09077220  1
  N  N371  1  0.94744358  0.94232823  0.08933086  1
  N  N372  1  0.43438361  0.05452620  0.89772082  1
  N  N373  1  0.44937021  0.39249942  0.90833076  1
  N  N374  1  0.43456222  0.72113543  0.90024080  1
  N  N375  1  0.93236270  0.05665409  0.90302807  1
  N  N376  1  0.95059673  0.39246536  0.90967440  1
  N  N377  1  0.93649755  0.72314934  0.90448908  1
  N  N378  1  0.07874458  0.27623384  0.39996928  1
  N  N379  1  0.07300867  0.60850781  0.39927940  1
  N  N380  1  0.06328569  0.94092880  0.41000644  1
  N  N381  1  0.57684892  0.28278473  0.39324718  1
  N  N382  1  0.56705068  0.61159872  0.39978661  1
  N  N383  1  0.56841233  0.94495383  0.39906212  1
  N  N384  1  0.30370749  0.22562781  0.59270184  1
  N  N385  1  0.31181126  0.55649660  0.59478311  1
  N  N386  1  0.30646599  0.89275163  0.58843635  1
  N  N387  1  0.80321638  0.22302755  0.58925244  1
  N  N388  1  0.80665627  0.55757944  0.59445273  1
  N  N389  1  0.81841118  0.88615984  0.60111843  1
  N  N390  1  0.19392057  0.10737238  0.08174739  1
  N  N391  1  0.17357254  0.44721790  0.10501798  1
  N  N392  1  0.18124503  0.77643975  0.10329601  1
  N  N393  1  0.69446580  0.10531842  0.09542792  1
  N  N394  1  0.67608201  0.44268535  0.10343417  1
  N  N395  1  0.69122848  0.77871870  0.08834831  1
  N  N396  1  0.18386230  0.22017596  0.90455216  1
  N  N397  1  0.17584734  0.55489460  0.89742538  1
  N  N398  1  0.18010989  0.89031895  0.90268811  1
  N  N399  1  0.68347701  0.21912632  0.90339636  1
  N  N400  1  0.67409612  0.55484323  0.89744586  1
  N  N401  1  0.67904136  0.89087157  0.89618294  1
  N  N402  1  0.32819076  0.11293103  0.38962177  1
  N  N403  1  0.31131172  0.44565108  0.40417802  1
  N  N404  1  0.31382407  0.77790472  0.40277697  1
  N  N405  1  0.80404426  0.10903152  0.41624285  1
  N  N406  1  0.80739784  0.44273824  0.40663174  1
  N  N407  1  0.80790622  0.77671897  0.40530726  1
  N  N408  1  0.44827487  0.27889467  0.40867205  1
  N  N409  1  0.43901779  0.60782059  0.40558808  1
  N  N410  1  0.43973120  0.94027641  0.41432709  1
  N  N411  1  0.95027693  0.27853485  0.40942314  1
  N  N412  1  0.94473506  0.61144945  0.41037640  1
  N  N413  1  0.93601208  0.94419815  0.40664374  1
  N  N414  1  0.06238417  0.05908013  0.90789097  1
  N  N415  1  0.07938642  0.38627967  0.89564861  1
  N  N416  1  0.06306613  0.72393771  0.90398062  1
  N  N417  1  0.56058402  0.05577124  0.90862040  1
  N  N418  1  0.57612101  0.38981002  0.89420091  1
  N  N419  1  0.56500308  0.72131164  0.90014922  1
  N  N420  1  0.06893536  0.27752725  0.10763815  1
  N  N421  1  0.07210658  0.61180154  0.09531068  1
  N  N422  1  0.07429376  0.94799714  0.10516105  1
  N  N423  1  0.55530635  0.27594531  0.08612463  1
  N  N424  1  0.57429457  0.61190707  0.10326229  1
  N  N425  1  0.56505885  0.93789210  0.08916987  1
  N  N426  1  0.43427686  0.05363584  0.59141199  1
  N  N427  1  0.43901373  0.38980112  0.59804419  1
  N  N428  1  0.43929985  0.72347144  0.59233456  1
  N  N429  1  0.93538617  0.05295594  0.60063832  1
  N  N430  1  0.94283089  0.39203046  0.59358687  1
  N  N431  1  0.93590646  0.72422374  0.59711404  1
  N  N432  1  0.20232408  0.10778802  0.41465512  1
  N  N433  1  0.18464006  0.44361927  0.40414632  1
  N  N434  1  0.18566836  0.77559902  0.40386175  1
  N  N435  1  0.68013327  0.11149454  0.39223498  1
  N  N436  1  0.67992182  0.44364649  0.39701518  1
  N  N437  1  0.68185243  0.78146224  0.39883263  1
  N  N438  1  0.31372083  0.22145325  0.90681805  1
  N  N439  1  0.30201873  0.56103308  0.91302440  1
  N  N440  1  0.30675874  0.89062001  0.90362342  1
  N  N441  1  0.81124537  0.21976649  0.90196356  1
  N  N442  1  0.80330415  0.55885489  0.91007526  1
  N  N443  1  0.80489904  0.89137506  0.91026349  1
  N  N444  1  0.32052019  0.11462748  0.10370545  1
  N  N445  1  0.30253055  0.44385127  0.09164120  1
  N  N446  1  0.30887700  0.77800814  0.08781850  1
  N  N447  1  0.82233827  0.10998717  0.10028394  1
  N  N448  1  0.80395507  0.44409087  0.09100829  1
  N  N449  1  0.81859877  0.77561146  0.10448492  1
  N  N450  1  0.17738686  0.22110086  0.60333464  1
  N  N451  1  0.18350738  0.55739365  0.59553120  1
  N  N452  1  0.17994112  0.88908149  0.60306506  1
  N  N453  1  0.67808390  0.22210123  0.60656887  1
  N  N454  1  0.67710783  0.55332461  0.60422511  1
  N  N455  1  0.68928089  0.89017761  0.59049635  1
  Cl  Cl456  1  0.25117130  0.05418968  0.61653789  1
  Cl  Cl457  1  0.25499380  0.38239897  0.62410390  1
  Cl  Cl458  1  0.25212679  0.71930180  0.62006564  1
  Cl  Cl459  1  0.74884461  0.06403015  0.60597381  1
  Cl  Cl460  1  0.75709729  0.38711637  0.61496629  1
  Cl  Cl461  1  0.74874121  0.72342805  0.62386273  1
  Cl  Cl462  1  0.24916199  0.28231030  0.13169011  1
  Cl  Cl463  1  0.25988848  0.61441898  0.10732131  1
  Cl  Cl464  1  0.25528952  0.94939534  0.12193232  1
  Cl  Cl465  1  0.75254617  0.26467521  0.09623610  1
  Cl  Cl466  1  0.76000371  0.61643922  0.11883527  1
  Cl  Cl467  1  0.75999010  0.94029164  0.10216491  1
  Cl  Cl468  1  0.24814257  0.05487831  0.88297815  1
  Cl  Cl469  1  0.26633791  0.38730649  0.88768321  1
  Cl  Cl470  1  0.24991817  0.72322144  0.89085023  1
  Cl  Cl471  1  0.74207913  0.05874257  0.87926083  1
  Cl  Cl472  1  0.76363060  0.39320782  0.88649661  1
  Cl  Cl473  1  0.74981614  0.72760273  0.89252458  1
  Cl  Cl474  1  0.26458166  0.27302410  0.39799805  1
  Cl  Cl475  1  0.25538149  0.61321557  0.37375022  1
  Cl  Cl476  1  0.24671526  0.94345605  0.38570398  1
  Cl  Cl477  1  0.77050081  0.26663084  0.39551288  1
  Cl  Cl478  1  0.75930533  0.60942581  0.38811916  1
  Cl  Cl479  1  0.75654850  0.95290330  0.37307670  1
  Cl  Cl480  1  -0.01489753  0.22904303  0.60706852  1
  Cl  Cl481  1  -0.00770454  0.55855591  0.60828237  1
  Cl  Cl482  1  -0.00065223  0.88930253  0.61944890  1
  Cl  Cl483  1  0.48703893  0.21728529  0.61872102  1
  Cl  Cl484  1  0.49459880  0.54843581  0.62674432  1
  Cl  Cl485  1  0.49768475  0.89092995  0.61561438  1
  Cl  Cl486  1  0.00852943  0.11146169  0.12029526  1
  Cl  Cl487  1  -0.01416535  0.44898461  0.11878331  1
  Cl  Cl488  1  -0.00018459  0.78429557  0.12748764  1
  Cl  Cl489  1  0.51371912  0.10566599  0.10609780  1
  Cl  Cl490  1  0.48990798  0.44709258  0.11012340  1
  Cl  Cl491  1  0.50026177  0.77598513  0.10540046  1
  Cl  Cl492  1  -0.00768735  0.22758816  0.88959399  1
  Cl  Cl493  1  -0.00981171  0.55663373  0.87954492  1
  Cl  Cl494  1  -0.00913285  0.89460890  0.89044023  1
  Cl  Cl495  1  0.50153115  0.22602242  0.89424121  1
  Cl  Cl496  1  0.48767164  0.55626251  0.89074464  1
  Cl  Cl497  1  0.49099820  0.89351615  0.88516293  1
  Cl  Cl498  1  -0.00357857  0.10675415  0.39279066  1
  Cl  Cl499  1  -0.00524496  0.44629877  0.38867525  1
  Cl  Cl500  1  -0.00627493  0.77870257  0.39251478  1
  Cl  Cl501  1  0.50515371  0.11455286  0.37483331  1
  Cl  Cl502  1  0.49528745  0.44971727  0.37741265  1
  Cl  Cl503  1  0.50003137  0.77974125  0.37576143  1
  Cl  Cl504  1  0.35473429  0.15208820  0.75557739  1
  Cl  Cl505  1  0.35432571  0.48431945  0.75144803  1
  Cl  Cl506  1  0.35508875  0.81721414  0.75472661  1
  Cl  Cl507  1  0.86045993  0.14656711  0.74853814  1
  Cl  Cl508  1  0.85284028  0.48394876  0.74873092  1
  Cl  Cl509  1  0.85891356  0.81583911  0.74750357  1
  Cl  Cl510  1  0.14481184  0.18484263  0.25127702  1
  Cl  Cl511  1  0.13433622  0.52249796  0.24530342  1
  Cl  Cl512  1  0.13823894  0.85491634  0.24561284  1
  Cl  Cl513  1  0.63636782  0.18983561  0.25551114  1
  Cl  Cl514  1  0.63755893  0.52139161  0.24486964  1
  Cl  Cl515  1  0.64020956  0.85443153  0.24802071  1
  Cl  Cl516  1  0.13274562  0.14642142  0.74559919  1
  Cl  Cl517  1  0.13466930  0.47747308  0.75543375  1
  Cl  Cl518  1  0.13391854  0.81222318  0.74400661  1
  Cl  Cl519  1  0.64123909  0.14666281  0.74441577  1
  Cl  Cl520  1  0.63001639  0.47624929  0.75860498  1
  Cl  Cl521  1  0.63578387  0.81468952  0.75923842  1
  Cl  Cl522  1  0.36610049  0.18501651  0.24579502  1
  Cl  Cl523  1  0.35788839  0.51594455  0.24751387  1
  Cl  Cl524  1  0.36010886  0.85002147  0.24894686  1
  Cl  Cl525  1  0.85568296  0.18433860  0.24781935  1
  Cl  Cl526  1  0.85675803  0.51423701  0.24957326  1
  Cl  Cl527  1  0.86209154  0.85136221  0.24717796  1
  Cl  Cl528  1  0.11229115  0.31152264  0.74881402  1
  Cl  Cl529  1  0.11038319  0.64475886  0.74962963  1
  Cl  Cl530  1  0.11001531  0.98068441  0.75350987  1
  Cl  Cl531  1  0.61735213  0.30953891  0.75535711  1
  Cl  Cl532  1  0.61334251  0.64386112  0.75229802  1
  Cl  Cl533  1  0.60787477  0.98183112  0.75002615  1
  Cl  Cl534  1  0.39289882  0.01890599  0.24909035  1
  Cl  Cl535  1  0.39388652  0.34952518  0.24819399  1
  Cl  Cl536  1  0.39417625  0.68299862  0.24572661  1
  Cl  Cl537  1  0.89311713  0.01821138  0.24986546  1
  Cl  Cl538  1  0.89170985  0.34811902  0.25126817  1
  Cl  Cl539  1  0.89492444  0.68319818  0.25069147  1
  Cl  Cl540  1  0.39807225  0.31696746  0.74943980  1
  Cl  Cl541  1  0.39262028  0.65255122  0.74961396  1
  Cl  Cl542  1  0.39087313  0.98610900  0.75251481  1
  Cl  Cl543  1  0.88992153  0.31625988  0.75361733  1
  Cl  Cl544  1  0.88735136  0.64834158  0.74969318  1
  Cl  Cl545  1  0.89049586  0.98182922  0.74739574  1
  Cl  Cl546  1  0.11057041  0.01927236  0.25201404  1
  Cl  Cl547  1  0.11329570  0.35250874  0.24921002  1
  Cl  Cl548  1  0.11442654  0.68700647  0.25254625  1
  Cl  Cl549  1  0.61463142  0.01935972  0.25041490  1
  Cl  Cl550  1  0.61531765  0.35515973  0.25074039  1
  Cl  Cl551  1  0.61495020  0.68600052  0.24701588  1
