# generated using pymatgen
data_H8PbC4(N3Cl2)2
_symmetry_space_group_name_H-M   'P 1'
_cell_length_a   16.63155493
_cell_length_b   22.52314225
_cell_length_c   21.59695522
_cell_angle_alpha   89.99898422
_cell_angle_beta   89.97009333
_cell_angle_gamma   89.99060265
_symmetry_Int_Tables_number   1
_chemical_formula_structural   H8PbC4(N3Cl2)2
_chemical_formula_sum   'H192 Pb24 C96 N144 Cl96'
_cell_volume   8090.10758255
_cell_formula_units_Z   24
loop_
 _symmetry_equiv_pos_site_id
 _symmetry_equiv_pos_as_xyz
  1  'x, y, z'
loop_
 _atom_site_type_symbol
 _atom_site_label
 _atom_site_symmetry_multiplicity
 _atom_site_fract_x
 _atom_site_fract_y
 _atom_site_fract_z
 _atom_site_occupancy
  H  H0  1  0.00317843  0.02677723  0.67250003  1
  H  H1  1  -0.00205391  0.36337474  0.67388192  1
  H  H2  1  -0.01943653  0.69877052  0.68068553  1
  H  H3  1  0.49398778  0.02756189  0.68351495  1
  H  H4  1  0.49522058  0.36319203  0.67833167  1
  H  H5  1  0.51603331  0.69691830  0.67639214  1
  H  H6  1  0.01032911  0.30390040  0.17452243  1
  H  H7  1  -0.01803103  0.63538819  0.17891359  1
  H  H8  1  -0.01552088  0.97006967  0.17570572  1
  H  H9  1  0.50067637  0.30659663  0.17579021  1
  H  H10  1  0.52289303  0.63978503  0.17063504  1
  H  H11  1  0.50523284  0.97277590  0.17430278  1
  H  H12  1  0.00060191  0.03015210  0.82082144  1
  H  H13  1  0.00322229  0.36317702  0.82376958  1
  H  H14  1  0.01145915  0.69699781  0.81790876  1
  H  H15  1  0.50487974  0.02849961  0.82297649  1
  H  H16  1  0.50542067  0.36296574  0.82157788  1
  H  H17  1  0.48990653  0.69142578  0.82617624  1
  H  H18  1  -0.00158429  0.30249822  0.31656915  1
  H  H19  1  -0.00612926  0.63683490  0.32635942  1
  H  H20  1  -0.00380469  0.97390676  0.31956203  1
  H  H21  1  0.49279217  0.30471548  0.32005174  1
  H  H22  1  0.50796595  0.63538513  0.31621142  1
  H  H23  1  0.50498933  0.96436077  0.32108685  1
  H  H24  1  0.25838676  0.19645696  0.68370372  1
  H  H25  1  0.26748152  0.53284638  0.68058888  1
  H  H26  1  0.26570564  0.86267648  0.67305730  1
  H  H27  1  0.76337812  0.19709017  0.67912587  1
  H  H28  1  0.73542995  0.52642951  0.67314724  1
  H  H29  1  0.74018517  0.86874586  0.68330836  1
  H  H30  1  0.24141203  0.14137577  0.17997204  1
  H  H31  1  0.24488548  0.47026201  0.17710174  1
  H  H32  1  0.24652482  0.80620082  0.18072471  1
  H  H33  1  0.74855295  0.14242410  0.18002613  1
  H  H34  1  0.74511982  0.47094996  0.17555590  1
  H  H35  1  0.75124941  0.80821382  0.17797221  1
  H  H36  1  0.24021065  0.19441732  0.82528140  1
  H  H37  1  0.24119170  0.52295586  0.82491255  1
  H  H38  1  0.25798224  0.86418992  0.81673665  1
  H  H39  1  0.75167797  0.19106309  0.82630915  1
  H  H40  1  0.75572454  0.52817469  0.82317898  1
  H  H41  1  0.74856463  0.85813478  0.82755099  1
  H  H42  1  0.27042251  0.13474371  0.32083782  1
  H  H43  1  0.26324544  0.47016178  0.32433747  1
  H  H44  1  0.25160569  0.80741277  0.32304861  1
  H  H45  1  0.73277558  0.13752866  0.32508880  1
  H  H46  1  0.73189068  0.47014455  0.32196939  1
  H  H47  1  0.75033084  0.81734763  0.32682936  1
  H  H48  1  0.11979994  0.05505345  0.59775449  1
  H  H49  1  0.12929917  0.38340385  0.60930270  1
  H  H50  1  0.12262565  0.71915664  0.62968572  1
  H  H51  1  0.61799980  0.05710998  0.61371057  1
  H  H52  1  0.63340158  0.38502682  0.62231489  1
  H  H53  1  0.61838612  0.72644155  0.59007215  1
  H  H54  1  0.36747577  0.28466156  0.11465370  1
  H  H55  1  0.37961086  0.62246977  0.12731731  1
  H  H56  1  0.38229472  0.94439081  0.10474147  1
  H  H57  1  0.87680666  0.28143169  0.11774590  1
  H  H58  1  0.88503484  0.60671609  0.09050328  1
  H  H59  1  0.87784297  0.94373807  0.09315809  1
  H  H60  1  0.36735886  0.04832826  0.87700143  1
  H  H61  1  0.36350879  0.38146775  0.87018974  1
  H  H62  1  0.37313614  0.72100497  0.90148099  1
  H  H63  1  0.86606767  0.04788053  0.87874217  1
  H  H64  1  0.86714822  0.38264123  0.88189605  1
  H  H65  1  0.87063666  0.71612539  0.87248945  1
  H  H66  1  0.13122783  0.28190996  0.37602459  1
  H  H67  1  0.11871894  0.60804618  0.39363443  1
  H  H68  1  0.12444506  0.94944136  0.38565375  1
  H  H69  1  0.62904754  0.28384988  0.37609800  1
  H  H70  1  0.61741298  0.60675027  0.39719532  1
  H  H71  1  0.61768736  0.94114576  0.39873658  1
  H  H72  1  0.36466674  0.22424401  0.59995336  1
  H  H73  1  0.37901339  0.55972354  0.60009516  1
  H  H74  1  0.37321268  0.88922763  0.59227794  1
  H  H75  1  0.86686343  0.22621427  0.59377051  1
  H  H76  1  0.87794856  0.54831613  0.62502706  1
  H  H77  1  0.87650670  0.88652134  0.62653337  1
  H  H78  1  0.13112266  0.11306730  0.09879744  1
  H  H79  1  0.13347864  0.44388382  0.09860411  1
  H  H80  1  0.13310724  0.78014941  0.10190908  1
  H  H81  1  0.63041799  0.10884002  0.10900843  1
  H  H82  1  0.63984031  0.43792915  0.09382286  1
  H  H83  1  0.62741677  0.77969983  0.10843531  1
  H  H84  1  0.13647159  0.22615964  0.90993320  1
  H  H85  1  0.11700794  0.55012856  0.89449008  1
  H  H86  1  0.12472427  0.88712951  0.88147989  1
  H  H87  1  0.62675336  0.22167936  0.89359062  1
  H  H88  1  0.61865039  0.55434944  0.87739157  1
  H  H89  1  0.62186599  0.88701380  0.89387595  1
  H  H90  1  0.37500415  0.10576859  0.40491348  1
  H  H91  1  0.35902383  0.43873608  0.41352135  1
  H  H92  1  0.37473048  0.78202940  0.39601257  1
  H  H93  1  0.87742596  0.11619503  0.37015098  1
  H  H94  1  0.86411199  0.44642332  0.38552040  1
  H  H95  1  0.87627945  0.77774405  0.38652678  1
  H  H96  1  0.38215397  0.27608053  0.40135674  1
  H  H97  1  0.37065228  0.61649140  0.37560284  1
  H  H98  1  0.36968101  0.94852715  0.38142096  1
  H  H99  1  0.88318968  0.27737083  0.39365289  1
  H  H100  1  0.87066694  0.61083293  0.39684408  1
  H  H101  1  0.87572766  0.94387733  0.39240055  1
  H  H102  1  0.11315887  0.05576695  0.89955575  1
  H  H103  1  0.11347080  0.39010065  0.90498960  1
  H  H104  1  0.11636620  0.72464133  0.90228400  1
  H  H105  1  0.61370182  0.05568690  0.90322895  1
  H  H106  1  0.60750201  0.39152300  0.90584577  1
  H  H107  1  0.62141635  0.71718684  0.88804815  1
  H  H108  1  0.12367287  0.27920896  0.09661900  1
  H  H109  1  0.12714294  0.61571906  0.13306335  1
  H  H110  1  0.12274559  0.95417748  0.12316415  1
  H  H111  1  0.61540721  0.27486371  0.09971124  1
  H  H112  1  0.61996416  0.60767037  0.08343165  1
  H  H113  1  0.63133435  0.94682009  0.10573696  1
  H  H114  1  0.36869974  0.04721807  0.61327415  1
  H  H115  1  0.38808955  0.39214741  0.59430592  1
  H  H116  1  0.37484850  0.72076942  0.62781503  1
  H  H117  1  0.87218704  0.05494033  0.61112103  1
  H  H118  1  0.88201508  0.39315785  0.59915889  1
  H  H119  1  0.87889389  0.72647962  0.59395683  1
  H  H120  1  0.12972203  0.11645052  0.37590827  1
  H  H121  1  0.11806861  0.45346701  0.36958931  1
  H  H122  1  0.12605397  0.78052087  0.39113360  1
  H  H123  1  0.63733203  0.10554169  0.41482819  1
  H  H124  1  0.61686510  0.44128346  0.40128993  1
  H  H125  1  0.62834876  0.78084333  0.39303667  1
  H  H126  1  0.38078193  0.21920430  0.87765879  1
  H  H127  1  0.36551993  0.55344679  0.89229628  1
  H  H128  1  0.37266941  0.88864528  0.89712878  1
  H  H129  1  0.87581860  0.21922830  0.89418224  1
  H  H130  1  0.86494250  0.55743989  0.90418508  1
  H  H131  1  0.87078887  0.89036788  0.89629099  1
  H  H132  1  0.37827683  0.11545375  0.12345880  1
  H  H133  1  0.37932840  0.45017127  0.12143048  1
  H  H134  1  0.38121512  0.78247400  0.11949258  1
  H  H135  1  0.87900287  0.11699869  0.11439289  1
  H  H136  1  0.88502817  0.45183059  0.12099963  1
  H  H137  1  0.87655903  0.78416343  0.10802479  1
  H  H138  1  0.11889289  0.21655788  0.62808375  1
  H  H139  1  0.13188295  0.55316648  0.62104203  1
  H  H140  1  0.12786619  0.88330842  0.62062682  1
  H  H141  1  0.62388872  0.22046258  0.62695613  1
  H  H142  1  0.63674869  0.55813618  0.58531147  1
  H  H143  1  0.62905725  0.88932747  0.60262527  1
  H  H144  1  0.45111312  0.25252208  0.50287960  1
  H  H145  1  0.07119315  0.59218676  0.49969695  1
  H  H146  1  0.17246271  0.75267028  0.50086608  1
  H  H147  1  0.60474351  0.25291201  0.48914812  1
  H  H148  1  0.91852261  0.57656147  0.49813945  1
  H  H149  1  0.94246289  0.24981213  0.50186741  1
  H  H150  1  0.54690075  0.08217119  1.00991803  1
  H  H151  1  0.35978338  0.41750071  0.00413207  1
  H  H152  1  0.55482640  0.91287584  0.50811301  1
  H  H153  1  0.90933870  0.08418530  0.50338582  1
  H  H154  1  0.82026429  0.75685250  0.49342634  1
  H  H155  1  0.94476604  0.40997018  0.49458312  1
  H  H156  1  0.10603796  0.92189534  1.00851910  1
  H  H157  1  0.96644154  0.57834786  -0.00936568  1
  H  H158  1  0.79327198  0.58596285  1.00452342  1
  H  H159  1  0.67644908  0.25066736  0.99928724  1
  H  H160  1  0.38710029  0.07684827  -0.00922538  1
  H  H161  1  0.04146894  0.75882635  1.00242976  1
  H  H162  1  0.95821558  0.75251977  0.49247396  1
  H  H163  1  0.56850705  0.07482045  0.50604944  1
  H  H164  1  0.82832862  0.75148529  0.00053335  1
  H  H165  1  0.29793204  0.07426755  0.50653914  1
  H  H166  1  0.72047986  0.57989817  0.48808114  1
  H  H167  1  0.29104554  0.25283747  0.49738963  1
  H  H168  1  0.89123766  0.07585150  -0.00635911  1
  H  H169  1  0.72563645  0.08304557  0.51060029  1
  H  H170  1  0.19846284  0.74860854  -0.00285727  1
  H  H171  1  0.90241659  0.24843299  0.00377645  1
  H  H172  1  0.71681400  0.41903700  -0.00753423  1
  H  H173  1  0.53882173  0.75253742  0.49241065  1
  H  H174  1  0.31309077  0.59121663  0.49712199  1
  H  H175  1  0.54772084  0.57852876  0.50135919  1
  H  H176  1  0.09548696  0.41920674  0.50348069  1
  H  H177  1  0.38421298  0.58774058  1.01332970  1
  H  H178  1  0.53142677  0.41987293  1.00932566  1
  H  H179  1  0.46423951  0.41859809  0.49508036  1
  H  H180  1  0.85431369  0.91382475  0.51278828  1
  H  H181  1  0.69092234  0.75630801  0.49674380  1
  H  H182  1  0.20031319  0.07883679  -0.00313443  1
  H  H183  1  0.08701750  0.91626600  0.49439319  1
  H  H184  1  0.10341333  0.25208508  0.48908434  1
  H  H185  1  0.69394279  0.91738843  0.49513297  1
  H  H186  1  0.86482418  0.41504434  0.01379434  1
  H  H187  1  0.11953809  0.58760325  0.02236079  1
  H  H188  1  0.27443367  0.41534580  0.51008721  1
  H  H189  1  0.36050253  0.24911688  0.98665316  1
  H  H190  1  0.78715293  0.25008622  0.49479593  1
  H  H191  1  0.41549301  0.07053764  0.50111272  1
  Pb  Pb192  1  0.24075558  0.05001909  0.74920609  1
  Pb  Pb193  1  0.24058562  0.38474071  0.74399779  1
  Pb  Pb194  1  0.24659258  0.71404070  0.75947148  1
  Pb  Pb195  1  0.74252525  0.04894123  0.75006898  1
  Pb  Pb196  1  0.74591239  0.38158155  0.75776780  1
  Pb  Pb197  1  0.74155251  0.71712581  0.73768146  1
  Pb  Pb198  1  0.25804657  0.28346928  0.25311884  1
  Pb  Pb199  1  0.25452527  0.61595139  0.25306138  1
  Pb  Pb200  1  0.25335800  0.95131801  0.24633311  1
  Pb  Pb201  1  0.75698906  0.28149454  0.25034400  1
  Pb  Pb202  1  0.75296924  0.61930145  0.23944186  1
  Pb  Pb203  1  0.75669898  0.94985523  0.25005172  1
  Pb  Pb204  1  -0.00804470  0.21702683  0.75364730  1
  Pb  Pb205  1  -0.00685070  0.55039608  0.75414924  1
  Pb  Pb206  1  -0.00413547  0.88197127  0.75326885  1
  Pb  Pb207  1  0.49238215  0.21733487  0.74160299  1
  Pb  Pb208  1  0.49653488  0.54791069  0.74043894  1
  Pb  Pb209  1  0.49314164  0.88214354  0.74894834  1
  Pb  Pb210  1  0.00923093  0.11748477  0.24214377  1
  Pb  Pb211  1  0.00113475  0.45024076  0.25279244  1
  Pb  Pb212  1  0.00682114  0.78194925  0.24680083  1
  Pb  Pb213  1  0.50712180  0.11426636  0.26188325  1
  Pb  Pb214  1  0.50839357  0.44976173  0.25540268  1
  Pb  Pb215  1  0.50211410  0.78468502  0.25774499  1
  C  C216  1  -0.00228046  0.04453675  0.62611383  1
  C  C217  1  0.00338790  0.38008352  0.62673582  1
  C  C218  1  -0.00570721  0.71374871  0.63408480  1
  C  C219  1  0.49433545  0.04279087  0.63573428  1
  C  C220  1  0.50530563  0.37919059  0.63163393  1
  C  C221  1  0.50324580  0.71276299  0.63015211  1
  C  C222  1  0.00273410  0.28821191  0.12747420  1
  C  C223  1  -0.00097753  0.62042317  0.13275615  1
  C  C224  1  -0.00390449  0.95582889  0.12862929  1
  C  C225  1  0.49462409  0.28930012  0.12926766  1
  C  C226  1  0.50641056  0.62364132  0.12512696  1
  C  C227  1  0.50648880  0.95518261  0.12779193  1
  C  C228  1  -0.00760283  0.04396696  0.86845002  1
  C  C229  1  -0.00549286  0.37802086  0.87091766  1
  C  C230  1  -0.00092514  0.71241578  0.86461525  1
  C  C231  1  0.49489531  0.04354142  0.87010016  1
  C  C232  1  0.49187210  0.37790054  0.86826054  1
  C  C233  1  0.49494676  0.70940055  0.87235356  1
  C  C234  1  0.00465802  0.28786013  0.36423899  1
  C  C235  1  -0.00556359  0.61916553  0.37320957  1
  C  C236  1  -0.00135368  0.95620109  0.36620552  1
  C  C237  1  0.50131548  0.28888153  0.36716940  1
  C  C238  1  0.49831439  0.62031116  0.36334980  1
  C  C239  1  0.49755383  0.95125805  0.36901183  1
  C  C240  1  0.24675832  0.21170351  0.63682660  1
  C  C241  1  0.25929031  0.54819234  0.63337675  1
  C  C242  1  0.25518921  0.87850809  0.62639235  1
  C  C243  1  0.75138040  0.21341569  0.63276320  1
  C  C244  1  0.74985560  0.54320927  0.62733131  1
  C  C245  1  0.74906400  0.88176111  0.63533252  1
  C  C246  1  0.25053284  0.12413455  0.13360570  1
  C  C247  1  0.25340291  0.45481943  0.12995874  1
  C  C248  1  0.25378633  0.78996535  0.13379945  1
  C  C249  1  0.75295482  0.12373748  0.13411960  1
  C  C250  1  0.75692078  0.45422517  0.12914237  1
  C  C251  1  0.75185394  0.79075007  0.13126195  1
  C  C252  1  0.25293267  0.21213459  0.87096102  1
  C  C253  1  0.24137096  0.54118013  0.87128099  1
  C  C254  1  0.25162599  0.87945853  0.86417178  1
  C  C255  1  0.75076205  0.20955929  0.87261237  1
  C  C256  1  0.74660189  0.54502356  0.86955132  1
  C  C257  1  0.74689767  0.87809035  0.87299574  1
  C  C258  1  0.25814593  0.11973370  0.36767420  1
  C  C259  1  0.24675950  0.45548517  0.37052819  1
  C  C260  1  0.25094545  0.79069801  0.37015826  1
  C  C261  1  0.74891434  0.12089820  0.37054327  1
  C  C262  1  0.73733744  0.45349909  0.36888673  1
  C  C263  1  0.75174886  0.79387457  0.37073971  1
  C  C264  1  0.51748234  0.59119917  0.45851887  1
  C  C265  1  0.19466588  0.90574129  0.54053881  1
  C  C266  1  0.43657579  0.59663202  0.04207187  1
  C  C267  1  0.05823760  0.26191006  0.45406854  1
  C  C268  1  0.04145457  0.92677940  0.45691984  1
  C  C269  1  0.68705670  0.57890176  0.95452240  1
  C  C270  1  0.98385786  0.74130479  0.53744763  1
  C  C271  1  0.93779275  0.06765088  0.95900737  1
  C  C272  1  0.27172272  0.08882771  0.46294841  1
  C  C273  1  0.55929850  0.26098870  0.45389678  1
  C  C274  1  0.72530891  0.90663492  0.53780371  1
  C  C275  1  0.22843781  0.42546654  0.03475166  1
  C  C276  1  0.99059056  0.59095693  0.03571457  1
  C  C277  1  0.21225282  0.76270969  0.46223464  1
  C  C278  1  0.94130705  0.40218657  0.95983947  1
  C  C279  1  0.20374848  0.57233445  0.96311966  1
  C  C280  1  0.01862802  0.07028019  0.96455687  1
  C  C281  1  0.43506008  0.06825820  0.95761663  1
  C  C282  1  0.78905498  0.76138526  0.03948357  1
  C  C283  1  0.50357419  0.40697819  0.96576176  1
  C  C284  1  0.78129985  0.91666056  0.96177703  1
  C  C285  1  0.46730519  0.74377250  0.96432328  1
  C  C286  1  0.03033498  0.07852204  0.53273991  1
  C  C287  1  0.03021041  0.25918055  0.03230621  1
  C  C288  1  0.44152101  0.92824665  0.45856827  1
  C  C289  1  0.23033780  0.76011827  0.03950198  1
  C  C290  1  0.94904098  0.25918092  0.03813850  1
  C  C291  1  0.45258068  0.06664673  0.54241484  1
  C  C292  1  0.97654126  0.26075120  0.46041738  1
  C  C293  1  0.44539114  0.26135081  0.03997851  1
  C  C294  1  0.42349215  0.40309603  0.95295995  1
  C  C295  1  0.43688551  0.74411439  0.54719746  1
  C  C296  1  0.17481465  0.43165651  0.45314454  1
  C  C297  1  0.23034832  0.09180061  0.03964395  1
  C  C298  1  0.26260595  0.24029915  0.54106792  1
  C  C299  1  0.05710538  0.93048762  0.04098519  1
  C  C300  1  0.51590940  0.59192292  0.02849078  1
  C  C301  1  0.28070125  0.57856190  0.53886241  1
  C  C302  1  0.27520757  0.90829420  0.53093545  1
  C  C303  1  0.97648005  0.92732476  0.03216952  1
  C  C304  1  0.52255034  0.92497826  0.46614440  1
  C  C305  1  0.47114741  0.92120127  0.03731827  1
  C  C306  1  0.72208971  0.08632163  0.04352413  1
  C  C307  1  0.51614361  0.07090970  0.96710374  1
  C  C308  1  0.79325111  0.24214306  0.96410833  1
  C  C309  1  0.30962266  0.42765434  0.04067215  1
  C  C310  1  0.01336222  0.74403012  0.95948539  1
  C  C311  1  0.80671331  0.90504068  0.54625325  1
  N  N312  1  0.81693322  0.43087659  0.04384941  1
  N  N313  1  0.71030642  0.42272752  0.46355633  1
  N  N314  1  0.29138091  0.76235740  0.46376274  1
  N  N315  1  0.05210092  0.40272310  0.53680177  1
  N  N316  1  0.74219469  0.57385094  0.53292679  1
  N  N317  1  0.71273385  0.74530110  0.45324559  1
  N  N318  1  0.95671815  0.59685741  0.46648274  1
  N  N319  1  0.70411112  0.91609515  0.96219865  1
  N  N320  1  0.52275110  0.25749546  0.03380815  1
  N  N321  1  0.19386863  0.09288747  0.45336942  1
  N  N322  1  0.79933218  0.08927059  0.04471671  1
  N  N323  1  0.43883987  0.59445088  0.45148254  1
  N  N324  1  0.71403285  0.24280445  0.96283878  1
  N  N325  1  0.93528821  0.74055449  0.95009566  1
  N  N326  1  0.74003716  0.41783111  0.03717766  1
  N  N327  1  0.53187065  0.07131285  0.54398773  1
  N  N328  1  0.79538147  0.74455568  0.45149243  1
  N  N329  1  0.56660447  0.40763162  0.54603575  1
  N  N330  1  0.25160315  0.42634122  0.46649658  1
  N  N331  1  0.51402765  0.74430508  0.53532827  1
  N  N332  1  0.06766369  0.59418443  0.05104290  1
  N  N333  1  0.30867438  0.09219546  0.04782452  1
  N  N334  1  0.78653360  0.42426643  0.45862274  1
  N  N335  1  0.18444124  0.23759527  0.55029716  1
  N  N336  1  0.06151886  0.73901698  0.54911022  1
  N  N337  1  0.31174079  0.24233650  0.95413390  1
  N  N338  1  0.48940875  0.41029298  0.53834776  1
  N  N339  1  0.54441790  0.74234862  0.96155426  1
  N  N340  1  0.71001503  0.75845482  0.03955618  1
  N  N341  1  0.76399968  0.24484924  0.53908322  1
  N  N342  1  0.54838122  0.92248073  0.03617408  1
  N  N343  1  0.30905691  0.76020878  0.04542887  1
  N  N344  1  0.20276445  0.90772308  0.95413896  1
  N  N345  1  0.81876410  0.56915784  0.54454029  1
  N  N346  1  0.27850788  0.90804585  0.95952184  1
  N  N347  1  0.01823133  0.40545874  0.96824338  1
  N  N348  1  0.76528691  0.57872477  0.96262644  1
  N  N349  1  0.74459269  0.08895036  0.46462503  1
  N  N350  1  0.96202980  0.92451330  0.45970023  1
  N  N351  1  0.23506869  0.24488536  0.96617225  1
  N  N352  1  0.48040404  0.25755221  0.46110255  1
  N  N353  1  0.03503219  0.58442307  0.46184119  1
  N  N354  1  0.97439058  0.41548043  0.53599397  1
  N  N355  1  0.20175080  0.57664136  0.54523198  1
  N  N356  1  0.28150837  0.57379961  0.96361365  1
  N  N357  1  0.68717269  0.24216007  0.54888370  1
  N  N358  1  0.82039445  0.09343567  0.45111032  1
  N  N359  1  0.95168550  0.07673115  0.53783805  1
  N  N360  1  0.05913435  0.05881228  0.58722602  1
  N  N361  1  0.07065739  0.39081123  0.59585505  1
  N  N362  1  0.06611363  0.72193497  0.60931124  1
  N  N363  1  0.55779799  0.05325340  0.60053062  1
  N  N364  1  0.57597120  0.38961096  0.60475861  1
  N  N365  1  0.55627012  0.72292999  0.58566823  1
  N  N366  1  0.42583838  0.28004823  0.09819523  1
  N  N367  1  0.43246569  0.61632279  0.10301247  1
  N  N368  1  0.44248262  0.94104396  0.09237174  1
  N  N369  1  0.93337258  0.27741024  0.09871145  1
  N  N370  1  0.94759757  0.60714575  0.08632830  1
  N  N371  1  0.93979111  0.94263676  0.08489336  1
  N  N372  1  0.42334209  0.05172875  0.89737493  1
  N  N373  1  0.41759014  0.38582397  0.89324162  1
  N  N374  1  0.43395403  0.72388893  0.91081398  1
  N  N375  1  0.92276931  0.05143814  0.89796491  1
  N  N376  1  0.92400468  0.38631304  0.90020062  1
  N  N377  1  0.92819039  0.72128882  0.89070193  1
  N  N378  1  0.07407396  0.27861523  0.39437690  1
  N  N379  1  0.05874272  0.60904330  0.40753302  1
  N  N380  1  0.06471668  0.94560779  0.39968374  1
  N  N381  1  0.57249987  0.27871225  0.39513084  1
  N  N382  1  0.55546657  0.60700495  0.40493562  1
  N  N383  1  0.55664429  0.93966511  0.40920777  1
  N  N384  1  0.30222610  0.22454295  0.59378421  1
  N  N385  1  0.31748976  0.56110471  0.59245441  1
  N  N386  1  0.31174455  0.89169213  0.58367881  1
  N  N387  1  0.80439661  0.22419326  0.58862017  1
  N  N388  1  0.82250658  0.55285410  0.60413964  1
  N  N389  1  0.81974706  0.88966420  0.60687943  1
  N  N390  1  0.19318385  0.11128735  0.09197896  1
  N  N391  1  0.19471491  0.44167345  0.08850278  1
  N  N392  1  0.19466854  0.77783042  0.09341209  1
  N  N393  1  0.69126574  0.10722961  0.09742432  1
  N  N394  1  0.70202334  0.44188026  0.08639409  1
  N  N395  1  0.68846699  0.77704798  0.09687816  1
  N  N396  1  0.19873536  0.22660020  0.91393851  1
  N  N397  1  0.17703754  0.55318120  0.90680884  1
  N  N398  1  0.18456874  0.89032102  0.89505324  1
  N  N399  1  0.68712143  0.22120464  0.90698931  1
  N  N400  1  0.67530487  0.55854881  0.89670574  1
  N  N401  1  0.68232289  0.89152416  0.90580805  1
  N  N402  1  0.31314712  0.10561233  0.41086246  1
  N  N403  1  0.29665997  0.44290121  0.41612711  1
  N  N404  1  0.31377600  0.78030409  0.40630783  1
  N  N405  1  0.82248713  0.11077733  0.39184631  1
  N  N406  1  0.80451577  0.44320679  0.39991924  1
  N  N407  1  0.81664042  0.77743659  0.40148551  1
  N  N408  1  0.44467730  0.27758427  0.40845842  1
  N  N409  1  0.42884143  0.61237062  0.39217521  1
  N  N410  1  0.42716749  0.94386546  0.39983308  1
  N  N411  1  0.94449323  0.27708632  0.40399058  1
  N  N412  1  0.93114557  0.60751796  0.40834476  1
  N  N413  1  0.93693497  0.94288055  0.40243330  1
  N  N414  1  0.05163209  0.05610399  0.91004917  1
  N  N415  1  0.05105841  0.38964660  0.91185156  1
  N  N416  1  0.05394831  0.72646146  0.90769306  1
  N  N417  1  0.55207406  0.05553516  0.91214249  1
  N  N418  1  0.54527889  0.39085118  0.91213342  1
  N  N419  1  0.56191258  0.72093254  0.90298550  1
  N  N420  1  0.06246845  0.27671813  0.08596625  1
  N  N421  1  0.07214109  0.61331088  0.11038786  1
  N  N422  1  0.06766482  0.94818791  0.10210365  1
  N  N423  1  0.55334177  0.27524532  0.09092293  1
  N  N424  1  0.55816693  0.60781208  0.07866660  1
  N  N425  1  0.57073785  0.94390855  0.09372240  1
  N  N426  1  0.42879740  0.05089636  0.59986747  1
  N  N427  1  0.45039306  0.39102176  0.58910426  1
  N  N428  1  0.42993189  0.72503319  0.60591634  1
  N  N429  1  0.93077471  0.05481160  0.59518700  1
  N  N430  1  0.94321403  0.39114361  0.58820690  1
  N  N431  1  0.94102288  0.72589124  0.58916179  1
  N  N432  1  0.18719976  0.11192648  0.39431097  1
  N  N433  1  0.17144959  0.44846182  0.39309103  1
  N  N434  1  0.18581935  0.77931736  0.40478288  1
  N  N435  1  0.69971610  0.10891048  0.41700758  1
  N  N436  1  0.67843316  0.44084344  0.40816569  1
  N  N437  1  0.68895374  0.77944125  0.40512569  1
  N  N438  1  0.32371768  0.22153703  0.89675571  1
  N  N439  1  0.30501033  0.55368897  0.90528151  1
  N  N440  1  0.31048315  0.89044034  0.90407476  1
  N  N441  1  0.81623164  0.22275963  0.90790303  1
  N  N442  1  0.80304870  0.55569324  0.91123895  1
  N  N443  1  0.81060134  0.89407435  0.90795991  1
  N  N444  1  0.32001503  0.11256692  0.10627874  1
  N  N445  1  0.32352150  0.44594709  0.10138223  1
  N  N446  1  0.32192357  0.77888729  0.10413829  1
  N  N447  1  0.81889497  0.11273531  0.10210003  1
  N  N448  1  0.82787096  0.44431711  0.10345975  1
  N  N449  1  0.81649287  0.78038779  0.09584501  1
  N  N450  1  0.17615851  0.21974614  0.60990297  1
  N  N451  1  0.19033287  0.55771772  0.60443388  1
  N  N452  1  0.18338868  0.88812145  0.59920641  1
  N  N453  1  0.67996198  0.22495083  0.60798375  1
  N  N454  1  0.69897749  0.55542455  0.58209226  1
  N  N455  1  0.69061686  0.89209276  0.59373527  1
  Cl  Cl456  1  0.24571607  0.05127618  0.61446272  1
  Cl  Cl457  1  0.26509326  0.39112165  0.60111798  1
  Cl  Cl458  1  0.24874752  0.72452442  0.62896577  1
  Cl  Cl459  1  0.74036290  0.06538817  0.60372123  1
  Cl  Cl460  1  0.76308752  0.38715371  0.62663281  1
  Cl  Cl461  1  0.74656795  0.73123140  0.59376721  1
  Cl  Cl462  1  0.24387705  0.28166227  0.12241573  1
  Cl  Cl463  1  0.24971785  0.60916563  0.12413111  1
  Cl  Cl464  1  0.25826408  0.94807416  0.11960601  1
  Cl  Cl465  1  0.73795538  0.27502029  0.11474908  1
  Cl  Cl466  1  0.75906560  0.60428479  0.10163497  1
  Cl  Cl467  1  0.75698164  0.94520218  0.11801571  1
  Cl  Cl468  1  0.23455981  0.05975560  0.88379145  1
  Cl  Cl469  1  0.23112697  0.38972181  0.87521752  1
  Cl  Cl470  1  0.24106073  0.72048696  0.89515649  1
  Cl  Cl471  1  0.73404885  0.05928940  0.87882530  1
  Cl  Cl472  1  0.73325287  0.39507287  0.89711267  1
  Cl  Cl473  1  0.74472541  0.71340778  0.86924876  1
  Cl  Cl474  1  0.26327459  0.27811564  0.38983606  1
  Cl  Cl475  1  0.24204911  0.60972445  0.38625949  1
  Cl  Cl476  1  0.24612569  0.94888717  0.37923416  1
  Cl  Cl477  1  0.76058863  0.27057172  0.39267094  1
  Cl  Cl478  1  0.74274772  0.60281796  0.39166392  1
  Cl  Cl479  1  0.74614341  0.94242894  0.38655581  1
  Cl  Cl480  1  -0.01584980  0.22275783  0.61705755  1
  Cl  Cl481  1  0.00435825  0.55381407  0.61867229  1
  Cl  Cl482  1  0.00204314  0.88863388  0.62319847  1
  Cl  Cl483  1  0.48556045  0.22628779  0.60225675  1
  Cl  Cl484  1  0.51245595  0.55907400  0.60359823  1
  Cl  Cl485  1  0.50290721  0.88493008  0.61303951  1
  Cl  Cl486  1  0.00732161  0.11447634  0.10848256  1
  Cl  Cl487  1  0.00934369  0.45131327  0.12214022  1
  Cl  Cl488  1  0.00678250  0.77924104  0.11153419  1
  Cl  Cl489  1  0.50808663  0.10967058  0.12855010  1
  Cl  Cl490  1  0.52204123  0.43797714  0.12155408  1
  Cl  Cl491  1  0.50542953  0.78216941  0.12734005  1
  Cl  Cl492  1  0.00692833  0.22356805  0.88748683  1
  Cl  Cl493  1  -0.00997363  0.55585875  0.89059179  1
  Cl  Cl494  1  -0.00216485  0.88942695  0.88650620  1
  Cl  Cl495  1  0.50555958  0.22431153  0.87246089  1
  Cl  Cl496  1  0.49159167  0.55730293  0.87153568  1
  Cl  Cl497  1  0.49523544  0.88649992  0.88143691  1
  Cl  Cl498  1  0.00309176  0.11071394  0.37494378  1
  Cl  Cl499  1  -0.01262979  0.44242490  0.38953380  1
  Cl  Cl500  1  -0.00119622  0.77304585  0.38333376  1
  Cl  Cl501  1  0.51163380  0.10483609  0.40425597  1
  Cl  Cl502  1  0.48270560  0.43771177  0.39938674  1
  Cl  Cl503  1  0.50627612  0.77444928  0.39680965  1
  Cl  Cl504  1  0.36233715  0.14518807  0.75572509  1
  Cl  Cl505  1  0.36053281  0.47975093  0.75544213  1
  Cl  Cl506  1  0.35696853  0.81496306  0.74902157  1
  Cl  Cl507  1  0.85404086  0.14980720  0.75472943  1
  Cl  Cl508  1  0.85937152  0.48179982  0.75111405  1
  Cl  Cl509  1  0.86518527  0.80969603  0.74789104  1
  Cl  Cl510  1  0.14084232  0.18658271  0.26135686  1
  Cl  Cl511  1  0.13310362  0.52138071  0.25644457  1
  Cl  Cl512  1  0.14167923  0.85063929  0.25015552  1
  Cl  Cl513  1  0.63964090  0.18448040  0.25441785  1
  Cl  Cl514  1  0.64385202  0.51757647  0.24653901  1
  Cl  Cl515  1  0.64021749  0.85123410  0.25567978  1
  Cl  Cl516  1  0.14288843  0.15052491  0.74735554  1
  Cl  Cl517  1  0.14094475  0.48124558  0.73704852  1
  Cl  Cl518  1  0.13242132  0.81403716  0.75063251  1
  Cl  Cl519  1  0.62788956  0.14596193  0.73451397  1
  Cl  Cl520  1  0.63847515  0.48364934  0.74874265  1
  Cl  Cl521  1  0.64498169  0.81538106  0.75189923  1
  Cl  Cl522  1  0.36083807  0.18524837  0.24561036  1
  Cl  Cl523  1  0.35749693  0.51710703  0.25024670  1
  Cl  Cl524  1  0.36393454  0.85150649  0.25676043  1
  Cl  Cl525  1  0.86122053  0.18683285  0.25488447  1
  Cl  Cl526  1  0.86517025  0.52030621  0.24957469  1
  Cl  Cl527  1  0.85911911  0.85286429  0.25456502  1
  Cl  Cl528  1  0.10863110  0.31414540  0.73470189  1
  Cl  Cl529  1  0.10978036  0.64783744  0.74508010  1
  Cl  Cl530  1  0.10178888  0.98552775  0.75016580  1
  Cl  Cl531  1  0.61074466  0.31404468  0.74027271  1
  Cl  Cl532  1  0.60713811  0.64958475  0.74800506  1
  Cl  Cl533  1  0.61169534  0.97938490  0.74191940  1
  Cl  Cl534  1  0.38652625  0.02009114  0.25547167  1
  Cl  Cl535  1  0.39309748  0.35166683  0.24627574  1
  Cl  Cl536  1  0.38934396  0.68407986  0.24677682  1
  Cl  Cl537  1  0.89167899  0.02008042  0.25046437  1
  Cl  Cl538  1  0.88763377  0.35147606  0.23857662  1
  Cl  Cl539  1  0.88748109  0.68501532  0.25861698  1
  Cl  Cl540  1  0.38647007  0.31413973  0.75273418  1
  Cl  Cl541  1  0.38503358  0.64868635  0.74201494  1
  Cl  Cl542  1  0.39049645  0.98141360  0.75547369  1
  Cl  Cl543  1  0.89119226  0.31666574  0.75984662  1
  Cl  Cl544  1  0.88802157  0.64514929  0.74996551  1
  Cl  Cl545  1  0.87778700  0.97926516  0.74045970  1
  Cl  Cl546  1  0.11304836  0.01889744  0.24116925  1
  Cl  Cl547  1  0.11160771  0.35282992  0.25669401  1
  Cl  Cl548  1  0.10638484  0.68467431  0.24754854  1
  Cl  Cl549  1  0.60535419  0.01664716  0.25293722  1
  Cl  Cl550  1  0.61181858  0.35442463  0.26296411  1
  Cl  Cl551  1  0.61264740  0.68251398  0.24964294  1
