# generated using pymatgen
data_H8PbC4(N3Cl2)2
_symmetry_space_group_name_H-M   'P 1'
_cell_length_a   16.63074686
_cell_length_b   22.51573986
_cell_length_c   21.59620473
_cell_angle_alpha   89.99891592
_cell_angle_beta   90.00332222
_cell_angle_gamma   89.99950475
_symmetry_Int_Tables_number   1
_chemical_formula_structural   H8PbC4(N3Cl2)2
_chemical_formula_sum   'H192 Pb24 C96 N144 Cl96'
_cell_volume   8086.77594461
_cell_formula_units_Z   24
loop_
 _symmetry_equiv_pos_site_id
 _symmetry_equiv_pos_as_xyz
  1  'x, y, z'
loop_
 _atom_site_type_symbol
 _atom_site_label
 _atom_site_symmetry_multiplicity
 _atom_site_fract_x
 _atom_site_fract_y
 _atom_site_fract_z
 _atom_site_occupancy
  H  H0  1  -0.00608339  0.03100149  0.67694660  1
  H  H1  1  0.02076853  0.36090587  0.67809095  1
  H  H2  1  0.00180791  0.69299334  0.68006214  1
  H  H3  1  0.50569487  0.02958204  0.67740427  1
  H  H4  1  0.48323428  0.36152593  0.67533337  1
  H  H5  1  0.50918531  0.70044225  0.67749849  1
  H  H6  1  0.01161762  0.30708776  0.17624346  1
  H  H7  1  -0.00657730  0.64127639  0.18105016  1
  H  H8  1  -0.01071112  0.96889278  0.17813604  1
  H  H9  1  0.50113092  0.30542881  0.18119948  1
  H  H10  1  0.51025164  0.63237921  0.17295317  1
  H  H11  1  0.50220011  0.96974213  0.18006852  1
  H  H12  1  0.02041092  0.02724961  0.82407570  1
  H  H13  1  0.00221894  0.35986363  0.82422610  1
  H  H14  1  -0.01458434  0.70086265  0.81955919  1
  H  H15  1  0.48303068  0.03233732  0.82132156  1
  H  H16  1  0.50449854  0.36293110  0.81651268  1
  H  H17  1  0.51073962  0.69082884  0.82124694  1
  H  H18  1  0.00910900  0.30050596  0.31983808  1
  H  H19  1  0.00582918  0.63975976  0.32366495  1
  H  H20  1  0.00014864  0.97599844  0.32394280  1
  H  H21  1  0.48755189  0.30264445  0.31856060  1
  H  H22  1  0.49045683  0.63969587  0.32099909  1
  H  H23  1  0.50677047  0.96964021  0.31794959  1
  H  H24  1  0.25516656  0.19390788  0.67987943  1
  H  H25  1  0.25724712  0.53278560  0.68005192  1
  H  H26  1  0.24054635  0.85902078  0.67734847  1
  H  H27  1  0.73770527  0.19777216  0.68010313  1
  H  H28  1  0.74241628  0.52903168  0.67749955  1
  H  H29  1  0.74297444  0.86588849  0.68223081  1
  H  H30  1  0.24926200  0.13702815  0.18171669  1
  H  H31  1  0.26411391  0.47009955  0.17788670  1
  H  H32  1  0.25328425  0.80557949  0.17994599  1
  H  H33  1  0.75723437  0.13644065  0.17868040  1
  H  H34  1  0.73820052  0.46668556  0.18201101  1
  H  H35  1  0.74185854  0.80857163  0.17534038  1
  H  H36  1  0.24565768  0.20001430  0.82174144  1
  H  H37  1  0.23547741  0.52746794  0.82543279  1
  H  H38  1  0.25286336  0.86293714  0.82036368  1
  H  H39  1  0.75295264  0.19318374  0.82134810  1
  H  H40  1  0.76514065  0.52674639  0.82469725  1
  H  H41  1  0.74993136  0.86308476  0.82076770  1
  H  H42  1  0.23012028  0.13241885  0.32571431  1
  H  H43  1  0.25246113  0.45466618  0.31498781  1
  H  H44  1  0.23934790  0.80387077  0.32766837  1
  H  H45  1  0.76135477  0.13814087  0.32013083  1
  H  H46  1  0.75144138  0.47147077  0.32054253  1
  H  H47  1  0.76103269  0.80312732  0.31795969  1
  H  H48  1  0.12480164  0.05346693  0.61255423  1
  H  H49  1  0.11994363  0.39175711  0.58937238  1
  H  H50  1  0.11863783  0.72387827  0.60350753  1
  H  H51  1  0.62109780  0.05626056  0.59894870  1
  H  H52  1  0.62341751  0.38378303  0.62417334  1
  H  H53  1  0.61600569  0.72516870  0.59580170  1
  H  H54  1  0.37787472  0.27907479  0.11005618  1
  H  H55  1  0.37265479  0.61553622  0.11974286  1
  H  H56  1  0.37695662  0.94688884  0.10836124  1
  H  H57  1  0.87670338  0.28451547  0.11617218  1
  H  H58  1  0.86998160  0.61272081  0.11236188  1
  H  H59  1  0.87793999  0.93964669  0.09912828  1
  H  H60  1  0.38451279  0.05918704  0.90840092  1
  H  H61  1  0.37664433  0.38381521  0.88242373  1
  H  H62  1  0.37342248  0.71616458  0.87494476  1
  H  H63  1  0.87757737  0.04928363  0.87294344  1
  H  H64  1  0.87609054  0.38836613  0.89203658  1
  H  H65  1  0.87534443  0.72533819  0.90345788  1
  H  H66  1  0.12354092  0.27565918  0.39983942  1
  H  H67  1  0.13006936  0.61434463  0.39366189  1
  H  H68  1  0.10942984  0.94223364  0.40496679  1
  H  H69  1  0.62602598  0.28366331  0.37592281  1
  H  H70  1  0.63028454  0.61548259  0.37040644  1
  H  H71  1  0.61566040  0.94327574  0.39839938  1
  H  H72  1  0.36968763  0.21996481  0.60122694  1
  H  H73  1  0.36284140  0.55914710  0.59603029  1
  H  H74  1  0.37954745  0.88266893  0.62368742  1
  H  H75  1  0.87371996  0.21442930  0.62133285  1
  H  H76  1  0.87264707  0.55371683  0.61354262  1
  H  H77  1  0.88251704  0.88398826  0.62893452  1
  H  H78  1  0.12628369  0.11646359  0.10940383  1
  H  H79  1  0.12470031  0.44862154  0.12303468  1
  H  H80  1  0.12690934  0.78117159  0.11111360  1
  H  H81  1  0.62447336  0.11608068  0.11882722  1
  H  H82  1  0.62901959  0.44580445  0.10083284  1
  H  H83  1  0.63303832  0.77621356  0.09449279  1
  H  H84  1  0.12459190  0.22330773  0.89447439  1
  H  H85  1  0.13585228  0.55835328  0.91276669  1
  H  H86  1  0.12396517  0.88654012  0.88603414  1
  H  H87  1  0.62537275  0.21739112  0.88635374  1
  H  H88  1  0.62560247  0.55213688  0.87518448  1
  H  H89  1  0.62553046  0.88847026  0.89259859  1
  H  H90  1  0.37310420  0.11801798  0.37246166  1
  H  H91  1  0.37554882  0.44674477  0.39027934  1
  H  H92  1  0.37992907  0.78240837  0.37877996  1
  H  H93  1  0.87661177  0.11067474  0.39899613  1
  H  H94  1  0.87432555  0.44502913  0.39184915  1
  H  H95  1  0.87970836  0.77852523  0.39379385  1
  H  H96  1  0.37963525  0.27664464  0.40119928  1
  H  H97  1  0.38646588  0.60885783  0.40606393  1
  H  H98  1  0.36940348  0.95173999  0.37260094  1
  H  H99  1  0.87588864  0.28015446  0.38150753  1
  H  H100  1  0.88173070  0.61198726  0.39160475  1
  H  H101  1  0.86298786  0.95119784  0.37746835  1
  H  H102  1  0.11997880  0.05887677  0.91246744  1
  H  H103  1  0.12493752  0.38745250  0.89433983  1
  H  H104  1  0.12154826  0.71960635  0.88059868  1
  H  H105  1  0.62725927  0.04642586  0.86850080  1
  H  H106  1  0.62610360  0.38732425  0.88792116  1
  H  H107  1  0.61998821  0.72201501  0.90265522  1
  H  H108  1  0.12403701  0.27630058  0.09865005  1
  H  H109  1  0.11919241  0.61312891  0.11244510  1
  H  H110  1  0.12496683  0.95004492  0.11829028  1
  H  H111  1  0.62660678  0.28119239  0.11216603  1
  H  H112  1  0.61769971  0.60710188  0.09034776  1
  H  H113  1  0.62574887  0.94447353  0.10733954  1
  H  H114  1  0.37244509  0.05201691  0.61759996  1
  H  H115  1  0.37844050  0.39176337  0.59075513  1
  H  H116  1  0.36985210  0.71724134  0.62335773  1
  H  H117  1  0.87630222  0.05716231  0.60168580  1
  H  H118  1  0.87802998  0.38070444  0.62841363  1
  H  H119  1  0.87064505  0.71973116  0.61614735  1
  H  H120  1  0.13117956  0.10596818  0.41187604  1
  H  H121  1  0.12707694  0.44726075  0.38770246  1
  H  H122  1  0.13571526  0.77141773  0.41042223  1
  H  H123  1  0.62877780  0.11478309  0.38477924  1
  H  H124  1  0.62549160  0.44656224  0.39076063  1
  H  H125  1  0.63090881  0.77907045  0.38364152  1
  H  H126  1  0.37366279  0.21930056  0.88686321  1
  H  H127  1  0.37872614  0.55071570  0.87180324  1
  H  H128  1  0.37279024  0.88873061  0.89523026  1
  H  H129  1  0.87467680  0.22024909  0.89136236  1
  H  H130  1  0.87022586  0.55738513  0.90866052  1
  H  H131  1  0.87429357  0.88821045  0.89252317  1
  H  H132  1  0.37424755  0.11246568  0.11260787  1
  H  H133  1  0.36978575  0.44097410  0.09353034  1
  H  H134  1  0.37453806  0.77623902  0.10804647  1
  H  H135  1  0.87222268  0.10983307  0.10216529  1
  H  H136  1  0.87576495  0.44934023  0.12563633  1
  H  H137  1  0.87902515  0.78374789  0.12156535  1
  H  H138  1  0.12128791  0.21510053  0.61694219  1
  H  H139  1  0.11670031  0.55196299  0.62636313  1
  H  H140  1  0.13528488  0.89278054  0.59412754  1
  H  H141  1  0.62622641  0.22271923  0.60137620  1
  H  H142  1  0.62388451  0.55501218  0.60336312  1
  H  H143  1  0.63683330  0.88887113  0.59910595  1
  H  H144  1  0.21922064  0.57916912  1.01151768  1
  H  H145  1  0.18497114  0.40916373  0.48740723  1
  H  H146  1  0.30497271  0.24530630  0.49452635  1
  H  H147  1  0.39001915  0.58550482  1.00334164  1
  H  H148  1  0.17446890  0.75276244  0.00599093  1
  H  H149  1  0.64993141  0.08226745  0.00633079  1
  H  H150  1  0.68759591  0.25140917  0.49452144  1
  H  H151  1  0.81535925  0.07883012  -0.00397864  1
  H  H152  1  0.67451648  0.58407646  0.49544299  1
  H  H153  1  0.06989097  0.59369672  0.00453804  1
  H  H154  1  0.39944856  0.08389575  0.50451458  1
  H  H155  1  0.36585965  0.75016296  0.49128069  1
  H  H156  1  0.03509225  0.41927276  0.49432514  1
  H  H157  1  0.70614156  0.74875041  -0.00581938  1
  H  H158  1  0.13734152  0.58128432  0.51787101  1
  H  H159  1  0.54832821  0.91446516  0.50476931  1
  H  H160  1  0.29174585  0.41438231  -0.00525205  1
  H  H161  1  0.54698587  0.75470170  0.49017845  1
  H  H162  1  0.88272231  0.91697900  0.49107131  1
  H  H163  1  0.03491038  0.08283491  1.00862360  1
  H  H164  1  0.33513501  0.24962820  0.99990987  1
  H  H165  1  0.82370204  0.41271172  0.49882917  1
  H  H166  1  0.90692815  0.24785846  0.49274408  1
  H  H167  1  0.91824465  0.57927166  0.00352871  1
  H  H168  1  0.21412192  0.91889047  0.49507783  1
  H  H169  1  0.66247051  0.24903595  0.99732734  1
  H  H170  1  0.69624626  0.41920216  -0.00738169  1
  H  H171  1  0.03822140  0.92057774  0.50605599  1
  H  H172  1  0.18446874  0.11345258  0.00308484  1
  H  H173  1  0.82874181  0.25180450  0.99971202  1
  H  H174  1  0.70834108  0.91547534  0.49276669  1
  H  H175  1  0.55954871  0.08501784  0.49791187  1
  H  H176  1  0.29142786  0.58872033  0.49297191  1
  H  H177  1  0.39620270  0.74973700  0.98676809  1
  H  H178  1  0.57631774  0.41409688  0.99899244  1
  H  H179  1  0.31768517  0.06389151  0.01842874  1
  H  H180  1  0.83442782  0.58051724  0.50629967  1
  H  H181  1  0.38943156  0.92334695  0.48689659  1
  H  H182  1  0.46458620  0.08547805  1.01145203  1
  H  H183  1  0.45197483  0.24590987  0.50437543  1
  H  H184  1  0.41696065  0.40993505  0.99599648  1
  H  H185  1  0.31324012  0.40996732  0.48966413  1
  H  H186  1  0.45599087  0.42189144  0.49329020  1
  H  H187  1  0.54908392  0.74471955  1.00385000  1
  H  H188  1  0.46453064  0.58228778  0.50440414  1
  H  H189  1  0.82260772  0.75079809  0.50039557  1
  H  H190  1  0.79297896  0.58447235  1.00765477  1
  H  H191  1  0.16513888  0.91622640  0.99606805  1
  Pb  Pb192  1  0.25481250  0.04927832  0.76500669  1
  Pb  Pb193  1  0.24720528  0.38273196  0.74391040  1
  Pb  Pb194  1  0.24815683  0.71272807  0.74946176  1
  Pb  Pb195  1  0.75045182  0.04652222  0.74012846  1
  Pb  Pb196  1  0.75026024  0.37918191  0.75311139  1
  Pb  Pb197  1  0.74884036  0.71744549  0.75253671  1
  Pb  Pb198  1  0.24892727  0.28196838  0.25340794  1
  Pb  Pb199  1  0.24890609  0.61935146  0.25338533  1
  Pb  Pb200  1  0.24862299  0.95127135  0.25485910  1
  Pb  Pb201  1  0.75055810  0.28762562  0.24644637  1
  Pb  Pb202  1  0.75536989  0.61773834  0.24523437  1
  Pb  Pb203  1  0.74566770  0.95127491  0.24921966  1
  Pb  Pb204  1  0.00028064  0.21243671  0.75278886  1
  Pb  Pb205  1  -0.00484124  0.54717298  0.76581057  1
  Pb  Pb206  1  0.00765932  0.88372145  0.74445177  1
  Pb  Pb207  1  0.50051641  0.21434479  0.74498691  1
  Pb  Pb208  1  0.50048438  0.54674588  0.73525948  1
  Pb  Pb209  1  0.50103509  0.88039861  0.74999479  1
  Pb  Pb210  1  -0.00412919  0.11654683  0.24958084  1
  Pb  Pb211  1  0.00305389  0.45207826  0.26077831  1
  Pb  Pb212  1  0.00177573  0.78783053  0.25627317  1
  Pb  Pb213  1  0.50094305  0.12020080  0.25315270  1
  Pb  Pb214  1  0.49815870  0.45252238  0.24645541  1
  Pb  Pb215  1  0.50387735  0.78169320  0.24005392  1
  C  C216  1  -0.00146026  0.04728895  0.63006426  1
  C  C217  1  0.00668537  0.37709308  0.63200220  1
  C  C218  1  -0.00283896  0.71129228  0.63373090  1
  C  C219  1  0.50008265  0.04582729  0.63013918  1
  C  C220  1  0.49483282  0.37820162  0.62917825  1
  C  C221  1  0.49839396  0.71426896  0.62997427  1
  C  C222  1  0.00376920  0.28965395  0.12998685  1
  C  C223  1  -0.00519343  0.62423005  0.13397932  1
  C  C224  1  -0.00223526  0.95322503  0.13135483  1
  C  C225  1  0.50165543  0.28892213  0.13424496  1
  C  C226  1  0.49927636  0.61838587  0.12568816  1
  C  C227  1  0.50160175  0.95410904  0.13257775  1
  C  C228  1  0.00652787  0.04391598  0.87000215  1
  C  C229  1  0.00081225  0.37793839  0.87057709  1
  C  C230  1  -0.00602505  0.71482556  0.86722555  1
  C  C231  1  0.49820722  0.04551576  0.86820908  1
  C  C232  1  0.50229051  0.37770315  0.86437441  1
  C  C233  1  0.50152919  0.70828029  0.86773955  1
  C  C234  1  0.00294783  0.28514135  0.36715356  1
  C  C235  1  0.00619000  0.62259976  0.37029945  1
  C  C236  1  -0.00900079  0.95809542  0.37020825  1
  C  C237  1  0.49806903  0.28761884  0.36559397  1
  C  C238  1  0.50219515  0.62287010  0.36717785  1
  C  C239  1  0.49660625  0.95524325  0.36533229  1
  C  C240  1  0.24861632  0.20947127  0.63257791  1
  C  C241  1  0.24489873  0.54774363  0.63309976  1
  C  C242  1  0.25180751  0.87644341  0.63133595  1
  C  C243  1  0.74561097  0.21170551  0.63250460  1
  C  C244  1  0.74675241  0.54583647  0.63041820  1
  C  C245  1  0.75423195  0.87883877  0.63464510  1
  C  C246  1  0.24995347  0.12206825  0.13385475  1
  C  C247  1  0.25320800  0.45367827  0.13134293  1
  C  C248  1  0.25148796  0.78844938  0.13299822  1
  C  C249  1  0.75105213  0.12035803  0.13148205  1
  C  C250  1  0.74760654  0.45385096  0.13422343  1
  C  C251  1  0.75099052  0.79088180  0.12934592  1
  C  C252  1  0.24864578  0.21440785  0.86952680  1
  C  C253  1  0.24969850  0.54384474  0.87145309  1
  C  C254  1  0.24990418  0.87938274  0.86750499  1
  C  C255  1  0.75087681  0.21069524  0.86823471  1
  C  C256  1  0.75405470  0.54397314  0.87071985  1
  C  C257  1  0.74995105  0.87922364  0.86808191  1
  C  C258  1  0.24533939  0.11868007  0.37241804  1
  C  C259  1  0.25160779  0.44795431  0.36482840  1
  C  C260  1  0.25238236  0.78671354  0.37346527  1
  C  C261  1  0.75545929  0.12240960  0.36744083  1
  C  C262  1  0.75035435  0.45463461  0.36762138  1
  C  C263  1  0.75700653  0.78730796  0.36529013  1
  C  C264  1  0.78848215  0.24032378  0.96174299  1
  C  C265  1  0.81767096  0.90170974  0.54782297  1
  C  C266  1  0.26316167  0.57707208  0.53680810  1
  C  C267  1  0.53927453  0.40314183  0.95914215  1
  C  C268  1  0.44248760  0.73950273  0.95281680  1
  C  C269  1  0.96742478  0.59153582  0.46196773  1
  C  C270  1  0.44655998  0.07388694  0.54126783  1
  C  C271  1  0.80682972  0.43056923  0.04649425  1
  C  C272  1  0.72200614  0.23933577  0.53544737  1
  C  C273  1  0.48991904  0.07233393  0.96702962  1
  C  C274  1  0.78673614  0.76079693  0.45963745  1
  C  C275  1  0.70623877  0.23900082  0.96037886  1
  C  C276  1  0.20715938  0.90661425  0.95862437  1
  C  C277  1  0.31388849  0.09545171  0.45616332  1
  C  C278  1  0.80305795  0.23595088  0.54371822  1
  C  C279  1  0.03650336  0.41116996  0.96153227  1
  C  C280  1  0.81157400  0.75795075  0.04439879  1
  C  C281  1  0.43688426  0.93112122  0.45319317  1
  C  C282  1  0.78541513  0.42477606  0.45993168  1
  C  C283  1  0.23543617  0.09106188  0.46874405  1
  C  C284  1  0.21160490  0.24112475  0.96363179  1
  C  C285  1  0.54131405  0.25980532  0.04216707  1
  C  C286  1  0.55959470  0.41010742  0.54541713  1
  C  C287  1  0.73764681  0.90405309  0.53619442  1
  C  C288  1  0.27271546  0.23589448  0.53728651  1
  C  C289  1  0.43931944  0.59396953  0.03713358  1
  C  C290  1  0.69004060  0.57694892  0.95442129  1
  C  C291  1  0.93114632  0.92737339  0.45552672  1
  C  C292  1  0.02733131  0.25542370  0.03689961  1
  C  C293  1  0.71258707  0.57442941  0.53617366  1
  C  C294  1  0.69775932  0.09269428  0.04175531  1
  C  C295  1  0.45738847  0.40146936  0.95749833  1
  C  C296  1  0.72670659  0.42942170  0.03594282  1
  C  C297  1  0.56873072  0.06689988  0.95174705  1
  C  C298  1  0.96939487  0.07802819  0.53699435  1
  C  C299  1  0.23590025  0.75228070  0.46896304  1
  C  C300  1  0.29326068  0.23995974  0.96264648  1
  C  C301  1  0.51594459  0.74190831  0.53245952  1
  C  C302  1  0.48085542  0.25868201  0.46106398  1
  C  C303  1  0.31860192  0.57306044  0.95387739  1
  C  C304  1  0.95371963  0.25826717  0.45668790  1
  C  C305  1  0.97518269  0.92089750  0.03738364  1
  C  C306  1  0.95493866  0.59237374  0.04279178  1
  C  C307  1  0.52009813  0.59103883  0.02884140  1
  C  C308  1  0.51793214  0.92712807  0.46212235  1
  C  C309  1  0.56803714  0.59272881  0.45114616  1
  C  C310  1  0.77944001  0.09082236  0.03619637  1
  C  C311  1  0.43497460  0.73810908  0.54269843  1
  N  N312  1  0.29171139  0.09887574  0.04139991  1
  N  N313  1  0.95009885  0.25791017  0.04136754  1
  N  N314  1  0.29121041  0.44349873  0.46169969  1
  N  N315  1  0.70617210  0.42580373  0.46006539  1
  N  N316  1  0.01395775  0.07548012  0.96395771  1
  N  N317  1  0.01392254  0.41035614  0.53864391  1
  N  N318  1  0.71179076  0.90933638  0.96056303  1
  N  N319  1  0.31398839  0.90870838  0.54833072  1
  N  N320  1  0.55934093  0.26143817  0.45281977  1
  N  N321  1  0.21232357  0.75839971  0.04318108  1
  N  N322  1  0.03455662  0.59355293  0.04342052  1
  N  N323  1  0.95915715  0.41188096  0.96200928  1
  N  N324  1  0.04827046  0.73966621  0.95668093  1
  N  N325  1  0.70745932  0.76099219  0.45689044  1
  N  N326  1  0.93769628  0.07174854  0.95210099  1
  N  N327  1  0.19058733  0.42546416  0.04638761  1
  N  N328  1  0.46346453  0.25923706  0.04032946  1
  N  N329  1  0.19392834  0.23541365  0.54269017  1
  N  N330  1  0.04658617  0.07637694  0.53890079  1
  N  N331  1  0.03253503  0.25651423  0.46318221  1
  N  N332  1  0.78803141  0.90906386  0.96061611  1
  N  N333  1  0.05247163  0.92451645  0.04198339  1
  N  N334  1  0.01009784  0.92460731  0.46349268  1
  N  N335  1  0.46263618  0.92743986  0.03916526  1
  N  N336  1  0.73347025  0.75685004  0.03617927  1
  N  N337  1  0.48204294  0.41158464  0.53507043  1
  N  N338  1  0.18495852  0.57491160  0.54818976  1
  N  N339  1  0.52135939  0.74131403  0.96131250  1
  N  N340  1  0.20998509  0.09516589  0.04197527  1
  N  N341  1  0.28634778  0.90804230  0.96209635  1
  N  N342  1  0.53879228  0.92670978  0.03892381  1
  N  N343  1  0.94977592  0.74326289  0.54443336  1
  N  N344  1  0.31339669  0.75767370  0.45824620  1
  N  N345  1  0.79219124  0.57484586  0.54076840  1
  N  N346  1  0.97216004  0.74147980  0.96402660  1
  N  N347  1  0.02602822  0.74493041  0.54057207  1
  N  N348  1  0.70684858  0.09501089  0.45801630  1
  N  N349  1  0.49017015  0.59086437  0.46174139  1
  N  N350  1  0.23726590  0.91234318  0.53955285  1
  N  N351  1  0.29060707  0.75836989  0.04045201  1
  N  N352  1  0.93762288  0.40561229  0.55018141  1
  N  N353  1  0.78310608  0.09337722  0.46253709  1
  N  N354  1  0.26758774  0.42247517  0.03778419  1
  N  N355  1  0.04546213  0.59238088  0.46362271  1
  N  N356  1  0.20798493  0.44323235  0.46070076  1
  N  N357  1  0.24134127  0.57489954  0.96680684  1
  N  N358  1  0.52602137  0.07526466  0.53650502  1
  N  N359  1  0.76779582  0.57725531  0.96477261  1
  N  N360  1  0.06504794  0.05738453  0.59829557  1
  N  N361  1  0.05757698  0.39069580  0.58720878  1
  N  N362  1  0.05673933  0.72546117  0.59572350  1
  N  N363  1  0.55904529  0.05710654  0.59083469  1
  N  N364  1  0.56778786  0.38988694  0.60368686  1
  N  N365  1  0.55432918  0.72650545  0.58780180  1
  N  N366  1  0.43878742  0.27761853  0.09875316  1
  N  N367  1  0.42797597  0.61089337  0.09868222  1
  N  N368  1  0.43791032  0.94415691  0.09725897  1
  N  N369  1  0.93546315  0.27955565  0.10084745  1
  N  N370  1  0.93005821  0.60983930  0.09934509  1
  N  N371  1  0.93933408  0.93837797  0.09062810  1
  N  N372  1  0.44651123  0.05852730  0.91345980  1
  N  N373  1  0.43565666  0.38578262  0.89822951  1
  N  N374  1  0.43014274  0.72067411  0.89427913  1
  N  N375  1  0.93381564  0.05386017  0.89320177  1
  N  N376  1  0.93668839  0.39071308  0.90406652  1
  N  N377  1  0.93735384  0.72577941  0.90890849  1
  N  N378  1  0.06165078  0.27305097  0.40674922  1
  N  N379  1  0.06956400  0.61207259  0.40527736  1
  N  N380  1  0.04691212  0.94666107  0.41208285  1
  N  N381  1  0.56807489  0.27928088  0.39339766  1
  N  N382  1  0.57540964  0.61122005  0.39214687  1
  N  N383  1  0.55385086  0.94240485  0.40709976  1
  N  N384  1  0.30804527  0.22092490  0.59231571  1
  N  N385  1  0.30070894  0.56060088  0.58961229  1
  N  N386  1  0.32275791  0.88840047  0.60601878  1
  N  N387  1  0.81649886  0.21951596  0.60248499  1
  N  N388  1  0.81297382  0.55583637  0.59837490  1
  N  N389  1  0.82734893  0.88672932  0.60763204  1
  N  N390  1  0.18681789  0.11866864  0.09676986  1
  N  N391  1  0.18221006  0.44293186  0.10525849  1
  N  N392  1  0.18726639  0.77877361  0.09845800  1
  N  N393  1  0.68197411  0.11089729  0.10125872  1
  N  N394  1  0.69030473  0.44427600  0.09198897  1
  N  N395  1  0.69500989  0.77887774  0.08771387  1
  N  N396  1  0.18504932  0.22597033  0.90734948  1
  N  N397  1  0.19799582  0.55355261  0.91681620  1
  N  N398  1  0.18326200  0.88965518  0.90073546  1
  N  N399  1  0.68453765  0.22086917  0.90169165  1
  N  N400  1  0.68149898  0.55719808  0.89596450  1
  N  N401  1  0.68658740  0.89115366  0.90316674  1
  N  N402  1  0.31990660  0.11218300  0.39623007  1
  N  N403  1  0.31465894  0.44281538  0.40157186  1
  N  N404  1  0.32370062  0.77935795  0.39914046  1
  N  N405  1  0.81458252  0.11058328  0.40686977  1
  N  N406  1  0.81408662  0.44235832  0.40341311  1
  N  N407  1  0.81863228  0.77635164  0.40370271  1
  N  N408  1  0.44170115  0.27454636  0.40792732  1
  N  N409  1  0.44870089  0.61158161  0.41084504  1
  N  N410  1  0.42500962  0.94835261  0.39306927  1
  N  N411  1  0.93429703  0.27573190  0.39797518  1
  N  N412  1  0.94158885  0.60944761  0.40543476  1
  N  N413  1  0.91961749  0.94636050  0.39685203  1
  N  N414  1  0.05764319  0.05627023  0.91518400  1
  N  N415  1  0.06489427  0.39086099  0.90653663  1
  N  N416  1  0.06277691  0.72348285  0.89659671  1
  N  N417  1  0.57331221  0.05117306  0.89204918  1
  N  N418  1  0.56590238  0.38841796  0.90094578  1
  N  N419  1  0.55766860  0.71902300  0.90974002  1
  N  N420  1  0.06271745  0.27432276  0.08993566  1
  N  N421  1  0.05894482  0.61683146  0.09867035  1
  N  N422  1  0.06648497  0.94477213  0.10220110  1
  N  N423  1  0.56668648  0.27758250  0.09902846  1
  N  N424  1  0.55605593  0.60581523  0.08216007  1
  N  N425  1  0.56461903  0.94325036  0.09670812  1
  N  N426  1  0.43057676  0.05638802  0.59988434  1
  N  N427  1  0.44068532  0.39043535  0.58611374  1
  N  N428  1  0.42563607  0.72157749  0.60248016  1
  N  N429  1  0.93695628  0.06028342  0.59160123  1
  N  N430  1  0.93384770  0.38682829  0.60884965  1
  N  N431  1  0.93049725  0.72234918  0.60215531  1
  N  N432  1  0.19298208  0.10517800  0.41815957  1
  N  N433  1  0.18708048  0.44262574  0.39999163  1
  N  N434  1  0.19774766  0.77015204  0.41688873  1
  N  N435  1  0.68864436  0.11260609  0.39894237  1
  N  N436  1  0.68613654  0.44411261  0.40230492  1
  N  N437  1  0.69091842  0.77746623  0.39791083  1
  N  N438  1  0.31506425  0.22325315  0.90290111  1
  N  N439  1  0.32395263  0.55552768  0.89431823  1
  N  N440  1  0.31131641  0.89102031  0.90475979  1
  N  N441  1  0.81450204  0.22295534  0.90416571  1
  N  N442  1  0.80845775  0.55482754  0.91405090  1
  N  N443  1  0.81325329  0.89002299  0.90357269  1
  N  N444  1  0.31364097  0.10625544  0.10124288  1
  N  N445  1  0.30756635  0.44194400  0.08827575  1
  N  N446  1  0.31411844  0.77512054  0.09734014  1
  N  N447  1  0.81124645  0.10803771  0.09231137  1
  N  N448  1  0.81918779  0.44509823  0.10564742  1
  N  N449  1  0.82260135  0.77804084  0.10232712  1
  N  N450  1  0.18073619  0.21891981  0.60197047  1
  N  N451  1  0.17396350  0.55598394  0.60714893  1
  N  N452  1  0.19788296  0.88937596  0.58834843  1
  N  N453  1  0.68742460  0.22395664  0.59204619  1
  N  N454  1  0.68436483  0.55770106  0.59242926  1
  N  N455  1  0.69881277  0.88923399  0.59143720  1
  Cl  Cl456  1  0.24901800  0.04850204  0.63321034  1
  Cl  Cl457  1  0.24955614  0.39051084  0.59305939  1
  Cl  Cl458  1  0.24119700  0.72137181  0.61524032  1
  Cl  Cl459  1  0.74529227  0.05302105  0.61171842  1
  Cl  Cl460  1  0.75029619  0.38663380  0.62243987  1
  Cl  Cl461  1  0.74520938  0.71935215  0.61961597  1
  Cl  Cl462  1  0.25107856  0.27707671  0.11876141  1
  Cl  Cl463  1  0.23874429  0.60183937  0.11118142  1
  Cl  Cl464  1  0.25359380  0.95195357  0.12234475  1
  Cl  Cl465  1  0.74957551  0.28179078  0.11378221  1
  Cl  Cl466  1  0.74503679  0.61040608  0.10521871  1
  Cl  Cl467  1  0.75092399  0.94206962  0.11919064  1
  Cl  Cl468  1  0.24751891  0.06177624  0.90363126  1
  Cl  Cl469  1  0.25154396  0.39144339  0.88295280  1
  Cl  Cl470  1  0.24558723  0.71967755  0.88328581  1
  Cl  Cl471  1  0.75428390  0.05500678  0.87209945  1
  Cl  Cl472  1  0.75114972  0.39247678  0.88645873  1
  Cl  Cl473  1  0.74338680  0.72461422  0.89826933  1
  Cl  Cl474  1  0.25400966  0.28436887  0.39037560  1
  Cl  Cl475  1  0.26070735  0.61083026  0.39077466  1
  Cl  Cl476  1  0.22747627  0.93370335  0.39829008  1
  Cl  Cl477  1  0.75241849  0.28103387  0.37757227  1
  Cl  Cl478  1  0.75948398  0.61042309  0.38072191  1
  Cl  Cl479  1  0.73678191  0.94412941  0.38457278  1
  Cl  Cl480  1  -0.00218504  0.21613023  0.62153383  1
  Cl  Cl481  1  -0.00664757  0.55010820  0.63182392  1
  Cl  Cl482  1  0.01927280  0.89980364  0.60460841  1
  Cl  Cl483  1  0.49414588  0.22247398  0.60883833  1
  Cl  Cl484  1  0.48825443  0.55711274  0.59786375  1
  Cl  Cl485  1  0.51222923  0.89005852  0.61527984  1
  Cl  Cl486  1  0.00467238  0.10649708  0.10565104  1
  Cl  Cl487  1  0.00220273  0.45452809  0.13149139  1
  Cl  Cl488  1  0.00531769  0.78212360  0.12339748  1
  Cl  Cl489  1  0.49463867  0.11662018  0.11981585  1
  Cl  Cl490  1  0.49583534  0.44281258  0.11202449  1
  Cl  Cl491  1  0.50864317  0.76974092  0.10122721  1
  Cl  Cl492  1  0.00086456  0.22005199  0.88457938  1
  Cl  Cl493  1  0.00835833  0.56129992  0.90417925  1
  Cl  Cl494  1  -0.00277265  0.88804056  0.87591567  1
  Cl  Cl495  1  0.50124562  0.21816119  0.87256200  1
  Cl  Cl496  1  0.50246655  0.55148144  0.86426446  1
  Cl  Cl497  1  0.49958090  0.88350680  0.88131803  1
  Cl  Cl498  1  -0.00014819  0.10812814  0.38173278  1
  Cl  Cl499  1  0.00474540  0.44327912  0.39963394  1
  Cl  Cl500  1  0.00867180  0.77874317  0.38728625  1
  Cl  Cl501  1  0.50779692  0.10940147  0.38835557  1
  Cl  Cl502  1  0.49589815  0.44584837  0.39167293  1
  Cl  Cl503  1  0.50700846  0.77517997  0.37304394  1
  Cl  Cl504  1  0.35831881  0.14704209  0.75188033  1
  Cl  Cl505  1  0.36185082  0.48118230  0.74910543  1
  Cl  Cl506  1  0.36407722  0.81144439  0.74360298  1
  Cl  Cl507  1  0.85991690  0.14776004  0.74867506  1
  Cl  Cl508  1  0.85841455  0.48177088  0.75025537  1
  Cl  Cl509  1  0.86349785  0.80933212  0.74351848  1
  Cl  Cl510  1  0.14474227  0.18610665  0.25067589  1
  Cl  Cl511  1  0.13982855  0.51688025  0.25581475  1
  Cl  Cl512  1  0.14442812  0.84925737  0.24885937  1
  Cl  Cl513  1  0.63740781  0.18761638  0.24943159  1
  Cl  Cl514  1  0.63947056  0.51993889  0.25806883  1
  Cl  Cl515  1  0.63997324  0.84871557  0.24966873  1
  Cl  Cl516  1  0.14064899  0.14851248  0.75211501  1
  Cl  Cl517  1  0.14385853  0.47961339  0.74632537  1
  Cl  Cl518  1  0.14370518  0.81716764  0.75222703  1
  Cl  Cl519  1  0.63728012  0.14640976  0.75012519  1
  Cl  Cl520  1  0.63961047  0.48149743  0.74886588  1
  Cl  Cl521  1  0.64428407  0.81400465  0.75315344  1
  Cl  Cl522  1  0.36353316  0.18793523  0.25780522  1
  Cl  Cl523  1  0.36008574  0.51809423  0.25384824  1
  Cl  Cl524  1  0.36256237  0.85448696  0.25922022  1
  Cl  Cl525  1  0.86025299  0.18542919  0.24550493  1
  Cl  Cl526  1  0.85804924  0.52239730  0.24448503  1
  Cl  Cl527  1  0.86165846  0.85296457  0.24900709  1
  Cl  Cl528  1  0.11406617  0.31292756  0.75125723  1
  Cl  Cl529  1  0.11227487  0.64490575  0.75397140  1
  Cl  Cl530  1  0.10540806  0.98190500  0.75140311  1
  Cl  Cl531  1  0.60960953  0.31533706  0.74389518  1
  Cl  Cl532  1  0.60872990  0.64873850  0.74684104  1
  Cl  Cl533  1  0.61161090  0.98178333  0.75257067  1
  Cl  Cl534  1  0.38305144  0.02287452  0.25615235  1
  Cl  Cl535  1  0.39321680  0.35527307  0.25022406  1
  Cl  Cl536  1  0.38211187  0.68706872  0.23422661  1
  Cl  Cl537  1  0.89296062  0.02023712  0.25061751  1
  Cl  Cl538  1  0.88798174  0.35421008  0.24678176  1
  Cl  Cl539  1  0.88997236  0.68655639  0.25114681  1
  Cl  Cl540  1  0.38795572  0.31460390  0.74850308  1
  Cl  Cl541  1  0.38557457  0.64533581  0.74609776  1
  Cl  Cl542  1  0.39008580  0.98128300  0.74885770  1
  Cl  Cl543  1  0.89083027  0.31495851  0.74638560  1
  Cl  Cl544  1  0.89102935  0.64415867  0.75388760  1
  Cl  Cl545  1  0.88500159  0.97737129  0.74653872  1
  Cl  Cl546  1  0.11369779  0.01960283  0.24303868  1
  Cl  Cl547  1  0.10758793  0.35410263  0.25385808  1
  Cl  Cl548  1  0.11133124  0.68490409  0.24991069  1
  Cl  Cl549  1  0.60687801  0.01693580  0.24808517  1
  Cl  Cl550  1  0.61408077  0.35554117  0.25675250  1
  Cl  Cl551  1  0.60266639  0.68256316  0.24814468  1
