# generated using pymatgen
data_H8PbC4(N3Cl2)2
_symmetry_space_group_name_H-M   'P 1'
_cell_length_a   16.62534914
_cell_length_b   22.51680534
_cell_length_c   21.59650156
_cell_angle_alpha   89.99965232
_cell_angle_beta   90.00404010
_cell_angle_gamma   89.99960939
_symmetry_Int_Tables_number   1
_chemical_formula_structural   H8PbC4(N3Cl2)2
_chemical_formula_sum   'H192 Pb24 C96 N144 Cl96'
_cell_volume   8084.64494746
_cell_formula_units_Z   24
loop_
 _symmetry_equiv_pos_site_id
 _symmetry_equiv_pos_as_xyz
  1  'x, y, z'
loop_
 _atom_site_type_symbol
 _atom_site_label
 _atom_site_symmetry_multiplicity
 _atom_site_fract_x
 _atom_site_fract_y
 _atom_site_fract_z
 _atom_site_occupancy
  H  H0  1  -0.00342308  0.02752332  0.67917304  1
  H  H1  1  0.01549024  0.36612455  0.67936545  1
  H  H2  1  0.00909987  0.69195384  0.67550899  1
  H  H3  1  0.51049566  0.02824931  0.67841949  1
  H  H4  1  0.48116782  0.35989214  0.67869436  1
  H  H5  1  0.50327582  0.69780397  0.67933443  1
  H  H6  1  0.01996958  0.30549440  0.17151081  1
  H  H7  1  0.00741056  0.64004024  0.18079227  1
  H  H8  1  0.01341275  0.97027566  0.17592542  1
  H  H9  1  0.47855680  0.30246736  0.17908350  1
  H  H10  1  0.49903495  0.64061081  0.17769538  1
  H  H11  1  0.48915201  0.96871363  0.17613541  1
  H  H12  1  0.01444312  0.02823086  0.81949674  1
  H  H13  1  -0.01071041  0.36598611  0.82278226  1
  H  H14  1  -0.01532410  0.69733295  0.82214505  1
  H  H15  1  0.49433916  0.02999571  0.82003798  1
  H  H16  1  0.51306208  0.36456910  0.82276429  1
  H  H17  1  0.50436210  0.69648339  0.82166857  1
  H  H18  1  0.01467701  0.30432416  0.32117908  1
  H  H19  1  -0.01672810  0.63627642  0.32204496  1
  H  H20  1  -0.00197633  0.97127164  0.31876424  1
  H  H21  1  0.48865296  0.30219927  0.32419163  1
  H  H22  1  0.51373947  0.63541895  0.32185437  1
  H  H23  1  0.49697416  0.96690235  0.32002913  1
  H  H24  1  0.23352840  0.19671736  0.68114372  1
  H  H25  1  0.25611863  0.53126803  0.67496258  1
  H  H26  1  0.25806750  0.86550068  0.68287198  1
  H  H27  1  0.76485045  0.19970143  0.67605289  1
  H  H28  1  0.74676128  0.52830095  0.68196767  1
  H  H29  1  0.74313674  0.86159672  0.67554691  1
  H  H30  1  0.26316977  0.13594055  0.17980057  1
  H  H31  1  0.25544003  0.47213378  0.17881987  1
  H  H32  1  0.24200082  0.80515045  0.17622104  1
  H  H33  1  0.73160692  0.13586102  0.17432259  1
  H  H34  1  0.73815194  0.47067615  0.17814849  1
  H  H35  1  0.75786739  0.80386386  0.17857522  1
  H  H36  1  0.25287855  0.18459478  0.82625488  1
  H  H37  1  0.23916891  0.52844053  0.81815949  1
  H  H38  1  0.24456553  0.85925746  0.82601219  1
  H  H39  1  0.75255183  0.19189739  0.82573802  1
  H  H40  1  0.76491401  0.52946161  0.82280953  1
  H  H41  1  0.75494834  0.86221564  0.82670716  1
  H  H42  1  0.25326798  0.13626704  0.32144102  1
  H  H43  1  0.25263363  0.46828089  0.31488201  1
  H  H44  1  0.24610050  0.80194375  0.31958679  1
  H  H45  1  0.76016058  0.13571227  0.32089074  1
  H  H46  1  0.74874977  0.47026975  0.32022768  1
  H  H47  1  0.75736149  0.80596378  0.32028472  1
  H  H48  1  0.13110348  0.05168397  0.61801503  1
  H  H49  1  0.11233937  0.39300120  0.59144374  1
  H  H50  1  0.11154779  0.72448178  0.59083611  1
  H  H51  1  0.63165533  0.05394257  0.60398582  1
  H  H52  1  0.62247421  0.38171425  0.63025027  1
  H  H53  1  0.61794024  0.72580061  0.60265334  1
  H  H54  1  0.38198570  0.27382281  0.09134280  1
  H  H55  1  0.37693958  0.61165893  0.10636713  1
  H  H56  1  0.38436261  0.94020620  0.09082059  1
  H  H57  1  0.87411468  0.28673129  0.12968594  1
  H  H58  1  0.87150330  0.61742756  0.12082193  1
  H  H59  1  0.88158607  0.94930669  0.11572264  1
  H  H60  1  0.38012159  0.05182926  0.89744161  1
  H  H61  1  0.37930225  0.38770778  0.88441657  1
  H  H62  1  0.36699318  0.71973279  0.87852685  1
  H  H63  1  0.87798549  0.04961324  0.87958394  1
  H  H64  1  0.88453632  0.39068536  0.90689443  1
  H  H65  1  0.87182391  0.72494343  0.90112846  1
  H  H66  1  0.12063497  0.27417408  0.40541992  1
  H  H67  1  0.12069385  0.61520783  0.38041487  1
  H  H68  1  0.12769987  0.94748857  0.38580168  1
  H  H69  1  0.62698754  0.28123853  0.37997214  1
  H  H70  1  0.61551101  0.60752611  0.41006994  1
  H  H71  1  0.63210614  0.94914828  0.37992990  1
  H  H72  1  0.37324773  0.21539666  0.62570239  1
  H  H73  1  0.37682293  0.55265442  0.60068527  1
  H  H74  1  0.36921859  0.89017132  0.60327288  1
  H  H75  1  0.86813135  0.22603316  0.59187283  1
  H  H76  1  0.88164901  0.55249353  0.62128810  1
  H  H77  1  0.87097703  0.88586482  0.60850464  1
  H  H78  1  0.12710318  0.11669827  0.11945006  1
  H  H79  1  0.12565767  0.44709448  0.11295962  1
  H  H80  1  0.13406241  0.77895036  0.09577630  1
  H  H81  1  0.62740012  0.10699419  0.09046072  1
  H  H82  1  0.62049488  0.44440856  0.10298778  1
  H  H83  1  0.63307918  0.78057597  0.11161003  1
  H  H84  1  0.12781259  0.22220417  0.88910392  1
  H  H85  1  0.12714821  0.55400566  0.89741201  1
  H  H86  1  0.12420497  0.88742407  0.89855752  1
  H  H87  1  0.62763499  0.21679846  0.89438107  1
  H  H88  1  0.62641467  0.55036893  0.88003044  1
  H  H89  1  0.62030879  0.88649771  0.88526282  1
  H  H90  1  0.37057274  0.10982881  0.39605271  1
  H  H91  1  0.37551336  0.44647929  0.38583628  1
  H  H92  1  0.38333916  0.78270480  0.37804437  1
  H  H93  1  0.86983221  0.10985383  0.40438385  1
  H  H94  1  0.87801156  0.44715349  0.38545824  1
  H  H95  1  0.88258376  0.78088831  0.38984948  1
  H  H96  1  0.38061553  0.27195387  0.40491868  1
  H  H97  1  0.37271630  0.61646473  0.37329619  1
  H  H98  1  0.38401867  0.94613603  0.39819408  1
  H  H99  1  0.87588745  0.28383518  0.37662331  1
  H  H100  1  0.87529010  0.60783883  0.40621661  1
  H  H101  1  0.87938754  0.94593933  0.39581996  1
  H  H102  1  0.12474308  0.05563510  0.90276320  1
  H  H103  1  0.12888504  0.38318526  0.87295352  1
  H  H104  1  0.11942168  0.71987593  0.88230780  1
  H  H105  1  0.62857301  0.04882412  0.88090766  1
  H  H106  1  0.62657666  0.38943314  0.90368637  1
  H  H107  1  0.61241948  0.72580810  0.90431823  1
  H  H108  1  0.11337068  0.27128487  0.08226794  1
  H  H109  1  0.11919805  0.61095567  0.10158434  1
  H  H110  1  0.12988569  0.94355931  0.10003521  1
  H  H111  1  0.62356668  0.28791365  0.13380819  1
  H  H112  1  0.62485168  0.61246570  0.11016905  1
  H  H113  1  0.62934840  0.95177516  0.12244359  1
  H  H114  1  0.38371060  0.05376594  0.61059330  1
  H  H115  1  0.37838216  0.39161639  0.59325158  1
  H  H116  1  0.36994766  0.71905513  0.61621777  1
  H  H117  1  0.88424555  0.05529687  0.59794341  1
  H  H118  1  0.87032697  0.38043421  0.63398172  1
  H  H119  1  0.86780970  0.71576021  0.62706594  1
  H  H120  1  0.12121963  0.11496805  0.38609832  1
  H  H121  1  0.12591141  0.44736960  0.38246540  1
  H  H122  1  0.13578017  0.77602795  0.40039926  1
  H  H123  1  0.62395623  0.11376270  0.37873402  1
  H  H124  1  0.62973465  0.44332553  0.39578900  1
  H  H125  1  0.63359192  0.78196665  0.39293079  1
  H  H126  1  0.37623049  0.21936492  0.89225801  1
  H  H127  1  0.37477230  0.54954136  0.87465915  1
  H  H128  1  0.37312514  0.88705550  0.89117984  1
  H  H129  1  0.87643025  0.22353697  0.89381031  1
  H  H130  1  0.87187728  0.55730166  0.90768693  1
  H  H131  1  0.86779294  0.88925883  0.90454693  1
  H  H132  1  0.37496400  0.10770200  0.10051003  1
  H  H133  1  0.37445818  0.44308411  0.10625890  1
  H  H134  1  0.38097640  0.78645375  0.12210498  1
  H  H135  1  0.87138647  0.11799363  0.12516748  1
  H  H136  1  0.86893365  0.45133413  0.11585003  1
  H  H137  1  0.88242238  0.78177324  0.10823654  1
  H  H138  1  0.12740459  0.22604590  0.59774675  1
  H  H139  1  0.12895807  0.55836413  0.60963602  1
  H  H140  1  0.12163652  0.88135132  0.62541239  1
  H  H141  1  0.62345059  0.21469910  0.62495845  1
  H  H142  1  0.63388531  0.55577661  0.60282653  1
  H  H143  1  0.62187984  0.89020068  0.60412661  1
  H  H144  1  0.04264675  0.25095411  0.50533959  1
  H  H145  1  0.19052422  0.58333115  1.00398036  1
  H  H146  1  0.20090018  0.74975758  -0.01030711  1
  H  H147  1  0.83724069  0.75291505  0.49931033  1
  H  H148  1  0.38992101  0.74985366  0.98812697  1
  H  H149  1  0.41607974  0.41369700  0.99247413  1
  H  H150  1  0.35686127  0.75466748  0.48619450  1
  H  H151  1  0.05128409  0.58124157  -0.00316884  1
  H  H152  1  0.79741437  0.07812367  0.50215608  1
  H  H153  1  0.55599312  0.75845226  0.49757729  1
  H  H154  1  0.91191130  0.91533628  0.00314686  1
  H  H155  1  0.02510126  0.24925483  -0.01356792  1
  H  H156  1  0.79558886  0.25361290  0.48768848  1
  H  H157  1  0.15759055  0.08433717  0.49150689  1
  H  H158  1  0.57763293  0.07965522  0.50143611  1
  H  H159  1  0.31521442  0.24267657  0.99701929  1
  H  H160  1  0.53391004  0.58279093  0.50719071  1
  H  H161  1  0.32766858  0.42405523  0.49838310  1
  H  H162  1  0.85812925  0.08333877  1.01081110  1
  H  H163  1  0.18533179  0.24316560  0.99562940  1
  H  H164  1  0.03203036  0.75073721  0.49243194  1
  H  H165  1  0.45695682  0.41102086  0.49383104  1
  H  H166  1  0.44628132  0.92047998  0.50821859  1
  H  H167  1  0.64892790  0.91794942  0.99363833  1
  H  H168  1  0.67621960  0.74890976  -0.00010479  1
  H  H169  1  0.32517164  0.58993952  0.50240499  1
  H  H170  1  0.69949249  0.58562558  0.49816014  1
  H  H171  1  0.60894111  0.41617351  0.51788285  1
  H  H172  1  0.16715999  0.42200468  0.49497372  1
  H  H173  1  0.66727104  0.25248924  1.00273010  1
  H  H174  1  0.03078456  0.41837556  0.48896410  1
  H  H175  1  0.14461191  0.91263182  0.51259889  1
  H  H176  1  0.46382130  0.24795191  -0.01036881  1
  H  H177  1  0.57821820  0.58356365  0.00566464  1
  H  H178  1  0.84206974  0.41651131  0.49662136  1
  H  H179  1  0.35102682  0.58047875  0.98750723  1
  H  H180  1  0.44072482  0.07803599  1.00744155  1
  H  H181  1  0.60758299  0.25003715  0.48957747  1
  H  H182  1  0.31457822  0.08050707  0.50431310  1
  H  H183  1  0.30643359  0.07452257  -0.00337718  1
  H  H184  1  0.44878346  0.24218247  0.50922681  1
  H  H185  1  0.20192878  0.74920219  0.50650206  1
  H  H186  1  0.83581101  0.42094089  0.00266286  1
  H  H187  1  0.17174207  0.57494931  0.50242682  1
  H  H188  1  0.20213854  0.25428167  0.49510322  1
  H  H189  1  0.30493090  0.91785584  0.49590599  1
  H  H190  1  0.11397638  0.41199886  -0.01083858  1
  H  H191  1  0.83201849  0.25026413  0.99970554  1
  Pb  Pb192  1  0.24978856  0.04576791  0.75321329  1
  Pb  Pb193  1  0.25595101  0.38320385  0.73840254  1
  Pb  Pb194  1  0.24554174  0.71464510  0.74266068  1
  Pb  Pb195  1  0.75235321  0.04750364  0.74083818  1
  Pb  Pb196  1  0.74837444  0.37992001  0.76304854  1
  Pb  Pb197  1  0.75132871  0.71563418  0.75593378  1
  Pb  Pb198  1  0.24634561  0.28330405  0.24845367  1
  Pb  Pb199  1  0.24978202  0.61944215  0.24688775  1
  Pb  Pb200  1  0.25302688  0.95261733  0.24800262  1
  Pb  Pb201  1  0.75161997  0.28625432  0.24854264  1
  Pb  Pb202  1  0.74917967  0.61978316  0.26064816  1
  Pb  Pb203  1  0.75342404  0.95306643  0.24741787  1
  Pb  Pb204  1  0.00477377  0.21827164  0.74282947  1
  Pb  Pb205  1  -0.00021677  0.54615710  0.75804459  1
  Pb  Pb206  1  -0.00245737  0.87900021  0.75710849  1
  Pb  Pb207  1  0.50025662  0.21157623  0.75358590  1
  Pb  Pb208  1  0.50494651  0.55083949  0.74391530  1
  Pb  Pb209  1  0.49937248  0.88095704  0.74649325  1
  Pb  Pb210  1  -0.00039260  0.11930757  0.25241081  1
  Pb  Pb211  1  -0.00116677  0.45382739  0.24730013  1
  Pb  Pb212  1  0.00295269  0.78600211  0.25358667  1
  Pb  Pb213  1  0.50115151  0.11899164  0.24575121  1
  Pb  Pb214  1  0.50070338  0.45117540  0.25113751  1
  Pb  Pb215  1  0.50375879  0.78685834  0.25266935  1
  C  C216  1  0.00390992  0.04393226  0.63223739  1
  C  C217  1  -0.00064276  0.37950212  0.63271588  1
  C  C218  1  -0.00365216  0.70915696  0.62961567  1
  C  C219  1  0.50902440  0.04473006  0.63123509  1
  C  C220  1  0.49381952  0.37639599  0.63225097  1
  C  C221  1  0.49664894  0.71350022  0.63204963  1
  C  C222  1  0.00260227  0.28956640  0.12599875  1
  C  C223  1  -0.00072622  0.62388773  0.13389177  1
  C  C224  1  0.00761134  0.95467800  0.12871124  1
  C  C225  1  0.49484391  0.28836109  0.13270685  1
  C  C226  1  0.50032714  0.62245199  0.13120210  1
  C  C227  1  0.50083843  0.95406719  0.12928076  1
  C  C228  1  0.00599519  0.04397429  0.86656951  1
  C  C229  1  0.00202956  0.37990482  0.86976307  1
  C  C230  1  -0.00775437  0.71317087  0.86905550  1
  C  C231  1  0.50081193  0.04348932  0.86789487  1
  C  C232  1  0.50604819  0.37967181  0.87018571  1
  C  C233  1  0.49418652  0.71256775  0.86837040  1
  C  C234  1  0.00414439  0.28874453  0.36801117  1
  C  C235  1  -0.00713633  0.62033071  0.36894941  1
  C  C236  1  0.00164636  0.95553433  0.36620481  1
  C  C237  1  0.49934771  0.28585448  0.37094412  1
  C  C238  1  0.50089834  0.62071805  0.36867656  1
  C  C239  1  0.50429285  0.95395134  0.36794124  1
  C  C240  1  0.24508722  0.21227458  0.63441044  1
  C  C241  1  0.25395844  0.54756116  0.62753233  1
  C  C242  1  0.24919383  0.87941267  0.63517954  1
  C  C243  1  0.75222411  0.21326552  0.62881157  1
  C  C244  1  0.75427141  0.54488156  0.63519888  1
  C  C245  1  0.74544504  0.87924544  0.62907578  1
  C  C246  1  0.25490943  0.12007673  0.13277690  1
  C  C247  1  0.25151443  0.45430734  0.13249661  1
  C  C248  1  0.25215457  0.79009916  0.12914054  1
  C  C249  1  0.74454863  0.12001663  0.12800192  1
  C  C250  1  0.74316164  0.45575892  0.13071511  1
  C  C251  1  0.75719643  0.78871151  0.13104894  1
  C  C252  1  0.25223314  0.20689487  0.87089909  1
  C  C253  1  0.24741243  0.54395450  0.86536767  1
  C  C254  1  0.24746001  0.87766478  0.87215480  1
  C  C255  1  0.75262210  0.20993776  0.87249046  1
  C  C256  1  0.75447672  0.54508633  0.86974842  1
  C  C257  1  0.74716616  0.87914861  0.87330113  1
  C  C258  1  0.24781568  0.12003137  0.36870882  1
  C  C259  1  0.25133482  0.45413586  0.36296706  1
  C  C260  1  0.25580986  0.78694938  0.36686105  1
  C  C261  1  0.75169961  0.12000472  0.36787458  1
  C  C262  1  0.75210568  0.45431377  0.36754246  1
  C  C263  1  0.75779537  0.78966281  0.36751182  1
  C  C264  1  0.76619601  0.24080574  0.53067747  1
  C  C265  1  0.92787229  0.26190409  0.04602329  1
  C  C266  1  0.27328689  0.90621353  0.53825901  1
  C  C267  1  0.71643774  0.76033685  0.03772476  1
  C  C268  1  0.23229960  0.75971637  0.46315883  1
  C  C269  1  0.55515517  0.06761249  0.95768719  1
  C  C270  1  0.47893379  0.92987030  0.46564515  1
  C  C271  1  0.02052636  0.59375937  0.03940558  1
  C  C272  1  0.77466186  0.91103592  0.96858630  1
  C  C273  1  0.31356086  0.76477427  0.04244571  1
  C  C274  1  0.47410627  0.06843722  0.96524036  1
  C  C275  1  0.20782271  0.43116482  0.45677420  1
  C  C276  1  0.23016185  0.24177008  0.53882115  1
  C  C277  1  0.52234110  0.74437605  0.53829162  1
  C  C278  1  0.71081698  0.24035925  0.96448269  1
  C  C279  1  0.55994756  0.93090080  0.45733769  1
  C  C280  1  0.47880780  0.25474624  0.46640769  1
  C  C281  1  0.96854485  0.74420506  0.96313066  1
  C  C282  1  0.06448694  0.40379424  0.95703447  1
  C  C283  1  0.79199731  0.42998126  0.03894138  1
  C  C284  1  0.72773739  0.08888049  0.03189771  1
  C  C285  1  0.55947735  0.40655402  0.54959594  1
  C  C286  1  0.03841432  0.92475867  0.03430387  1
  C  C287  1  0.22265756  0.57196687  0.96179076  1
  C  C288  1  0.23298940  0.76156474  0.03195228  1
  C  C289  1  0.27993284  0.09184766  0.46323676  1
  C  C290  1  0.27593701  0.08872517  0.03872543  1
  C  C291  1  0.19181993  0.90347288  0.54625408  1
  C  C292  1  0.28991200  0.43148683  0.45810980  1
  C  C293  1  0.56797689  0.26585175  0.05033054  1
  C  C294  1  0.48912012  0.26064397  0.03421095  1
  C  C295  1  0.79637908  0.42734427  0.45880135  1
  C  C296  1  0.28394426  0.42227780  0.03980714  1
  C  C297  1  0.56013769  0.92967251  0.04275380  1
  C  C298  1  0.00577362  0.40654445  0.53385290  1
  C  C299  1  0.98410097  0.40629325  0.96725259  1
  C  C300  1  0.68628951  0.23626233  0.54326813  1
  C  C301  1  0.73131781  0.57408115  0.54063673  1
  C  C302  1  0.71049703  0.42768517  0.03592967  1
  C  C303  1  0.30413914  0.57066371  0.95379195  1
  C  C304  1  0.71197562  0.91250307  0.53771244  1
  C  C305  1  0.21528573  0.91179870  0.96346418  1
  C  C306  1  0.92974697  0.74018681  0.54695273  1
  C  C307  1  0.80817617  0.09228345  0.04234921  1
  C  C308  1  0.95693232  0.92614848  0.03834743  1
  C  C309  1  0.92724806  0.40182603  0.55016764  1
  C  C310  1  0.79805041  0.76149989  0.03801256  1
  C  C311  1  0.79612983  0.76269209  0.46015781  1
  N  N312  1  0.69216718  0.09224210  0.45450308  1
  N  N313  1  0.29214050  0.25360373  0.95409450  1
  N  N314  1  0.81017327  0.57321229  0.54655333  1
  N  N315  1  0.54134543  0.07236929  0.53923797  1
  N  N316  1  0.20048463  0.09373744  0.45845510  1
  N  N317  1  0.53555917  0.40730949  0.96567602  1
  N  N318  1  0.71711656  0.42630927  0.46257610  1
  N  N319  1  0.76970286  0.09164231  0.46192841  1
  N  N320  1  0.53924341  0.59047854  0.04207303  1
  N  N321  1  0.29247713  0.91181167  0.96242125  1
  N  N322  1  0.79056615  0.24218901  0.96304045  1
  N  N323  1  0.00731380  0.74268967  0.53556120  1
  N  N324  1  0.04667442  0.92682191  0.45720372  1
  N  N325  1  0.94129536  0.26190906  0.45331396  1
  N  N326  1  0.69694975  0.57267813  0.95707855  1
  N  N327  1  0.95199200  0.07176019  0.95484459  1
  N  N328  1  0.94197878  0.59564556  0.04578582  1
  N  N329  1  0.46291653  0.07172454  0.53950569  1
  N  N330  1  0.20620206  0.42345536  0.04123902  1
  N  N331  1  0.69625462  0.90953475  0.96074411  1
  N  N332  1  0.45798089  0.40665305  0.95824654  1
  N  N333  1  0.97337521  0.58888532  0.46456366  1
  N  N334  1  0.51086136  0.59183731  0.46343582  1
  N  N335  1  0.48411674  0.92524477  0.03132242  1
  N  N336  1  0.21024925  0.25408417  0.95322196  1
  N  N337  1  0.97056269  0.92626423  0.46051964  1
  N  N338  1  0.31104303  0.76110731  0.45409287  1
  N  N339  1  0.46077875  0.59200782  0.03897314  1
  N  N340  1  0.00419667  0.25672133  0.03105971  1
  N  N341  1  0.02732941  0.07364470  0.96243906  1
  N  N342  1  0.71686907  0.76218267  0.46129005  1
  N  N343  1  0.28854805  0.56708187  0.53285513  1
  N  N344  1  0.48117635  0.40965686  0.53769555  1
  N  N345  1  0.30855479  0.23821121  0.54789969  1
  N  N346  1  0.43930154  0.74009412  0.95432433  1
  N  N347  1  0.78943944  0.91138354  0.53775775  1
  N  N348  1  0.05591824  0.07266972  0.54334076  1
  N  N349  1  0.55747149  0.25820876  0.45699205  1
  N  N350  1  0.01844710  0.25838718  0.46190370  1
  N  N351  1  0.04917081  0.59135212  0.45636237  1
  N  N352  1  0.44329048  0.74161393  0.54248960  1
  N  N353  1  0.97983095  0.07410859  0.53697201  1
  N  N354  1  0.51646159  0.74239338  0.96410043  1
  N  N355  1  0.04557463  0.74242684  0.95864979  1
  N  N356  1  0.21061667  0.58076207  0.53917796  1
  N  N357  1  0.77254561  0.57517925  0.96590615  1
  N  N358  1  0.43412258  0.59596862  0.45302598  1
  N  N359  1  0.19723407  0.09176339  0.04484735  1
  N  N360  1  0.07216550  0.05417922  0.60248157  1
  N  N361  1  0.05026558  0.39232148  0.58688893  1
  N  N362  1  0.04940554  0.72089405  0.58575893  1
  N  N363  1  0.57069210  0.05502047  0.59415738  1
  N  N364  1  0.56709503  0.38778843  0.60856805  1
  N  N365  1  0.55637622  0.72700232  0.59272372  1
  N  N366  1  0.44418947  0.27509094  0.08687896  1
  N  N367  1  0.43747786  0.60973344  0.09547221  1
  N  N368  1  0.44688644  0.94109980  0.08652887  1
  N  N369  1  0.92696533  0.28074086  0.10533001  1
  N  N370  1  0.93037044  0.61443352  0.10458764  1
  N  N371  1  0.93926655  0.94480038  0.09812295  1
  N  N372  1  0.44111255  0.05329010  0.90800462  1
  N  N373  1  0.43843406  0.38867242  0.90089358  1
  N  N374  1  0.42470451  0.72115720  0.89653813  1
  N  N375  1  0.93702300  0.05418652  0.89530372  1
  N  N376  1  0.94636704  0.39198760  0.91456465  1
  N  N377  1  0.93306743  0.72658080  0.90956808  1
  N  N378  1  0.05842631  0.27720258  0.41118268  1
  N  N379  1  0.06232711  0.61055676  0.39702398  1
  N  N380  1  0.06759788  0.94462482  0.39874652  1
  N  N381  1  0.56935715  0.27777876  0.39841340  1
  N  N382  1  0.55301891  0.60928742  0.41336468  1
  N  N383  1  0.57456149  0.94523519  0.39835560  1
  N  N384  1  0.31569410  0.22018766  0.60741557  1
  N  N385  1  0.31623634  0.55868324  0.59114868  1
  N  N386  1  0.30769096  0.89118716  0.59405888  1
  N  N387  1  0.80637650  0.22594652  0.58527873  1
  N  N388  1  0.82264964  0.55513126  0.60546999  1
  N  N389  1  0.81053137  0.89064128  0.59602630  1
  N  N390  1  0.18597920  0.11063593  0.10363898  1
  N  N391  1  0.18590102  0.44323855  0.10007924  1
  N  N392  1  0.19574163  0.77747894  0.08743071  1
  N  N393  1  0.68937819  0.10572830  0.08350026  1
  N  N394  1  0.68128338  0.44301485  0.09147485  1
  N  N395  1  0.69231151  0.77745042  0.09668963  1
  N  N396  1  0.18779649  0.22210160  0.90312962  1
  N  N397  1  0.18863201  0.55536211  0.90629568  1
  N  N398  1  0.18468060  0.89130959  0.90917637  1
  N  N399  1  0.68745064  0.22090632  0.90777148  1
  N  N400  1  0.68456319  0.55419742  0.89734800  1
  N  N401  1  0.67883546  0.88979292  0.90212016  1
  N  N402  1  0.30967623  0.10799069  0.40740296  1
  N  N403  1  0.31566239  0.44553896  0.39946835  1
  N  N404  1  0.32522879  0.77826875  0.39501570  1
  N  N405  1  0.80753740  0.10801665  0.40959002  1
  N  N406  1  0.81877868  0.44424150  0.40058448  1
  N  N407  1  0.82260511  0.77875989  0.40257521  1
  N  N408  1  0.44210505  0.27174936  0.41305899  1
  N  N409  1  0.42873091  0.61183856  0.39333005  1
  N  N410  1  0.44511717  0.94432286  0.40858888  1
  N  N411  1  0.93319214  0.27904136  0.39457857  1
  N  N412  1  0.93723664  0.60709184  0.41074752  1
  N  N413  1  0.94113466  0.94409641  0.40430059  1
  N  N414  1  0.06255367  0.05596297  0.90802551  1
  N  N415  1  0.07413181  0.38753731  0.89540593  1
  N  N416  1  0.06051854  0.72267243  0.89860154  1
  N  N417  1  0.57070710  0.05277980  0.89889556  1
  N  N418  1  0.56494807  0.39114715  0.91037320  1
  N  N419  1  0.55022709  0.72573815  0.91022519  1
  N  N420  1  0.05142485  0.27709569  0.07950586  1
  N  N421  1  0.05757822  0.61086547  0.09309657  1
  N  N422  1  0.06883383  0.94181418  0.08891128  1
  N  N423  1  0.57034826  0.28221909  0.10995334  1
  N  N424  1  0.56451354  0.61122171  0.09704729  1
  N  N425  1  0.57305826  0.94680076  0.10258727  1
  N  N426  1  0.44367633  0.05565418  0.59734516  1
  N  N427  1  0.44067368  0.38713240  0.58791544  1
  N  N428  1  0.42885689  0.72245321  0.60140678  1
  N  N429  1  0.94631400  0.05637172  0.59187748  1
  N  N430  1  0.92383652  0.38573317  0.60988658  1
  N  N431  1  0.92284283  0.72068270  0.60550704  1
  N  N432  1  0.18092709  0.11063181  0.40012951  1
  N  N433  1  0.18534089  0.44506946  0.39736165  1
  N  N434  1  0.19773536  0.77521525  0.40883758  1
  N  N435  1  0.68176243  0.11013094  0.39603684  1
  N  N436  1  0.69117768  0.44314348  0.40526052  1
  N  N437  1  0.69487802  0.77917108  0.40349372  1
  N  N438  1  0.31570079  0.22107351  0.90472482  1
  N  N439  1  0.31784630  0.55356665  0.89372087  1
  N  N440  1  0.31287801  0.89022663  0.90430268  1
  N  N441  1  0.81610482  0.22239529  0.90690498  1
  N  N442  1  0.80953228  0.55780044  0.91214306  1
  N  N443  1  0.80653816  0.89248685  0.91431982  1
  N  N444  1  0.31312756  0.10628359  0.09216759  1
  N  N445  1  0.31361460  0.44057938  0.09507111  1
  N  N446  1  0.32452073  0.78170152  0.10169065  1
  N  N447  1  0.81686707  0.11148124  0.10313217  1
  N  N448  1  0.81095967  0.44718882  0.09891130  1
  N  N449  1  0.82249167  0.77845889  0.09439610  1
  N  N450  1  0.18975235  0.22606644  0.59148812  1
  N  N451  1  0.18849148  0.55722229  0.59424039  1
  N  N452  1  0.17851922  0.88700257  0.60656513  1
  N  N453  1  0.67852000  0.21990597  0.60293243  1
  N  N454  1  0.69539316  0.55707473  0.59460905  1
  N  N455  1  0.68219240  0.89319556  0.59266826  1
  Cl  Cl456  1  0.25706813  0.05703210  0.61714998  1
  Cl  Cl457  1  0.24973596  0.39503233  0.60249000  1
  Cl  Cl458  1  0.23689214  0.72218154  0.60615358  1
  Cl  Cl459  1  0.75925062  0.05747261  0.60208376  1
  Cl  Cl460  1  0.74483109  0.38237284  0.63359878  1
  Cl  Cl461  1  0.73977264  0.72200215  0.62390390  1
  Cl  Cl462  1  0.24563369  0.26662332  0.09557284  1
  Cl  Cl463  1  0.24742993  0.60779315  0.11371360  1
  Cl  Cl464  1  0.25676723  0.94268410  0.11598601  1
  Cl  Cl465  1  0.75032238  0.27853349  0.11621725  1
  Cl  Cl466  1  0.74490755  0.61459330  0.12899077  1
  Cl  Cl467  1  0.75422077  0.94434718  0.11405539  1
  Cl  Cl468  1  0.25202312  0.05765018  0.88844633  1
  Cl  Cl469  1  0.25982867  0.38944756  0.87063253  1
  Cl  Cl470  1  0.24349250  0.72329658  0.87471748  1
  Cl  Cl471  1  0.75359527  0.04881905  0.87235394  1
  Cl  Cl472  1  0.75567775  0.38863578  0.89882382  1
  Cl  Cl473  1  0.74004008  0.72646417  0.89127046  1
  Cl  Cl474  1  0.24317236  0.27214930  0.38513091  1
  Cl  Cl475  1  0.24525834  0.61289441  0.38390001  1
  Cl  Cl476  1  0.25640115  0.94666824  0.38416727  1
  Cl  Cl477  1  0.75136235  0.28017124  0.38037401  1
  Cl  Cl478  1  0.73993772  0.60803788  0.39700420  1
  Cl  Cl479  1  0.75786173  0.95050049  0.37893610  1
  Cl  Cl480  1  0.00395662  0.22821827  0.60431756  1
  Cl  Cl481  1  0.00866402  0.55700460  0.62692876  1
  Cl  Cl482  1  -0.00670776  0.87711756  0.62615498  1
  Cl  Cl483  1  0.49704934  0.21908584  0.61988302  1
  Cl  Cl484  1  0.50636750  0.55707714  0.60159402  1
  Cl  Cl485  1  0.49490524  0.89012235  0.61148807  1
  Cl  Cl486  1  0.00349870  0.12335631  0.12539785  1
  Cl  Cl487  1  -0.00006918  0.44657475  0.11717652  1
  Cl  Cl488  1  0.00884236  0.78159178  0.12262576  1
  Cl  Cl489  1  0.50082077  0.10949599  0.11165428  1
  Cl  Cl490  1  0.49531216  0.44345447  0.11767303  1
  Cl  Cl491  1  0.50634157  0.78121286  0.12552983  1
  Cl  Cl492  1  0.00469712  0.22893588  0.89050120  1
  Cl  Cl493  1  -0.00071244  0.55604997  0.89351854  1
  Cl  Cl494  1  -0.00582325  0.88661025  0.89249533  1
  Cl  Cl495  1  0.49951485  0.21839742  0.88768519  1
  Cl  Cl496  1  0.50268622  0.55311543  0.87658652  1
  Cl  Cl497  1  0.49674342  0.88628087  0.87679962  1
  Cl  Cl498  1  -0.00655645  0.11625190  0.38726934  1
  Cl  Cl499  1  0.00247270  0.44322055  0.38201053  1
  Cl  Cl500  1  0.01250537  0.77310895  0.39563226  1
  Cl  Cl501  1  0.49753845  0.11224758  0.38101477  1
  Cl  Cl502  1  0.50217933  0.43896112  0.39229204  1
  Cl  Cl503  1  0.50982425  0.78068553  0.38883683  1
  Cl  Cl504  1  0.35785720  0.14902895  0.74705890  1
  Cl  Cl505  1  0.35904195  0.47893062  0.74561249  1
  Cl  Cl506  1  0.36071996  0.81298293  0.74991335  1
  Cl  Cl507  1  0.85831824  0.15029213  0.75220231  1
  Cl  Cl508  1  0.86038401  0.47972032  0.74578928  1
  Cl  Cl509  1  0.85489323  0.81380166  0.75340844  1
  Cl  Cl510  1  0.14183096  0.18656274  0.24913420  1
  Cl  Cl511  1  0.14095596  0.51684451  0.25018467  1
  Cl  Cl512  1  0.14303297  0.85058129  0.25321387  1
  Cl  Cl513  1  0.64289434  0.18432445  0.25191476  1
  Cl  Cl514  1  0.63973156  0.51658212  0.25287822  1
  Cl  Cl515  1  0.64257363  0.85226502  0.25417739  1
  Cl  Cl516  1  0.13766202  0.14789509  0.75536707  1
  Cl  Cl517  1  0.13950104  0.48110215  0.74729508  1
  Cl  Cl518  1  0.13884584  0.81675448  0.74918739  1
  Cl  Cl519  1  0.64084103  0.14871044  0.74475016  1
  Cl  Cl520  1  0.63921687  0.48236997  0.75359100  1
  Cl  Cl521  1  0.63693239  0.81543646  0.75390400  1
  Cl  Cl522  1  0.35993936  0.18391517  0.25239966  1
  Cl  Cl523  1  0.36340606  0.51938889  0.25289865  1
  Cl  Cl524  1  0.36358009  0.85070136  0.25126161  1
  Cl  Cl525  1  0.86303377  0.18689910  0.24506014  1
  Cl  Cl526  1  0.86056815  0.51899131  0.24688381  1
  Cl  Cl527  1  0.86274492  0.85094143  0.24902729  1
  Cl  Cl528  1  0.10872328  0.31303324  0.75528002  1
  Cl  Cl529  1  0.10998498  0.64793374  0.75570592  1
  Cl  Cl530  1  0.10965894  0.98017967  0.74550798  1
  Cl  Cl531  1  0.60858642  0.31456103  0.74948549  1
  Cl  Cl532  1  0.59989076  0.64953226  0.75096226  1
  Cl  Cl533  1  0.61202497  0.98183791  0.75145573  1
  Cl  Cl534  1  0.39441372  0.01564301  0.24918819  1
  Cl  Cl535  1  0.38915496  0.35066006  0.25558933  1
  Cl  Cl536  1  0.38741677  0.68738813  0.25557803  1
  Cl  Cl537  1  0.89159189  0.01896419  0.24061662  1
  Cl  Cl538  1  0.88948211  0.35148001  0.24982456  1
  Cl  Cl539  1  0.89001190  0.68571237  0.24854394  1
  Cl  Cl540  1  0.38939137  0.31320689  0.75374784  1
  Cl  Cl541  1  0.37927230  0.64313550  0.74329546  1
  Cl  Cl542  1  0.39167380  0.98443389  0.74344681  1
  Cl  Cl543  1  0.88951647  0.31625395  0.75223308  1
  Cl  Cl544  1  0.88754930  0.64741962  0.74623352  1
  Cl  Cl545  1  0.88901176  0.98162657  0.75124301  1
  Cl  Cl546  1  0.11276251  0.01917445  0.25094954  1
  Cl  Cl547  1  0.11101285  0.35204545  0.24687254  1
  Cl  Cl548  1  0.11170494  0.68367129  0.25769057  1
  Cl  Cl549  1  0.61606469  0.02005645  0.25368503  1
  Cl  Cl550  1  0.61157093  0.35039409  0.25075143  1
  Cl  Cl551  1  0.60694149  0.68219142  0.25171682  1
