# generated using pymatgen
data_H8PbC4(N3Cl2)2
_symmetry_space_group_name_H-M   'P 1'
_cell_length_a   16.63800218
_cell_length_b   22.53629465
_cell_length_c   21.60572706
_cell_angle_alpha   90.00152961
_cell_angle_beta   89.99351225
_cell_angle_gamma   90.01546941
_symmetry_Int_Tables_number   1
_chemical_formula_structural   H8PbC4(N3Cl2)2
_chemical_formula_sum   'H192 Pb24 C96 N144 Cl96'
_cell_volume   8101.25972206
_cell_formula_units_Z   24
loop_
 _symmetry_equiv_pos_site_id
 _symmetry_equiv_pos_as_xyz
  1  'x, y, z'
loop_
 _atom_site_type_symbol
 _atom_site_label
 _atom_site_symmetry_multiplicity
 _atom_site_fract_x
 _atom_site_fract_y
 _atom_site_fract_z
 _atom_site_occupancy
  H  H0  1  0.00597033  0.02881446  0.68304084  1
  H  H1  1  0.00643451  0.37336354  0.68653257  1
  H  H2  1  -0.00115432  0.69358874  0.68351959  1
  H  H3  1  0.49125712  0.02866157  0.66990201  1
  H  H4  1  0.49104723  0.36469870  0.67618283  1
  H  H5  1  0.50482836  0.69557607  0.67420687  1
  H  H6  1  0.00787446  0.30955878  0.17763376  1
  H  H7  1  -0.02970033  0.64258204  0.15246359  1
  H  H8  1  0.01464720  0.97033851  0.17529194  1
  H  H9  1  0.48753681  0.30508737  0.17688751  1
  H  H10  1  0.48903159  0.63680042  0.17752220  1
  H  H11  1  0.50283480  0.97543692  0.18385637  1
  H  H12  1  0.00783206  0.01996887  0.82314818  1
  H  H13  1  0.00118565  0.35693574  0.82297137  1
  H  H14  1  0.02363889  0.69535972  0.82347676  1
  H  H15  1  0.49587557  0.03117310  0.82049511  1
  H  H16  1  0.50193999  0.35653978  0.82333605  1
  H  H17  1  0.48872343  0.68654512  0.82398513  1
  H  H18  1  0.00419762  0.30350463  0.31735524  1
  H  H19  1  0.01468457  0.63392856  0.32269886  1
  H  H20  1  0.01849415  0.96546391  0.31398152  1
  H  H21  1  0.50135000  0.31135531  0.33008940  1
  H  H22  1  0.49495589  0.64059045  0.31944499  1
  H  H23  1  0.48089171  0.97155497  0.32231316  1
  H  H24  1  0.24597151  0.19895291  0.67503617  1
  H  H25  1  0.27393278  0.53063122  0.67739812  1
  H  H26  1  0.24595250  0.85558177  0.67916536  1
  H  H27  1  0.73861773  0.20522599  0.68471115  1
  H  H28  1  0.73728342  0.53178901  0.67623776  1
  H  H29  1  0.76245557  0.86644753  0.68172228  1
  H  H30  1  0.24218941  0.14634447  0.17713027  1
  H  H31  1  0.25284767  0.47442492  0.17513332  1
  H  H32  1  0.24325067  0.80861675  0.17576310  1
  H  H33  1  0.75533592  0.14277018  0.17654934  1
  H  H34  1  0.74712135  0.47235661  0.17907465  1
  H  H35  1  0.75277892  0.80113787  0.17393353  1
  H  H36  1  0.25616923  0.18771170  0.82765941  1
  H  H37  1  0.24775642  0.51981610  0.82997589  1
  H  H38  1  0.26846990  0.86113735  0.82872413  1
  H  H39  1  0.75346825  0.19426909  0.81993994  1
  H  H40  1  0.78077505  0.52968273  0.84160143  1
  H  H41  1  0.72518276  0.85248239  0.82558065  1
  H  H42  1  0.22569716  0.14053316  0.32780976  1
  H  H43  1  0.23300479  0.46948183  0.31965843  1
  H  H44  1  0.23435804  0.79834260  0.32006669  1
  H  H45  1  0.77217485  0.13307484  0.32605945  1
  H  H46  1  0.76936567  0.47553913  0.32532618  1
  H  H47  1  0.76641115  0.80947412  0.32538174  1
  H  H48  1  0.12540799  0.05925473  0.61197551  1
  H  H49  1  0.12848148  0.39022485  0.61112178  1
  H  H50  1  0.13529426  0.71754870  0.62544042  1
  H  H51  1  0.62601652  0.05140211  0.61084508  1
  H  H52  1  0.62501327  0.38826858  0.61733350  1
  H  H53  1  0.63072528  0.71880150  0.60498055  1
  H  H54  1  0.37291101  0.27728618  0.10028615  1
  H  H55  1  0.35962909  0.61721779  0.11508253  1
  H  H56  1  0.37322244  0.94632070  0.12259423  1
  H  H57  1  0.87384958  0.28159580  0.11890525  1
  H  H58  1  0.83059388  0.61847296  0.10102284  1
  H  H59  1  0.88048757  0.95366682  0.11854427  1
  H  H60  1  0.38253104  0.05963648  0.89687160  1
  H  H61  1  0.36325070  0.37741903  0.87829578  1
  H  H62  1  0.39065080  0.72623510  0.90905424  1
  H  H63  1  0.87819502  0.04858934  0.88571262  1
  H  H64  1  0.86228319  0.37847510  0.87843486  1
  H  H65  1  0.88095999  0.71612000  0.87409642  1
  H  H66  1  0.11296206  0.27310803  0.39911929  1
  H  H67  1  0.12487152  0.60788349  0.40305902  1
  H  H68  1  0.12398159  0.94254936  0.40019561  1
  H  H69  1  0.60664879  0.27598769  0.41307940  1
  H  H70  1  0.62888043  0.61981267  0.37957096  1
  H  H71  1  0.62348180  0.95460834  0.36872322  1
  H  H72  1  0.38729704  0.21671964  0.62295884  1
  H  H73  1  0.37096720  0.56016805  0.58789963  1
  H  H74  1  0.37264823  0.89048443  0.61790482  1
  H  H75  1  0.87949094  0.21422075  0.63005588  1
  H  H76  1  0.87636265  0.55195003  0.62284028  1
  H  H77  1  0.87296245  0.89111916  0.59790089  1
  H  H78  1  0.12059814  0.11270825  0.10657277  1
  H  H79  1  0.13861181  0.44009269  0.10017598  1
  H  H80  1  0.12081071  0.77865132  0.10684777  1
  H  H81  1  0.62161093  0.12401448  0.11692114  1
  H  H82  1  0.63722942  0.44520957  0.09648303  1
  H  H83  1  0.62093445  0.78056885  0.11113086  1
  H  H84  1  0.13205307  0.22132918  0.89313849  1
  H  H85  1  0.14799038  0.55793160  0.91368624  1
  H  H86  1  0.12488524  0.88323075  0.87660821  1
  H  H87  1  0.63076877  0.21901282  0.89080491  1
  H  H88  1  0.66420095  0.55875012  0.91517106  1
  H  H89  1  0.63219708  0.89142350  0.91452843  1
  H  H90  1  0.36796392  0.11577001  0.37436082  1
  H  H91  1  0.37356588  0.45213205  0.37444045  1
  H  H92  1  0.36762362  0.77736198  0.38223321  1
  H  H93  1  0.86498051  0.10284185  0.41731951  1
  H  H94  1  0.86522308  0.44100024  0.41370809  1
  H  H95  1  0.85965013  0.77320297  0.41398026  1
  H  H96  1  0.36326215  0.27910442  0.37951670  1
  H  H97  1  0.38078065  0.61124618  0.39412699  1
  H  H98  1  0.38050383  0.93907257  0.40632681  1
  H  H99  1  0.86738837  0.28116195  0.37160224  1
  H  H100  1  0.87824970  0.61982111  0.37960135  1
  H  H101  1  0.87830937  0.95127135  0.37008031  1
  H  H102  1  0.12674521  0.05410208  0.89525859  1
  H  H103  1  0.10976329  0.38669042  0.90148946  1
  H  H104  1  0.12311531  0.72842117  0.91124918  1
  H  H105  1  0.63036630  0.05178793  0.87856361  1
  H  H106  1  0.60910558  0.38961811  0.90447525  1
  H  H107  1  0.63170391  0.70988309  0.87201726  1
  H  H108  1  0.12148130  0.27624579  0.10210582  1
  H  H109  1  0.07684876  0.59992674  0.07573147  1
  H  H110  1  0.12611917  0.94001849  0.09756856  1
  H  H111  1  0.62049201  0.28426880  0.11847813  1
  H  H112  1  0.60691506  0.61428988  0.10319252  1
  H  H113  1  0.62144515  0.94924508  0.10731056  1
  H  H114  1  0.37970589  0.06106252  0.59274696  1
  H  H115  1  0.37820592  0.38999718  0.59543342  1
  H  H116  1  0.38270144  0.72327941  0.60547977  1
  H  H117  1  0.87913079  0.04496536  0.61236396  1
  H  H118  1  0.87913608  0.38584964  0.61683510  1
  H  H119  1  0.88853355  0.72258914  0.60273122  1
  H  H120  1  0.12481999  0.10291655  0.41116013  1
  H  H121  1  0.12808087  0.43979467  0.40368984  1
  H  H122  1  0.11956961  0.77425230  0.40005157  1
  H  H123  1  0.62582753  0.11592484  0.36804936  1
  H  H124  1  0.62450036  0.45710842  0.36938011  1
  H  H125  1  0.62064475  0.78717140  0.36564281  1
  H  H126  1  0.38049921  0.22105798  0.89411397  1
  H  H127  1  0.39077064  0.54748394  0.87408787  1
  H  H128  1  0.36632819  0.89402585  0.91672892  1
  H  H129  1  0.87968504  0.21694681  0.88571225  1
  H  H130  1  0.91194263  0.55411017  0.90184949  1
  H  H131  1  0.87053852  0.87846057  0.86640309  1
  H  H132  1  0.36904743  0.11871629  0.10926561  1
  H  H133  1  0.38597346  0.44963592  0.11237129  1
  H  H134  1  0.36990566  0.78141963  0.11239576  1
  H  H135  1  0.86879308  0.11370605  0.10197127  1
  H  H136  1  0.88344991  0.44850975  0.12260568  1
  H  H137  1  0.87006264  0.77777730  0.09997362  1
  H  H138  1  0.14464558  0.22672118  0.58639158  1
  H  H139  1  0.13044738  0.55195468  0.63022695  1
  H  H140  1  0.12645301  0.87711916  0.60320326  1
  H  H141  1  0.63734229  0.22867713  0.59556388  1
  H  H142  1  0.63144935  0.56110160  0.59105921  1
  H  H143  1  0.62682966  0.88656488  0.62090283  1
  H  H144  1  0.44099606  0.57668293  0.50127668  1
  H  H145  1  0.95710530  0.75419428  0.50004746  1
  H  H146  1  0.28393561  0.58389291  0.49210293  1
  H  H147  1  0.84014979  0.24473661  -0.00179058  1
  H  H148  1  0.91859973  0.08734440  0.99295133  1
  H  H149  1  0.77616897  0.08222425  0.51284723  1
  H  H150  1  0.81717107  0.74754018  0.99139537  1
  H  H151  1  0.31303345  0.95072798  0.53154209  1
  H  H152  1  0.07300076  0.42565548  0.50941502  1
  H  H153  1  0.35233145  0.41336554  0.00801017  1
  H  H154  1  0.77225848  0.74674219  0.50805307  1
  H  H155  1  0.89034688  0.24592605  0.48392771  1
  H  H156  1  0.71892086  0.25324204  0.49799830  1
  H  H157  1  0.61920955  0.74436283  0.98112368  1
  H  H158  1  0.04269862  0.41595719  1.00848467  1
  H  H159  1  0.71701508  0.59208517  1.02276915  1
  H  H160  1  0.85903512  0.41467085  0.01025544  1
  H  H161  1  0.59745693  0.08270291  0.50157046  1
  H  H162  1  0.56231216  0.92915417  0.00304584  1
  H  H163  1  0.59327050  0.25069860  0.00511729  1
  H  H164  1  0.52723342  0.24298428  0.50912139  1
  H  H165  1  0.78079438  0.41997408  0.50996628  1
  H  H166  1  0.20497361  0.40926137  0.50513181  1
  H  H167  1  0.61444255  0.92134924  0.48287837  1
  H  H168  1  0.20591385  0.07286947  0.50703594  1
  H  H169  1  0.22766539  0.58602642  1.01119673  1
  H  H170  1  0.72388010  0.91836506  1.00710532  1
  H  H171  1  0.39224539  0.58879308  0.99833012  1
  H  H172  1  0.93762696  0.04693234  0.50600620  1
  H  H173  1  0.90443398  0.91965984  1.00407451  1
  H  H174  1  0.60825449  0.08753665  0.98973060  1
  H  H175  1  0.05590074  0.11777729  0.52849280  1
  H  H176  1  0.06116783  0.58299819  0.50948854  1
  H  H177  1  0.45720293  0.90780412  0.50781163  1
  H  H178  1  0.41058458  0.91416483  0.01097556  1
  H  H179  1  0.33364340  0.74922406  0.49369230  1
  H  H180  1  0.04339647  0.24897622  0.49981704  1
  H  H181  1  0.19559772  0.88302643  0.50030117  1
  H  H182  1  0.22758004  0.25110087  0.48912689  1
  H  H183  1  0.58787440  0.74790992  0.49867947  1
  H  H184  1  0.04843571  0.91916806  0.50337625  1
  H  H185  1  0.89742755  0.58897127  0.49300486  1
  H  H186  1  0.92126247  0.40853026  0.50398240  1
  H  H187  1  0.00588092  0.57517363  -0.02567056  1
  H  H188  1  0.44237971  0.09432210  1.00212021  1
  H  H189  1  0.62940806  0.42359348  0.48328496  1
  H  H190  1  0.28002525  0.91742699  1.01287272  1
  H  H191  1  0.32969400  0.74167950  0.00316745  1
  Pb  Pb192  1  0.25482374  0.04828655  0.74597509  1
  Pb  Pb193  1  0.25725114  0.38406160  0.74690042  1
  Pb  Pb194  1  0.25889201  0.71464030  0.76257228  1
  Pb  Pb195  1  0.75751630  0.04863858  0.74326945  1
  Pb  Pb196  1  0.75092678  0.38243087  0.74658771  1
  Pb  Pb197  1  0.75523390  0.71431905  0.73722070  1
  Pb  Pb198  1  0.24562088  0.28543094  0.25196768  1
  Pb  Pb199  1  0.23704699  0.61442807  0.24637084  1
  Pb  Pb200  1  0.24308163  0.94785660  0.25914657  1
  Pb  Pb201  1  0.73795686  0.28226217  0.26133602  1
  Pb  Pb202  1  0.74717003  0.61970436  0.25425124  1
  Pb  Pb203  1  0.74439800  0.95134763  0.23840905  1
  Pb  Pb204  1  0.01189573  0.21835085  0.74214455  1
  Pb  Pb205  1  0.00447575  0.54829740  0.75288893  1
  Pb  Pb206  1  0.00619081  0.87902642  0.73875574  1
  Pb  Pb207  1  0.50702124  0.21469211  0.74638167  1
  Pb  Pb208  1  0.50941576  0.54756622  0.74228617  1
  Pb  Pb209  1  0.50559061  0.88392462  0.76080656  1
  Pb  Pb210  1  -0.00548170  0.11593721  0.25906674  1
  Pb  Pb211  1  -0.00802394  0.44857480  0.26023433  1
  Pb  Pb212  1  -0.00906650  0.78286760  0.25757149  1
  Pb  Pb213  1  0.49096623  0.11801629  0.24971153  1
  Pb  Pb214  1  0.49820220  0.45292313  0.24257241  1
  Pb  Pb215  1  0.49395953  0.78298443  0.24809550  1
  C  C216  1  0.00322563  0.04417924  0.63546073  1
  C  C217  1  0.00516886  0.38398532  0.63743409  1
  C  C218  1  0.00774535  0.71063897  0.63707644  1
  C  C219  1  0.49965649  0.04602228  0.62364022  1
  C  C220  1  0.49790707  0.38070278  0.62935090  1
  C  C221  1  0.50668008  0.71165503  0.62698513  1
  C  C222  1  0.00073080  0.29051312  0.13205506  1
  C  C223  1  -0.04012321  0.62240974  0.10747092  1
  C  C224  1  0.00614432  0.95506128  0.12824100  1
  C  C225  1  0.49438641  0.28957557  0.12971438  1
  C  C226  1  0.48447581  0.62296675  0.12960032  1
  C  C227  1  0.49954044  0.95952584  0.13639760  1
  C  C228  1  0.00435493  0.03985330  0.86871116  1
  C  C229  1  -0.00869302  0.37318278  0.86959432  1
  C  C230  1  0.00930099  0.71199308  0.86937539  1
  C  C231  1  0.50316608  0.04750769  0.86750964  1
  C  C232  1  0.49148326  0.37360318  0.86940758  1
  C  C233  1  0.50398129  0.70594874  0.86843094  1
  C  C234  1  -0.00536236  0.28774085  0.36433638  1
  C  C235  1  0.00555055  0.61991755  0.37036232  1
  C  C236  1  0.00677044  0.95290286  0.36162596  1
  C  C237  1  0.49069614  0.29041215  0.37445856  1
  C  C238  1  0.50138866  0.62375181  0.36608765  1
  C  C239  1  0.49573252  0.95485094  0.36815354  1
  C  C240  1  0.25914027  0.21331971  0.62823715  1
  C  C241  1  0.25861796  0.54652325  0.63144689  1
  C  C242  1  0.24829475  0.87397768  0.63274968  1
  C  C243  1  0.75210288  0.21721192  0.63723519  1
  C  C244  1  0.74800131  0.54815441  0.62987006  1
  C  C245  1  0.75420659  0.88106043  0.63426803  1
  C  C246  1  0.24386783  0.12682526  0.13128448  1
  C  C247  1  0.25953191  0.45547739  0.12926981  1
  C  C248  1  0.24521403  0.78950769  0.12988744  1
  C  C249  1  0.74840854  0.12685033  0.12969111  1
  C  C250  1  0.75596314  0.45576518  0.13252166  1
  C  C251  1  0.74839751  0.78634178  0.12632523  1
  C  C252  1  0.25645167  0.20838210  0.87275562  1
  C  C253  1  0.26205273  0.53961336  0.87447111  1
  C  C254  1  0.25390724  0.87809720  0.87437924  1
  C  C255  1  0.75520203  0.20921612  0.86754969  1
  C  C256  1  0.78563745  0.54677637  0.88853730  1
  C  C257  1  0.74233443  0.87265636  0.86928744  1
  C  C258  1  0.23942198  0.12124204  0.37232697  1
  C  C259  1  0.24502401  0.45388014  0.36623831  1
  C  C260  1  0.24040709  0.78401293  0.36771539  1
  C  C261  1  0.75438469  0.11898704  0.37209932  1
  C  C262  1  0.75309586  0.45917797  0.37112301  1
  C  C263  1  0.74894196  0.79182542  0.37016263  1
  C  C264  1  0.68154109  0.43129464  0.45175398  1
  C  C265  1  0.43660774  0.59842432  0.03711816  1
  C  C266  1  0.46682487  0.74175769  0.53374606  1
  C  C267  1  0.47437914  0.59088210  0.46063796  1
  C  C268  1  0.98784508  0.74144985  0.54259842  1
  C  C269  1  0.67451863  0.76149883  0.44890882  1
  C  C270  1  0.55530010  0.59382189  0.45374208  1
  C  C271  1  0.56380823  0.92885378  0.45170628  1
  C  C272  1  0.28853195  0.75516405  0.03957613  1
  C  C273  1  0.54896585  0.40948983  0.54118062  1
  C  C274  1  0.54693997  0.26158986  0.03982152  1
  C  C275  1  0.75349377  0.57946569  0.98300846  1
  C  C276  1  0.48367026  0.92279657  0.46455784  1
  C  C277  1  0.20698183  0.75504946  0.03888273  1
  C  C278  1  0.83634160  0.57618407  0.97904083  1
  C  C279  1  0.28889932  0.75924760  0.45781971  1
  C  C280  1  0.93578105  0.25694937  0.44962982  1
  C  C281  1  0.79776912  0.23526562  0.96115886  1
  C  C282  1  0.89813307  0.58894075  0.02394382  1
  C  C283  1  0.95068797  0.92860366  0.03868153  1
  C  C284  1  0.02086484  0.92976579  0.45901481  1
  C  C285  1  0.30721602  0.08602811  0.45282639  1
  C  C286  1  0.71639600  0.23547858  0.96125993  1
  C  C287  1  0.96076604  0.07434633  0.95674284  1
  C  C288  1  0.03160218  0.92448753  0.03336550  1
  C  C289  1  0.43522076  0.40103061  0.95604839  1
  C  C290  1  0.94674705  0.59689072  0.45942576  1
  C  C291  1  0.67957059  0.09369652  0.45251689  1
  C  C292  1  0.23161045  0.42306907  0.46141211  1
  C  C293  1  0.80684713  0.57630129  0.54415962  1
  C  C294  1  0.77496424  0.09676405  0.03579162  1
  C  C295  1  0.55848714  0.07723453  0.95556998  1
  C  C296  1  0.77886136  0.75849376  0.03051149  1
  C  C297  1  0.46569210  0.25942746  0.03513940  1
  C  C298  1  0.80980444  0.42596344  0.04559406  1
  C  C299  1  0.69528292  0.10038021  0.04079636  1
  C  C300  1  0.02810899  0.59362199  0.46755494  1
  C  C301  1  0.45110101  0.92811654  0.04769619  1
  C  C302  1  0.47309576  0.08126083  0.52945152  1
  C  C303  1  0.93092525  0.39945745  0.95656483  1
  C  C304  1  0.21906366  0.24772572  0.96053401  1
  C  C305  1  0.51800427  0.59746298  0.03461736  1
  C  C306  1  0.47687177  0.08004533  0.96206891  1
  C  C307  1  0.01141248  0.40336826  0.96618162  1
  C  C308  1  0.69743428  0.75977912  0.03602869  1
  C  C309  1  0.96049854  0.40184935  0.54362607  1
  C  C310  1  0.02594865  0.25396268  0.04017448  1
  C  C311  1  0.32947961  0.57518915  0.95432615  1
  N  N312  1  0.94277568  0.93304008  0.44953587  1
  N  N313  1  0.04021367  0.40412381  0.54263937  1
  N  N314  1  0.94881002  0.25597060  0.04427026  1
  N  N315  1  0.75585140  0.08913592  0.46779090  1
  N  N316  1  0.81616069  0.90550106  0.94655093  1
  N  N317  1  0.47223626  0.41056377  0.53280071  1
  N  N318  1  0.22988171  0.08335065  0.46441778  1
  N  N319  1  0.77625569  0.90920088  0.53800916  1
  N  N320  1  0.04101960  0.07572834  0.54333004  1
  N  N321  1  0.06644452  0.73962787  0.54967543  1
  N  N322  1  0.50430549  0.25124095  0.46482708  1
  N  N323  1  0.56749608  0.73642704  0.94965550  1
  N  N324  1  0.75083770  0.75672623  0.46390846  1
  N  N325  1  0.51173525  0.40625075  0.96546400  1
  N  N326  1  0.29499211  0.90890507  0.54472329  1
  N  N327  1  0.30714338  0.42251267  0.04315362  1
  N  N328  1  0.53047602  0.92969247  0.04368867  1
  N  N329  1  0.73078839  0.57926844  0.53262189  1
  N  N330  1  0.22942702  0.41977669  0.03714312  1
  N  N331  1  0.42789386  0.25146780  0.45446968  1
  N  N332  1  -0.02224272  0.57946565  0.01773288  1
  N  N333  1  0.74135264  0.23726546  0.54020079  1
  N  N334  1  0.30954719  0.42705824  0.45178971  1
  N  N335  1  0.26429468  0.57801937  0.53735552  1
  N  N336  1  0.01447537  0.25495539  0.45773821  1
  N  N337  1  0.18811953  0.57491957  0.55031281  1
  N  N338  1  0.28540396  0.09141362  0.04184994  1
  N  N339  1  0.94532622  0.74157404  0.95335345  1
  N  N340  1  0.95801222  0.07000956  0.54403525  1
  N  N341  1  0.70092644  0.90753813  0.54527562  1
  N  N342  1  0.73150474  0.42435207  0.03669215  1
  N  N343  1  0.54581518  0.73964993  0.53520983  1
  N  N344  1  0.01982979  0.74620554  0.96473013  1
  N  N345  1  0.20915741  0.08926354  0.04103748  1
  N  N346  1  0.75883926  0.42539958  0.46544082  1
  N  N347  1  0.49154699  0.74234685  0.96269628  1
  N  N348  1  0.81779196  0.23211808  0.55010857  1
  N  N349  1  0.18437946  0.90774551  0.95541704  1
  N  N350  1  0.74103554  0.91011648  0.96111463  1
  N  N351  1  0.21005920  0.75859778  0.46449348  1
  N  N352  1  0.24978777  0.24324496  0.53381145  1
  N  N353  1  0.25213126  0.57811608  0.96663866  1
  N  N354  1  0.03966666  0.07633617  0.96047107  1
  N  N355  1  0.21211747  0.90456317  0.54035957  1
  N  N356  1  0.26046245  0.91128394  0.96776403  1
  N  N357  1  0.55107454  0.07569761  0.53584414  1
  N  N358  1  0.32597715  0.23955005  0.54454714  1
  N  N359  1  0.29635085  0.24782865  0.96208249  1
  N  N360  1  0.06453347  0.06475023  0.60307329  1
  N  N361  1  0.06736127  0.39631127  0.60158446  1
  N  N362  1  0.07696758  0.72054849  0.60847369  1
  N  N363  1  0.56808085  0.05302726  0.59375893  1
  N  N364  1  0.56759921  0.39190683  0.59970511  1
  N  N365  1  0.57088677  0.72048948  0.59244902  1
  N  N366  1  0.43397335  0.27626929  0.08931940  1
  N  N367  1  0.41681377  0.61435114  0.09756448  1
  N  N368  1  0.43173278  0.94535390  0.10555351  1
  N  N369  1  0.93286824  0.27912103  0.10280793  1
  N  N370  1  0.88778305  0.61334916  0.08119804  1
  N  N371  1  0.93623034  0.94774976  0.09903005  1
  N  N372  1  0.44370991  0.06120289  0.90692898  1
  N  N373  1  0.42012596  0.38192682  0.89717183  1
  N  N374  1  0.45280961  0.72469727  0.91162779  1
  N  N375  1  0.93740565  0.05259982  0.90051958  1
  N  N376  1  0.91925285  0.38141573  0.89781516  1
  N  N377  1  0.93740436  0.71992045  0.89420261  1
  N  N378  1  0.05061681  0.27652037  0.40609861  1
  N  N379  1  0.06335853  0.60779020  0.41175472  1
  N  N380  1  0.06186803  0.94213404  0.40567616  1
  N  N381  1  0.54411273  0.27668014  0.41736993  1
  N  N382  1  0.57118419  0.61329388  0.39668563  1
  N  N383  1  0.56962617  0.94816494  0.39173311  1
  N  N384  1  0.33160239  0.22219531  0.60366065  1
  N  N385  1  0.30859758  0.55798764  0.58538651  1
  N  N386  1  0.31256114  0.89553737  0.60484221  1
  N  N387  1  0.82397649  0.21889210  0.61051706  1
  N  N388  1  0.82010506  0.55772924  0.60322410  1
  N  N389  1  0.81096303  0.89273305  0.59293693  1
  N  N390  1  0.18183992  0.11109151  0.09646456  1
  N  N391  1  0.20019174  0.43925815  0.09136266  1
  N  N392  1  0.18096818  0.77543084  0.09350730  1
  N  N393  1  0.67884046  0.11845013  0.09894509  1
  N  N394  1  0.69958670  0.44342371  0.09122994  1
  N  N395  1  0.67960573  0.77636489  0.09437915  1
  N  N396  1  0.19169481  0.22429234  0.90657173  1
  N  N397  1  0.21019744  0.55280974  0.91866678  1
  N  N398  1  0.18092907  0.88869601  0.89690277  1
  N  N399  1  0.69079631  0.21993036  0.90469010  1
  N  N400  1  0.72446283  0.56060922  0.92675588  1
  N  N401  1  0.69446277  0.88755798  0.91569114  1
  N  N402  1  0.31314386  0.10863062  0.39544588  1
  N  N403  1  0.31608997  0.44589774  0.39257080  1
  N  N404  1  0.30897119  0.77496664  0.39879591  1
  N  N405  1  0.80292457  0.10820844  0.41916671  1
  N  N406  1  0.80312343  0.44611211  0.41684097  1
  N  N407  1  0.79748731  0.77814978  0.41629530  1
  N  N408  1  0.41968717  0.27445831  0.39773782  1
  N  N409  1  0.44169268  0.61002398  0.40489295  1
  N  N410  1  0.44254235  0.93907911  0.41206100  1
  N  N411  1  0.92316192  0.27653419  0.39136512  1
  N  N412  1  0.93469499  0.61285993  0.39866343  1
  N  N413  1  0.93585776  0.94630429  0.38863517  1
  N  N414  1  0.06543112  0.05452788  0.90510104  1
  N  N415  1  0.04825119  0.38687875  0.91059237  1
  N  N416  1  0.06096321  0.72759190  0.91325318  1
  N  N417  1  0.57291865  0.05728771  0.89654744  1
  N  N418  1  0.54673376  0.38849169  0.91037770  1
  N  N419  1  0.57595392  0.71291784  0.89301877  1
  N  N420  1  0.06017907  0.27471247  0.09284064  1
  N  N421  1  0.01527930  0.60506383  0.06734784  1
  N  N422  1  0.06493369  0.94032459  0.08715697  1
  N  N423  1  0.56338690  0.28058976  0.09977198  1
  N  N424  1  0.54622983  0.61227892  0.09028374  1
  N  N425  1  0.55994882  0.95283801  0.09724028  1
  N  N426  1  0.44081487  0.06307226  0.58369933  1
  N  N427  1  0.44026753  0.39201009  0.58917555  1
  N  N428  1  0.44247834  0.72487571  0.59076590  1
  N  N429  1  0.93921733  0.04458604  0.59927378  1
  N  N430  1  0.93863766  0.38778547  0.60191235  1
  N  N431  1  0.95030600  0.72396803  0.59579618  1
  N  N432  1  0.18680030  0.10691344  0.41584926  1
  N  N433  1  0.19010225  0.43927790  0.40927985  1
  N  N434  1  0.18132365  0.77368328  0.40753501  1
  N  N435  1  0.67846665  0.11065901  0.39267136  1
  N  N436  1  0.67819031  0.45024780  0.39266528  1
  N  N437  1  0.67310369  0.78177699  0.39022880  1
  N  N438  1  0.32002502  0.22264175  0.90630105  1
  N  N439  1  0.33611110  0.55298231  0.89630842  1
  N  N440  1  0.30459854  0.89069350  0.91981873  1
  N  N441  1  0.82078913  0.21885171  0.90156751  1
  N  N442  1  0.85395283  0.55565404  0.91939506  1
  N  N443  1  0.81648710  0.88440228  0.88864079  1
  N  N444  1  0.30833639  0.11460253  0.09772218  1
  N  N445  1  0.32658745  0.44511039  0.09849638  1
  N  N446  1  0.31108644  0.77653290  0.09732526  1
  N  N447  1  0.80807363  0.11253123  0.09008560  1
  N  N448  1  0.82616537  0.44497461  0.10432164  1
  N  N449  1  0.80942910  0.77543806  0.08818341  1
  N  N450  1  0.20746172  0.22503766  0.58344429  1
  N  N451  1  0.18552603  0.55760713  0.60951774  1
  N  N452  1  0.18772143  0.87708199  0.59321797  1
  N  N453  1  0.70023784  0.23116545  0.59325244  1
  N  N454  1  0.69377420  0.56132493  0.58743234  1
  N  N455  1  0.68544041  0.89035949  0.60487834  1
  Cl  Cl456  1  0.24983290  0.05101355  0.60051828  1
  Cl  Cl457  1  0.25119998  0.38738502  0.60920187  1
  Cl  Cl458  1  0.26325840  0.72354317  0.62973767  1
  Cl  Cl459  1  0.75707290  0.06126195  0.60482448  1
  Cl  Cl460  1  0.75659630  0.39559385  0.60671601  1
  Cl  Cl461  1  0.76378816  0.72534019  0.59998707  1
  Cl  Cl462  1  0.24705267  0.27649262  0.12106658  1
  Cl  Cl463  1  0.20241706  0.60229184  0.10016903  1
  Cl  Cl464  1  0.25070835  0.93523499  0.11492808  1
  Cl  Cl465  1  0.74971923  0.27830621  0.13267163  1
  Cl  Cl466  1  0.71945691  0.61677684  0.12297722  1
  Cl  Cl467  1  0.73922971  0.93623488  0.10005376  1
  Cl  Cl468  1  0.25528758  0.05698089  0.87646300  1
  Cl  Cl469  1  0.23546664  0.38830145  0.87788715  1
  Cl  Cl470  1  0.25772745  0.72528721  0.89899268  1
  Cl  Cl471  1  0.75502197  0.04675105  0.87072549  1
  Cl  Cl472  1  0.73334449  0.38771067  0.87607862  1
  Cl  Cl473  1  0.75406020  0.72021379  0.86924303  1
  Cl  Cl474  1  0.23052284  0.26936525  0.39613852  1
  Cl  Cl475  1  0.25368946  0.60398818  0.39193479  1
  Cl  Cl476  1  0.25197005  0.93966432  0.39655807  1
  Cl  Cl477  1  0.72679199  0.27640211  0.40634415  1
  Cl  Cl478  1  0.75362633  0.62447394  0.38043259  1
  Cl  Cl479  1  0.75384508  0.95573042  0.36519697  1
  Cl  Cl480  1  0.02624125  0.22212080  0.59364286  1
  Cl  Cl481  1  0.00087576  0.54989413  0.62443905  1
  Cl  Cl482  1  0.00267136  0.88921576  0.60237475  1
  Cl  Cl483  1  0.52169517  0.22205782  0.60241090  1
  Cl  Cl484  1  0.49716139  0.56038734  0.60520286  1
  Cl  Cl485  1  0.49547317  0.88433666  0.62536410  1
  Cl  Cl486  1  -0.00477009  0.11532254  0.12545773  1
  Cl  Cl487  1  0.01478151  0.44347918  0.12548428  1
  Cl  Cl488  1  -0.00432345  0.77911062  0.12595960  1
  Cl  Cl489  1  0.49160162  0.11909131  0.11660146  1
  Cl  Cl490  1  0.51059194  0.44883528  0.11117204  1
  Cl  Cl491  1  0.49775076  0.78455849  0.11909585  1
  Cl  Cl492  1  0.00707051  0.22232149  0.87107467  1
  Cl  Cl493  1  0.03473552  0.55958762  0.88795207  1
  Cl  Cl494  1  0.00078420  0.88500618  0.86694872  1
  Cl  Cl495  1  0.50627202  0.22606746  0.87725378  1
  Cl  Cl496  1  0.52547639  0.55438287  0.87091961  1
  Cl  Cl497  1  0.50493863  0.89726804  0.90484243  1
  Cl  Cl498  1  -0.00559547  0.10232484  0.40131495  1
  Cl  Cl499  1  -0.00321845  0.43837771  0.40202966  1
  Cl  Cl500  1  -0.01421197  0.77396960  0.39482954  1
  Cl  Cl501  1  0.49648938  0.11024607  0.38229095  1
  Cl  Cl502  1  0.49771986  0.45480092  0.37131225  1
  Cl  Cl503  1  0.49095619  0.77286473  0.38114709  1
  Cl  Cl504  1  0.36942476  0.14767146  0.73986829  1
  Cl  Cl505  1  0.35856933  0.48217992  0.75676873  1
  Cl  Cl506  1  0.36831763  0.81720662  0.75923095  1
  Cl  Cl507  1  0.87225375  0.14160014  0.73738786  1
  Cl  Cl508  1  0.86868635  0.47878122  0.75760716  1
  Cl  Cl509  1  0.86333101  0.81560353  0.74903847  1
  Cl  Cl510  1  0.12997110  0.18692960  0.25822426  1
  Cl  Cl511  1  0.13894063  0.51996876  0.25244365  1
  Cl  Cl512  1  0.14056798  0.85273647  0.25429564  1
  Cl  Cl513  1  0.64207857  0.18423182  0.25620096  1
  Cl  Cl514  1  0.64289261  0.51579410  0.25214285  1
  Cl  Cl515  1  0.62893812  0.85415402  0.25287109  1
  Cl  Cl516  1  0.14799610  0.15156333  0.74259931  1
  Cl  Cl517  1  0.13919670  0.48080988  0.74176372  1
  Cl  Cl518  1  0.14675030  0.81568312  0.75239247  1
  Cl  Cl519  1  0.64605430  0.14921482  0.75316423  1
  Cl  Cl520  1  0.64817781  0.48511178  0.74292608  1
  Cl  Cl521  1  0.63733782  0.81171219  0.74406288  1
  Cl  Cl522  1  0.35554621  0.18489161  0.26147339  1
  Cl  Cl523  1  0.35982499  0.52009326  0.24268666  1
  Cl  Cl524  1  0.36295430  0.85401242  0.24778474  1
  Cl  Cl525  1  0.86350678  0.18996955  0.26224458  1
  Cl  Cl526  1  0.86230803  0.52097165  0.24671527  1
  Cl  Cl527  1  0.85183869  0.84859417  0.24657107  1
  Cl  Cl528  1  0.10543334  0.31821162  0.74722274  1
  Cl  Cl529  1  0.11553190  0.64903317  0.74615961  1
  Cl  Cl530  1  0.11435932  0.98265401  0.74680121  1
  Cl  Cl531  1  0.61356401  0.31740127  0.73436981  1
  Cl  Cl532  1  0.61775284  0.64889982  0.73919577  1
  Cl  Cl533  1  0.61545478  0.98327431  0.73607168  1
  Cl  Cl534  1  0.38862647  0.02000023  0.24916147  1
  Cl  Cl535  1  0.38385997  0.35277976  0.25223480  1
  Cl  Cl536  1  0.38466290  0.68515825  0.24374501  1
  Cl  Cl537  1  0.88578707  0.01499362  0.23796659  1
  Cl  Cl538  1  0.88284911  0.35695598  0.25708682  1
  Cl  Cl539  1  0.89447945  0.68096487  0.24424065  1
  Cl  Cl540  1  0.39172603  0.31338069  0.74607226  1
  Cl  Cl541  1  0.39687487  0.64857201  0.74975316  1
  Cl  Cl542  1  0.39466668  0.98416456  0.74606231  1
  Cl  Cl543  1  0.88231060  0.30670234  0.73667340  1
  Cl  Cl544  1  0.89030600  0.64641074  0.75843363  1
  Cl  Cl545  1  0.89105554  0.97796737  0.74315710  1
  Cl  Cl546  1  0.11276392  0.01932896  0.24523812  1
  Cl  Cl547  1  0.10916965  0.35227024  0.25375225  1
  Cl  Cl548  1  0.11336419  0.68760530  0.25658142  1
  Cl  Cl549  1  0.61063651  0.02207151  0.25280171  1
  Cl  Cl550  1  0.60341207  0.34852957  0.25501382  1
  Cl  Cl551  1  0.60864798  0.68538308  0.25240359  1
