# generated using pymatgen
data_H8PbC4(N3Cl2)2
_symmetry_space_group_name_H-M   'P 1'
_cell_length_a   16.62650832
_cell_length_b   22.51630408
_cell_length_c   21.59448729
_cell_angle_alpha   89.99886442
_cell_angle_beta   89.97570820
_cell_angle_gamma   89.99400221
_symmetry_Int_Tables_number   1
_chemical_formula_structural   H8PbC4(N3Cl2)2
_chemical_formula_sum   'H192 Pb24 C96 N144 Cl96'
_cell_volume   8084.27381641
_cell_formula_units_Z   24
loop_
 _symmetry_equiv_pos_site_id
 _symmetry_equiv_pos_as_xyz
  1  'x, y, z'
loop_
 _atom_site_type_symbol
 _atom_site_label
 _atom_site_symmetry_multiplicity
 _atom_site_fract_x
 _atom_site_fract_y
 _atom_site_fract_z
 _atom_site_occupancy
  H  H0  1  0.00188909  0.03006425  0.68241110  1
  H  H1  1  -0.01209470  0.36366243  0.67420769  1
  H  H2  1  0.01038394  0.69767365  0.67478238  1
  H  H3  1  0.49137347  0.02744863  0.67611204  1
  H  H4  1  0.50933025  0.36535119  0.68117703  1
  H  H5  1  0.49757069  0.69894586  0.68255582  1
  H  H6  1  0.01844441  0.30102685  0.17411638  1
  H  H7  1  0.00640129  0.63878721  0.17969103  1
  H  H8  1  0.00864232  0.97106455  0.18158056  1
  H  H9  1  0.48970561  0.30587326  0.17765561  1
  H  H10  1  0.49739621  0.63658302  0.18101611  1
  H  H11  1  0.48885471  0.96836563  0.17448006  1
  H  H12  1  0.00871968  0.03423808  0.82460349  1
  H  H13  1  0.00436082  0.36339232  0.81878606  1
  H  H14  1  -0.00380896  0.69285662  0.81750885  1
  H  H15  1  0.50628028  0.03187822  0.82025043  1
  H  H16  1  0.51001871  0.36005612  0.82274912  1
  H  H17  1  0.50938577  0.69627873  0.82068994  1
  H  H18  1  -0.01351775  0.30457540  0.32506147  1
  H  H19  1  -0.01391806  0.63666969  0.32387939  1
  H  H20  1  0.00924972  0.96907564  0.32273384  1
  H  H21  1  0.50980219  0.30564323  0.32223493  1
  H  H22  1  0.51244927  0.63727797  0.31688215  1
  H  H23  1  0.49386251  0.97274140  0.32366205  1
  H  H24  1  0.26408141  0.19898419  0.67395214  1
  H  H25  1  0.26015576  0.52962055  0.67519122  1
  H  H26  1  0.26018711  0.86159648  0.67907758  1
  H  H27  1  0.73337648  0.19606191  0.67812586  1
  H  H28  1  0.73759065  0.53023711  0.68267036  1
  H  H29  1  0.74582788  0.86217301  0.67730787  1
  H  H30  1  0.24888838  0.13887340  0.17403742  1
  H  H31  1  0.24272120  0.46883743  0.17865566  1
  H  H32  1  0.24587469  0.79990924  0.18186558  1
  H  H33  1  0.73989262  0.14079478  0.17752537  1
  H  H34  1  0.75209213  0.47177042  0.17922156  1
  H  H35  1  0.74518629  0.80526285  0.17935664  1
  H  H36  1  0.24021100  0.19789198  0.82397436  1
  H  H37  1  0.24716442  0.52751656  0.82093509  1
  H  H38  1  0.24428712  0.86341647  0.81870736  1
  H  H39  1  0.74729987  0.19734149  0.82305306  1
  H  H40  1  0.74358531  0.52901180  0.82021926  1
  H  H41  1  0.75793354  0.86246208  0.82489985  1
  H  H42  1  0.25873247  0.13657550  0.32009757  1
  H  H43  1  0.26252565  0.46721219  0.32431696  1
  H  H44  1  0.25088610  0.80934056  0.32310981  1
  H  H45  1  0.74573220  0.13442521  0.32097349  1
  H  H46  1  0.74166580  0.46626457  0.32012749  1
  H  H47  1  0.74836280  0.80621002  0.32343554  1
  H  H48  1  0.13351869  0.05237219  0.61847228  1
  H  H49  1  0.12706559  0.38469134  0.61894678  1
  H  H50  1  0.11618196  0.72753965  0.59158651  1
  H  H51  1  0.63178312  0.04999544  0.62513172  1
  H  H52  1  0.62169580  0.38920372  0.60063201  1
  H  H53  1  0.61719389  0.72449505  0.60697141  1
  H  H54  1  0.37127670  0.27924578  0.10312903  1
  H  H55  1  0.37251426  0.61140795  0.11195266  1
  H  H56  1  0.38515929  0.93843779  0.08958251  1
  H  H57  1  0.87459746  0.28581279  0.12914402  1
  H  H58  1  0.87299443  0.61587950  0.11944839  1
  H  H59  1  0.88314723  0.94440492  0.11442292  1
  H  H60  1  0.36576085  0.05226799  0.87427494  1
  H  H61  1  0.37459153  0.38200167  0.88345321  1
  H  H62  1  0.36802042  0.71401615  0.86979231  1
  H  H63  1  0.87197077  0.04967556  0.87915408  1
  H  H64  1  0.86688289  0.38311223  0.87652474  1
  H  H65  1  0.86722516  0.71941349  0.88555013  1
  H  H66  1  0.12519753  0.28210371  0.37951679  1
  H  H67  1  0.12808212  0.61741759  0.37463965  1
  H  H68  1  0.11498210  0.94142453  0.40420713  1
  H  H69  1  0.61718169  0.27495261  0.40598959  1
  H  H70  1  0.63095191  0.61503929  0.39416168  1
  H  H71  1  0.62031008  0.94654647  0.39092414  1
  H  H72  1  0.36666735  0.22664874  0.58643361  1
  H  H73  1  0.36666173  0.55828486  0.59202962  1
  H  H74  1  0.37729450  0.89087960  0.60189584  1
  H  H75  1  0.87456570  0.21495826  0.62491410  1
  H  H76  1  0.86873527  0.55391775  0.61999129  1
  H  H77  1  0.88258531  0.88527770  0.61975985  1
  H  H78  1  0.13132059  0.11327948  0.09872249  1
  H  H79  1  0.13269702  0.44335887  0.09779964  1
  H  H80  1  0.12954771  0.77629110  0.10262360  1
  H  H81  1  0.63347789  0.10640921  0.09657704  1
  H  H82  1  0.63519591  0.44440857  0.10205038  1
  H  H83  1  0.63273998  0.77603966  0.10002217  1
  H  H84  1  0.12785046  0.22100304  0.90391622  1
  H  H85  1  0.12905822  0.55321413  0.89725091  1
  H  H86  1  0.12088074  0.88215908  0.89111226  1
  H  H87  1  0.62692761  0.22623738  0.89555348  1
  H  H88  1  0.62848610  0.55359859  0.89549998  1
  H  H89  1  0.61914405  0.88553797  0.87728576  1
  H  H90  1  0.36542474  0.10959973  0.40239842  1
  H  H91  1  0.36638159  0.43979186  0.41067238  1
  H  H92  1  0.37971732  0.78221336  0.38945507  1
  H  H93  1  0.86933121  0.11236306  0.39151960  1
  H  H94  1  0.87495830  0.44810717  0.38162273  1
  H  H95  1  0.88000187  0.78020056  0.38629497  1
  H  H96  1  0.37152611  0.28335700  0.37762441  1
  H  H97  1  0.38277920  0.61058778  0.38003982  1
  H  H98  1  0.37116009  0.94191039  0.39209921  1
  H  H99  1  0.87885935  0.27540426  0.40701558  1
  H  H100  1  0.88593421  0.60509564  0.41092712  1
  H  H101  1  0.86893447  0.95258227  0.37579993  1
  H  H102  1  0.11732453  0.05938096  0.90605356  1
  H  H103  1  0.11528494  0.38524838  0.89932904  1
  H  H104  1  0.11563260  0.72157144  0.89216701  1
  H  H105  1  0.61138286  0.05834634  0.90485864  1
  H  H106  1  0.62219889  0.39110439  0.90020481  1
  H  H107  1  0.61213370  0.72387226  0.90503220  1
  H  H108  1  0.11596409  0.27587543  0.08580146  1
  H  H109  1  0.12052972  0.61016893  0.10106921  1
  H  H110  1  0.13189973  0.95043107  0.10704947  1
  H  H111  1  0.61988318  0.27974179  0.11357870  1
  H  H112  1  0.62137114  0.61218239  0.11003262  1
  H  H113  1  0.62896803  0.94909951  0.12378828  1
  H  H114  1  0.38663221  0.05980912  0.59312518  1
  H  H115  1  0.37379970  0.38488810  0.62016824  1
  H  H116  1  0.36880296  0.72043102  0.61320410  1
  H  H117  1  0.88416522  0.05343538  0.60833540  1
  H  H118  1  0.88201525  0.39221432  0.58950010  1
  H  H119  1  0.87091888  0.71874589  0.62132922  1
  H  H120  1  0.11972206  0.11792499  0.37229946  1
  H  H121  1  0.12196503  0.44905959  0.37605754  1
  H  H122  1  0.13128893  0.77913983  0.39599397  1
  H  H123  1  0.62025689  0.11187916  0.38780231  1
  H  H124  1  0.62631025  0.44342974  0.39650175  1
  H  H125  1  0.63074883  0.78066855  0.39863723  1
  H  H126  1  0.37478881  0.21919754  0.87988285  1
  H  H127  1  0.37781127  0.55028501  0.88528409  1
  H  H128  1  0.36793292  0.89091790  0.88747619  1
  H  H129  1  0.87640049  0.21942986  0.88848986  1
  H  H130  1  0.87720021  0.54949182  0.88162013  1
  H  H131  1  0.86415120  0.89382974  0.90755682  1
  H  H132  1  0.37991156  0.11295753  0.11096392  1
  H  H133  1  0.37907664  0.45093044  0.12343421  1
  H  H134  1  0.37746928  0.77987769  0.11585401  1
  H  H135  1  0.87947903  0.12138773  0.12274480  1
  H  H136  1  0.88347406  0.44735395  0.11646907  1
  H  H137  1  0.88055196  0.78235246  0.12212018  1
  H  H138  1  0.12327875  0.21749513  0.62320777  1
  H  H139  1  0.12190134  0.55096540  0.62011117  1
  H  H140  1  0.12964062  0.88551727  0.61408815  1
  H  H141  1  0.63053360  0.22543773  0.59081871  1
  H  H142  1  0.62030834  0.55496069  0.60486637  1
  H  H143  1  0.63694220  0.89291170  0.59588603  1
  H  H144  1  0.85126532  0.41603425  0.00618490  1
  H  H145  1  0.07759312  0.94310381  0.00014768  1
  H  H146  1  0.83388262  0.57807182  0.50672722  1
  H  H147  1  0.90289502  0.58309454  0.00819796  1
  H  H148  1  0.56854048  0.61164278  0.50102086  1
  H  H149  1  0.46334465  0.08451826  0.49330353  1
  H  H150  1  0.71186960  0.25123929  0.49364290  1
  H  H151  1  0.96855138  0.58262512  0.50886994  1
  H  H152  1  0.69947413  0.75008208  -0.00175341  1
  H  H153  1  0.53932470  0.74976455  1.00904228  1
  H  H154  1  0.66006051  0.08342758  0.50024457  1
  H  H155  1  0.29534425  0.08214820  0.50757703  1
  H  H156  1  0.35763911  0.42044854  1.00868928  1
  H  H157  1  0.68065569  0.25346153  0.99927527  1
  H  H158  1  0.78912268  0.92067162  1.00716108  1
  H  H159  1  0.85827518  0.91730053  0.51035950  1
  H  H160  1  0.10389466  0.25192888  0.48951547  1
  H  H161  1  0.14581967  0.58613863  0.51367118  1
  H  H162  1  0.68524261  0.58344008  1.00402175  1
  H  H163  1  0.05074819  0.41277909  1.00653415  1
  H  H164  1  0.53669429  0.08787873  1.00687978  1
  H  H165  1  0.68736173  0.74931759  0.50619793  1
  H  H166  1  0.92643428  0.91697806  0.00317689  1
  H  H167  1  0.18289532  0.87613080  0.99685991  1
  H  H168  1  0.35165124  0.25020836  0.99444999  1
  H  H169  1  0.34215200  0.08479352  0.00361239  1
  H  H170  1  0.84433237  0.75389661  0.49315406  1
  H  H171  1  0.34043086  0.58165315  0.99532751  1
  H  H172  1  0.04501550  0.91368242  0.51008042  1
  H  H173  1  0.46291340  0.91107562  -0.00858548  1
  H  H174  1  0.94735893  0.24340189  0.50993470  1
  H  H175  1  0.28996339  0.57004847  0.49076653  1
  H  H176  1  0.85413678  0.74686849  0.01153675  1
  H  H177  1  0.13426432  0.08528029  0.48628102  1
  H  H178  1  0.70768276  0.07933605  -0.00387997  1
  H  H179  1  0.10425521  0.41441167  0.50935199  1
  H  H180  1  0.68578069  0.41401370  0.50593915  1
  H  H181  1  0.84253968  0.25476024  0.99826888  1
  H  H182  1  0.41985478  0.58570784  0.49289848  1
  H  H183  1  0.33484119  0.75276290  0.49395074  1
  H  H184  1  0.37984881  0.74273111  -0.01561953  1
  H  H185  1  0.89052438  0.08204922  -0.00586183  1
  H  H186  1  0.93822907  0.08260404  0.49850720  1
  H  H187  1  0.55367371  0.41711402  0.49486475  1
  H  H188  1  0.54023459  0.24714741  0.50439224  1
  H  H189  1  0.68222027  0.56349058  0.49880357  1
  H  H190  1  0.57225975  0.91350379  0.49592808  1
  H  H191  1  0.30846501  0.93863297  0.98141111  1
  Pb  Pb192  1  0.24676044  0.04902967  0.75208500  1
  Pb  Pb193  1  0.24661649  0.37975243  0.75444676  1
  Pb  Pb194  1  0.24116081  0.71678316  0.74315519  1
  Pb  Pb195  1  0.74556763  0.04816031  0.75885741  1
  Pb  Pb196  1  0.74377795  0.38298713  0.74391836  1
  Pb  Pb197  1  0.74525337  0.71460818  0.75566924  1
  Pb  Pb198  1  0.25066289  0.28678145  0.23813777  1
  Pb  Pb199  1  0.25281620  0.61800573  0.25022199  1
  Pb  Pb200  1  0.24774504  0.95069186  0.24419384  1
  Pb  Pb201  1  0.74731037  0.28378424  0.25702444  1
  Pb  Pb202  1  0.75619279  0.61694861  0.25865051  1
  Pb  Pb203  1  0.75227375  0.95314874  0.24453580  1
  Pb  Pb204  1  -0.00266805  0.21480762  0.75286131  1
  Pb  Pb205  1  -0.00236589  0.54691879  0.74681609  1
  Pb  Pb206  1  -0.00636058  0.88296035  0.76047321  1
  Pb  Pb207  1  0.49692706  0.21399353  0.74121568  1
  Pb  Pb208  1  0.49167366  0.55007640  0.74323278  1
  Pb  Pb209  1  0.49670660  0.88107238  0.74469008  1
  Pb  Pb210  1  0.00165750  0.12058743  0.24740075  1
  Pb  Pb211  1  0.00462375  0.45005788  0.24440416  1
  Pb  Pb212  1  0.00406626  0.78616075  0.25050810  1
  Pb  Pb213  1  0.49611832  0.11620299  0.25100975  1
  Pb  Pb214  1  0.50228388  0.45228563  0.25558629  1
  Pb  Pb215  1  0.50371726  0.78641628  0.25086282  1
  C  C216  1  0.00610943  0.04486420  0.63475514  1
  C  C217  1  -0.00064500  0.37999909  0.62770624  1
  C  C218  1  -0.00123712  0.71413941  0.62872088  1
  C  C219  1  0.50297959  0.04440392  0.62995689  1
  C  C220  1  0.50148593  0.38002564  0.63373266  1
  C  C221  1  0.49453363  0.71450242  0.63498667  1
  C  C222  1  0.00238506  0.28771982  0.12750395  1
  C  C223  1  -0.00001525  0.62228196  0.13283576  1
  C  C224  1  0.00855975  0.95641841  0.13360727  1
  C  C225  1  0.49391629  0.28896300  0.13098059  1
  C  C226  1  0.49731687  0.62059227  0.13386670  1
  C  C227  1  0.50110742  0.95289413  0.12782933  1
  C  C228  1  -0.00168488  0.04836152  0.87187761  1
  C  C229  1  -0.00410084  0.37704118  0.86647721  1
  C  C230  1  -0.00721573  0.71018652  0.86433973  1
  C  C231  1  0.49394528  0.04732942  0.86694324  1
  C  C232  1  0.50198309  0.37710459  0.86910587  1
  C  C233  1  0.49581661  0.71090290  0.86750602  1
  C  C234  1  -0.00263081  0.28799277  0.37168946  1
  C  C235  1  -0.00014969  0.62125904  0.37034670  1
  C  C236  1  -0.00210259  0.95455079  0.36983796  1
  C  C237  1  0.49999686  0.28895902  0.36871754  1
  C  C238  1  0.50934466  0.62270891  0.36476808  1
  C  C239  1  0.49548968  0.95504703  0.37025378  1
  C  C240  1  0.25151368  0.21392432  0.62735931  1
  C  C241  1  0.24933509  0.54568074  0.62840803  1
  C  C242  1  0.25591592  0.87814511  0.63199069  1
  C  C243  1  0.74576224  0.21116649  0.63141948  1
  C  C244  1  0.74164313  0.54471920  0.63475296  1
  C  C245  1  0.75546055  0.87915011  0.63084506  1
  C  C246  1  0.25396598  0.12213921  0.12717732  1
  C  C247  1  0.25238794  0.45449486  0.13134685  1
  C  C248  1  0.25103828  0.78553599  0.13413874  1
  C  C249  1  0.75054002  0.12378321  0.13126705  1
  C  C250  1  0.75694146  0.45518484  0.13227203  1
  C  C251  1  0.75260816  0.78850665  0.13242404  1
  C  C252  1  0.24847384  0.21252450  0.87131217  1
  C  C253  1  0.25128655  0.54325148  0.86824648  1
  C  C254  1  0.24412770  0.87841142  0.86648531  1
  C  C255  1  0.74980975  0.21380839  0.87037690  1
  C  C256  1  0.74940738  0.54436844  0.86755077  1
  C  C257  1  0.74714416  0.87916215  0.87132256  1
  C  C258  1  0.24739287  0.12142682  0.36709305  1
  C  C259  1  0.25036106  0.45210927  0.37093616  1
  C  C260  1  0.25434108  0.79089776  0.36939716  1
  C  C261  1  0.74457375  0.11945285  0.36861839  1
  C  C262  1  0.74746409  0.45224275  0.36789514  1
  C  C263  1  0.75347180  0.78887040  0.37030298  1
  C  C264  1  0.80858214  0.75703685  0.04625930  1
  C  C265  1  0.81254948  0.09379294  0.04633138  1
  C  C266  1  0.97522816  0.07149870  0.53848279  1
  C  C267  1  0.02007573  0.07649441  0.96810303  1
  C  C268  1  0.01492026  0.74748753  0.53414372  1
  C  C269  1  0.78433573  0.09283258  0.46206115  1
  C  C270  1  0.30387229  0.24001095  0.96055816  1
  C  C271  1  0.52563809  0.41091820  0.96238742  1
  C  C272  1  0.29623575  0.57138255  0.95849257  1
  C  C273  1  0.50869824  0.07588782  0.96292020  1
  C  C274  1  0.93753551  0.40117632  0.95464933  1
  C  C275  1  0.56766368  0.07412171  0.54569095  1
  C  C276  1  0.95025501  0.59371882  0.04403749  1
  C  C277  1  0.71974678  0.42545484  0.46453933  1
  C  C278  1  0.79721675  0.24351098  0.96069061  1
  C  C279  1  0.52307113  0.40706343  0.53823591  1
  C  C280  1  0.56757842  0.92484603  0.04270744  1
  C  C281  1  0.51058602  0.73786034  0.96546907  1
  C  C282  1  0.79189341  0.56952371  0.54426787  1
  C  C283  1  0.22079526  0.09083251  0.03291980  1
  C  C284  1  0.30990369  0.42940620  0.04233807  1
  C  C285  1  0.80089195  0.42740097  0.45780976  1
  C  C286  1  0.46298659  0.25827183  0.03759961  1
  C  C287  1  0.18473902  0.09502271  0.45334604  1
  C  C288  1  0.93950569  0.07356062  0.96051476  1
  C  C289  1  0.22913708  0.42732553  0.03498647  1
  C  C290  1  0.19016268  0.23915293  0.54175448  1
  C  C291  1  0.72146004  0.57257138  0.96370280  1
  C  C292  1  0.05627452  0.06981238  0.54383812  1
  C  C293  1  0.45545576  0.91931949  0.46112639  1
  C  C294  1  0.45846245  0.59210724  0.04149587  1
  C  C295  1  0.01449332  0.92629330  0.46740934  1
  C  C296  1  0.01808465  0.40266279  0.96424753  1
  C  C297  1  0.80289289  0.57060512  0.95731538  1
  C  C298  1  0.43013969  0.73449450  0.95305703  1
  C  C299  1  0.70283535  0.09274402  0.46245064  1
  C  C300  1  0.26567607  0.09318654  0.46410089  1
  C  C301  1  0.01055896  0.26190348  0.03012424  1
  C  C302  1  0.97701152  0.25661016  0.46714184  1
  C  C303  1  0.93427119  0.93098259  0.45627671  1
  C  C304  1  0.72163789  0.75982260  0.46467603  1
  C  C305  1  0.93235973  0.26547851  0.04431451  1
  C  C306  1  0.96520140  0.93015357  0.04134414  1
  C  C307  1  0.22265121  0.24010352  0.96725018  1
  C  C308  1  0.46098678  0.59668399  0.45549192  1
  C  C309  1  0.68361232  0.91011452  0.95663075  1
  C  C310  1  0.80405767  0.42701850  0.04248129  1
  C  C311  1  0.19004883  0.42691577  0.45698851  1
  N  N312  1  0.28598517  0.90175176  0.95937401  1
  N  N313  1  0.73501677  0.23999757  0.53683776  1
  N  N314  1  0.43060787  0.07373748  0.95288352  1
  N  N315  1  0.52726577  0.74132726  0.53996758  1
  N  N316  1  0.26589880  0.24224119  0.52883675  1
  N  N317  1  0.76196509  0.91199288  0.96532471  1
  N  N318  1  0.72516677  0.42586131  0.03693830  1
  N  N319  1  0.81168692  0.23613189  0.54687359  1
  N  N320  1  0.43835360  0.25835149  0.45314841  1
  N  N321  1  0.44440073  0.40661870  0.54492558  1
  N  N322  1  0.02906416  0.59133079  0.03742407  1
  N  N323  1  0.44866067  0.40804438  0.95748034  1
  N  N324  1  0.28532097  0.91019772  0.53824294  1
  N  N325  1  0.54065972  0.59989975  0.46043523  1
  N  N326  1  0.73471056  0.08869918  0.03812724  1
  N  N327  1  0.22251677  0.75922703  0.03844629  1
  N  N328  1  0.21747871  0.75853168  0.46164807  1
  N  N329  1  0.45051221  0.74058488  0.54250510  1
  N  N330  1  0.21709863  0.57276786  0.96309050  1
  N  N331  1  0.05555440  0.25904962  0.45701573  1
  N  N332  1  0.97926757  0.40977463  0.53162743  1
  N  N333  1  0.05627708  0.40710498  0.54248455  1
  N  N334  1  0.80945525  0.90800916  0.54493848  1
  N  N335  1  0.72940226  0.75466623  0.03970476  1
  N  N336  1  0.06679618  0.59716389  0.45449641  1
  N  N337  1  0.94921516  0.74048755  0.95537119  1
  N  N338  1  0.93820155  0.74411711  0.54252825  1
  N  N339  1  0.19021580  0.56827296  0.54249284  1
  N  N340  1  0.71749605  0.24568282  0.96207620  1
  N  N341  1  0.54093813  0.25813970  0.03969738  1
  N  N342  1  0.02536844  0.74202774  0.95751738  1
  N  N343  1  0.29945644  0.09185797  0.03805349  1
  N  N344  1  0.73217132  0.91047722  0.53584251  1
  N  N345  1  0.71227972  0.56943669  0.53971949  1
  N  N346  1  0.48980499  0.07707372  0.53574428  1
  N  N347  1  0.53431203  0.92248384  0.46000241  1
  N  N348  1  0.29564871  0.75936240  0.45781924  1
  N  N349  1  0.51551043  0.25571608  0.46116285  1
  N  N350  1  0.80096768  0.75875411  0.45883032  1
  N  N351  1  0.04483299  0.93435773  0.03923564  1
  N  N352  1  0.53619934  0.59241454  0.03954678  1
  N  N353  1  0.20918849  0.90829867  0.54184815  1
  N  N354  1  0.99053145  0.59049056  0.46453769  1
  N  N355  1  0.20270708  0.90156208  0.96021409  1
  N  N356  1  0.26809478  0.57788637  0.53469490  1
  N  N357  1  0.48947665  0.92157384  0.03296288  1
  N  N358  1  0.26606734  0.42383211  0.46924204  1
  N  N359  1  0.29847572  0.76035296  0.04302894  1
  N  N360  1  0.07492413  0.05416025  0.60214827  1
  N  N361  1  0.06953696  0.38913016  0.60071006  1
  N  N362  1  0.05423181  0.72931496  0.58572594  1
  N  N363  1  0.57597034  0.05544922  0.60458360  1
  N  N364  1  0.55999684  0.39135069  0.59248792  1
  N  N365  1  0.55561477  0.72569630  0.59727499  1
  N  N366  1  0.43212507  0.27637599  0.09280979  1
  N  N367  1  0.43241293  0.60878711  0.09860471  1
  N  N368  1  0.44744769  0.94046152  0.08464175  1
  N  N369  1  0.92754853  0.28087039  0.10457237  1
  N  N370  1  0.93111130  0.61222767  0.10249924  1
  N  N371  1  0.94292670  0.94238007  0.09999119  1
  N  N372  1  0.42305864  0.05630933  0.89283693  1
  N  N373  1  0.43357260  0.38673611  0.89847405  1
  N  N374  1  0.42264234  0.71823906  0.89224027  1
  N  N375  1  0.92732504  0.05594531  0.89931786  1
  N  N376  1  0.92447250  0.38598576  0.89536041  1
  N  N377  1  0.92747275  0.72067941  0.89767400  1
  N  N378  1  0.06761152  0.27892892  0.39850554  1
  N  N379  1  0.07234504  0.61351887  0.39493485  1
  N  N380  1  0.05334599  0.94149233  0.41220540  1
  N  N381  1  0.55481559  0.27630893  0.41104378  1
  N  N382  1  0.57001026  0.61985333  0.40432714  1
  N  N383  1  0.56005490  0.94562267  0.40450417  1
  N  N384  1  0.30444876  0.22592203  0.58350755  1
  N  N385  1  0.30481602  0.55425610  0.58520946  1
  N  N386  1  0.31581227  0.89151980  0.59396047  1
  N  N387  1  0.81763727  0.21890508  0.60581097  1
  N  N388  1  0.81010070  0.55617210  0.60344270  1
  N  N389  1  0.82466328  0.88843453  0.60234062  1
  N  N390  1  0.19231876  0.10931219  0.08811551  1
  N  N391  1  0.19449359  0.44236989  0.08862645  1
  N  N392  1  0.19154830  0.77502109  0.09479417  1
  N  N393  1  0.69548109  0.10956243  0.08986748  1
  N  N394  1  0.69732456  0.44358093  0.09340626  1
  N  N395  1  0.69493733  0.77693273  0.09197669  1
  N  N396  1  0.18932791  0.22353164  0.91354325  1
  N  N397  1  0.19073976  0.55474641  0.90639305  1
  N  N398  1  0.18092979  0.87961525  0.90349474  1
  N  N399  1  0.68822598  0.22566277  0.90703428  1
  N  N400  1  0.68938103  0.55616814  0.90653544  1
  N  N401  1  0.67464726  0.89082302  0.89773950  1
  N  N402  1  0.30340755  0.10966715  0.41004898  1
  N  N403  1  0.30386696  0.43981364  0.41422899  1
  N  N404  1  0.31957031  0.77992270  0.40241045  1
  N  N405  1  0.80922746  0.10882990  0.40550907  1
  N  N406  1  0.81704432  0.44328490  0.39947992  1
  N  N407  1  0.82030941  0.77766305  0.40107977  1
  N  N408  1  0.42918174  0.27779509  0.39506254  1
  N  N409  1  0.44183000  0.60905466  0.39628540  1
  N  N410  1  0.43103695  0.93946550  0.40564268  1
  N  N411  1  0.94041551  0.27439956  0.41421189  1
  N  N412  1  0.94800406  0.60862548  0.41490656  1
  N  N413  1  0.92482820  0.94776544  0.39679146  1
  N  N414  1  0.05560152  0.06123072  0.91488036  1
  N  N415  1  0.05365185  0.38724366  0.90792815  1
  N  N416  1  0.05391010  0.72317306  0.90144182  1
  N  N417  1  0.54880253  0.05982878  0.91056153  1
  N  N418  1  0.56069385  0.39232829  0.90921288  1
  N  N419  1  0.55008243  0.72296170  0.91166152  1
  N  N420  1  0.05370218  0.27555082  0.08078731  1
  N  N421  1  0.05854622  0.60950589  0.09340391  1
  N  N422  1  0.07110827  0.95359445  0.09583955  1
  N  N423  1  0.55988912  0.27773646  0.09919369  1
  N  N424  1  0.56048422  0.61054515  0.09837949  1
  N  N425  1  0.57454578  0.94333412  0.10209731  1
  N  N426  1  0.44886467  0.05607546  0.58690463  1
  N  N427  1  0.43275526  0.38958880  0.60432604  1
  N  N428  1  0.42927227  0.72410966  0.60138127  1
  N  N429  1  0.94488557  0.05559747  0.59659958  1
  N  N430  1  0.94413755  0.39309649  0.58499242  1
  N  N431  1  0.92804949  0.72318024  0.60273081  1
  N  N432  1  0.17527069  0.11232784  0.39296817  1
  N  N433  1  0.17771997  0.44365130  0.39684531  1
  N  N434  1  0.19234868  0.77709205  0.40586990  1
  N  N435  1  0.67924631  0.10925009  0.40276688  1
  N  N436  1  0.68726646  0.44121244  0.40722419  1
  N  N437  1  0.69171446  0.77733613  0.40935523  1
  N  N438  1  0.31829727  0.22265786  0.89962852  1
  N  N439  1  0.31859754  0.55385175  0.90039551  1
  N  N440  1  0.30719736  0.89551456  0.89910980  1
  N  N441  1  0.81716515  0.22447170  0.90327460  1
  N  N442  1  0.81904176  0.55382202  0.89889895  1
  N  N443  1  0.80217697  0.89076678  0.91379940  1
  N  N444  1  0.32072191  0.11171915  0.09596918  1
  N  N445  1  0.32298582  0.44620229  0.10334746  1
  N  N446  1  0.31787438  0.77624514  0.10219607  1
  N  N447  1  0.82292880  0.11428226  0.10429395  1
  N  N448  1  0.82477953  0.44450439  0.10084358  1
  N  N449  1  0.82311104  0.77663786  0.10423095  1
  N  N450  1  0.17862220  0.22236583  0.60197069  1
  N  N451  1  0.17899328  0.55774099  0.60277841  1
  N  N452  1  0.18946018  0.88818942  0.59985557  1
  N  N453  1  0.69311856  0.22383448  0.58740716  1
  N  N454  1  0.68148950  0.55037225  0.59504885  1
  N  N455  1  0.69904014  0.89284006  0.58958640  1
  Cl  Cl456  1  0.26607249  0.06022126  0.61785667  1
  Cl  Cl457  1  0.24936367  0.38351846  0.62333502  1
  Cl  Cl458  1  0.24466064  0.72011118  0.60729612  1
  Cl  Cl459  1  0.75835494  0.05048734  0.62765859  1
  Cl  Cl460  1  0.75076360  0.38814667  0.60808727  1
  Cl  Cl461  1  0.74016080  0.72303910  0.61840735  1
  Cl  Cl462  1  0.24453758  0.27516605  0.10251768  1
  Cl  Cl463  1  0.24736785  0.61040016  0.11896232  1
  Cl  Cl464  1  0.25798962  0.94181305  0.10005689  1
  Cl  Cl465  1  0.74220426  0.27595998  0.12355686  1
  Cl  Cl466  1  0.74560701  0.61422049  0.12650367  1
  Cl  Cl467  1  0.76094561  0.94259370  0.10637869  1
  Cl  Cl468  1  0.23870190  0.05239163  0.88791273  1
  Cl  Cl469  1  0.24320594  0.38496396  0.88642956  1
  Cl  Cl470  1  0.23723255  0.71991514  0.87389246  1
  Cl  Cl471  1  0.73199035  0.05762706  0.89874543  1
  Cl  Cl472  1  0.74269439  0.38668480  0.87554424  1
  Cl  Cl473  1  0.73654266  0.72861487  0.89508679  1
  Cl  Cl474  1  0.24788785  0.28396766  0.36881025  1
  Cl  Cl475  1  0.25987574  0.60319843  0.38836231  1
  Cl  Cl476  1  0.24453733  0.94151102  0.37469043  1
  Cl  Cl477  1  0.74051083  0.27347279  0.40033378  1
  Cl  Cl478  1  0.75766348  0.60480146  0.40081497  1
  Cl  Cl479  1  0.74213486  0.94593529  0.37482540  1
  Cl  Cl480  1  -0.00240240  0.22143088  0.61714262  1
  Cl  Cl481  1  -0.00811202  0.56013378  0.60510745  1
  Cl  Cl482  1  0.00648987  0.88732533  0.62667363  1
  Cl  Cl483  1  0.50750967  0.22452650  0.59867221  1
  Cl  Cl484  1  0.49415283  0.56572359  0.60059591  1
  Cl  Cl485  1  0.51028522  0.89459676  0.60669982  1
  Cl  Cl486  1  0.00823692  0.11559543  0.11507579  1
  Cl  Cl487  1  0.01053105  0.44288140  0.11072747  1
  Cl  Cl488  1  0.00842792  0.78262103  0.11846303  1
  Cl  Cl489  1  0.50938892  0.10788787  0.11317754  1
  Cl  Cl490  1  0.51278375  0.44651698  0.12414863  1
  Cl  Cl491  1  0.50952130  0.78019514  0.11465222  1
  Cl  Cl492  1  0.00332979  0.21815813  0.88363001  1
  Cl  Cl493  1  0.00391727  0.55178694  0.87685699  1
  Cl  Cl494  1  -0.00676769  0.89677334  0.89800706  1
  Cl  Cl495  1  0.50719434  0.22238264  0.87220207  1
  Cl  Cl496  1  0.50243203  0.54949292  0.87377347  1
  Cl  Cl497  1  0.48941900  0.89063262  0.88617371  1
  Cl  Cl498  1  -0.00960624  0.11603238  0.37988404  1
  Cl  Cl499  1  -0.00220398  0.45030695  0.37534174  1
  Cl  Cl500  1  0.00500350  0.77854711  0.38526209  1
  Cl  Cl501  1  0.48855016  0.10545537  0.39185701  1
  Cl  Cl502  1  0.49779226  0.44470777  0.39176747  1
  Cl  Cl503  1  0.50410357  0.78433325  0.38324408  1
  Cl  Cl504  1  0.36142746  0.14767501  0.75991888  1
  Cl  Cl505  1  0.35805238  0.48081481  0.74400501  1
  Cl  Cl506  1  0.36397059  0.81097390  0.75589524  1
  Cl  Cl507  1  0.85884036  0.14789471  0.75129985  1
  Cl  Cl508  1  0.86229143  0.47934144  0.75217255  1
  Cl  Cl509  1  0.85838715  0.81466284  0.74823140  1
  Cl  Cl510  1  0.14099527  0.18489064  0.25361175  1
  Cl  Cl511  1  0.14038731  0.51759187  0.25511256  1
  Cl  Cl512  1  0.14817774  0.85117066  0.24452845  1
  Cl  Cl513  1  0.64500580  0.18511692  0.25215584  1
  Cl  Cl514  1  0.63975631  0.51975206  0.25565081  1
  Cl  Cl515  1  0.64433956  0.85096049  0.24902554  1
  Cl  Cl516  1  0.13892464  0.14912732  0.74049375  1
  Cl  Cl517  1  0.13678994  0.48198047  0.73971184  1
  Cl  Cl518  1  0.14392583  0.81685408  0.74774716  1
  Cl  Cl519  1  0.63865553  0.14860404  0.74756835  1
  Cl  Cl520  1  0.64085583  0.48058588  0.74625492  1
  Cl  Cl521  1  0.63627744  0.81723944  0.75372310  1
  Cl  Cl522  1  0.36050989  0.18400374  0.24673938  1
  Cl  Cl523  1  0.36283609  0.51716074  0.24719153  1
  Cl  Cl524  1  0.36757504  0.85492057  0.24316632  1
  Cl  Cl525  1  0.86354284  0.18627317  0.24704066  1
  Cl  Cl526  1  0.85813090  0.52036992  0.25429849  1
  Cl  Cl527  1  0.86501451  0.85272916  0.24853096  1
  Cl  Cl528  1  0.10986990  0.31400708  0.74313170  1
  Cl  Cl529  1  0.10497762  0.64946927  0.74204161  1
  Cl  Cl530  1  0.10844364  0.98236028  0.75610782  1
  Cl  Cl531  1  0.60889349  0.31447355  0.74789375  1
  Cl  Cl532  1  0.61061234  0.64680727  0.74656620  1
  Cl  Cl533  1  0.60694213  0.98285818  0.74890578  1
  Cl  Cl534  1  0.39623158  0.01969256  0.24733100  1
  Cl  Cl535  1  0.39141694  0.35053105  0.25119958  1
  Cl  Cl536  1  0.38693808  0.68855294  0.25612422  1
  Cl  Cl537  1  0.88923684  0.01993921  0.25126253  1
  Cl  Cl538  1  0.88851863  0.35213873  0.24825852  1
  Cl  Cl539  1  0.89154251  0.68597846  0.24952273  1
  Cl  Cl540  1  0.38715544  0.31522515  0.74987739  1
  Cl  Cl541  1  0.38835459  0.64560159  0.75360514  1
  Cl  Cl542  1  0.38389579  0.98008475  0.75733537  1
  Cl  Cl543  1  0.89095829  0.31354263  0.74649030  1
  Cl  Cl544  1  0.88064056  0.64538012  0.74200282  1
  Cl  Cl545  1  0.88737708  0.98057919  0.76010719  1
  Cl  Cl546  1  0.11019891  0.01739253  0.25166439  1
  Cl  Cl547  1  0.10740258  0.35016750  0.25318994  1
  Cl  Cl548  1  0.11428335  0.68418398  0.25840352  1
  Cl  Cl549  1  0.61400177  0.01865159  0.24465153  1
  Cl  Cl550  1  0.61283036  0.35081513  0.25114818  1
  Cl  Cl551  1  0.60936827  0.68478791  0.25028406  1
