# generated using pymatgen
data_H8PbC4(N3Cl2)2
_symmetry_space_group_name_H-M   'P 1'
_cell_length_a   16.62385974
_cell_length_b   22.50265073
_cell_length_c   21.58976985
_cell_angle_alpha   89.99949123
_cell_angle_beta   90.00723945
_cell_angle_gamma   89.99583379
_symmetry_Int_Tables_number   1
_chemical_formula_structural   H8PbC4(N3Cl2)2
_chemical_formula_sum   'H192 Pb24 C96 N144 Cl96'
_cell_volume   8076.32065618
_cell_formula_units_Z   24
loop_
 _symmetry_equiv_pos_site_id
 _symmetry_equiv_pos_as_xyz
  1  'x, y, z'
loop_
 _atom_site_type_symbol
 _atom_site_label
 _atom_site_symmetry_multiplicity
 _atom_site_fract_x
 _atom_site_fract_y
 _atom_site_fract_z
 _atom_site_occupancy
  H  H0  1  0.00139784  0.03193657  0.68150898  1
  H  H1  1  -0.00979011  0.36571505  0.67998391  1
  H  H2  1  0.00172640  0.69932171  0.68049919  1
  H  H3  1  0.50715839  0.03130321  0.68283950  1
  H  H4  1  0.51247030  0.36691454  0.68038582  1
  H  H5  1  0.49792916  0.69914090  0.67988632  1
  H  H6  1  0.01150867  0.30141989  0.17931094  1
  H  H7  1  -0.00285997  0.63602272  0.18006630  1
  H  H8  1  -0.00830474  0.96730219  0.18315745  1
  H  H9  1  0.49366219  0.30105472  0.18088696  1
  H  H10  1  0.49993730  0.63551550  0.18005291  1
  H  H11  1  0.51184126  0.96629867  0.18050089  1
  H  H12  1  -0.00100057  0.03296186  0.82258968  1
  H  H13  1  0.00061330  0.36637214  0.81916601  1
  H  H14  1  -0.00330136  0.69840936  0.82089395  1
  H  H15  1  0.49882166  0.03141483  0.81800333  1
  H  H16  1  0.50504646  0.36609655  0.81994329  1
  H  H17  1  0.49747351  0.69649681  0.82064188  1
  H  H18  1  0.00010238  0.30074996  0.31979013  1
  H  H19  1  -0.00300898  0.63418515  0.31792626  1
  H  H20  1  -0.00173628  0.96707660  0.32379447  1
  H  H21  1  0.49358707  0.30190927  0.31962016  1
  H  H22  1  0.49401840  0.63463899  0.32253652  1
  H  H23  1  0.50324992  0.96804153  0.31783636  1
  H  H24  1  0.25459524  0.19725851  0.67875899  1
  H  H25  1  0.24498834  0.53213053  0.67913282  1
  H  H26  1  0.24554354  0.86491140  0.67991509  1
  H  H27  1  0.74534048  0.19757601  0.68095943  1
  H  H28  1  0.75710972  0.53465809  0.67991208  1
  H  H29  1  0.74911725  0.86675838  0.68003476  1
  H  H30  1  0.25870284  0.13399408  0.18196252  1
  H  H31  1  0.24869774  0.46970514  0.17956755  1
  H  H32  1  0.24149914  0.80144146  0.17762144  1
  H  H33  1  0.74172937  0.13613490  0.17950727  1
  H  H34  1  0.75114919  0.47028571  0.17996469  1
  H  H35  1  0.75288694  0.79950245  0.18085346  1
  H  H36  1  0.25141006  0.19914821  0.81962801  1
  H  H37  1  0.25346013  0.53240604  0.82007002  1
  H  H38  1  0.25176790  0.86423829  0.81932648  1
  H  H39  1  0.74942234  0.19889421  0.81932670  1
  H  H40  1  0.74867689  0.53046699  0.81972639  1
  H  H41  1  0.75430371  0.86524830  0.81597810  1
  H  H42  1  0.25541126  0.13512656  0.31761130  1
  H  H43  1  0.24556207  0.46874836  0.32261474  1
  H  H44  1  0.25027173  0.80023425  0.31975596  1
  H  H45  1  0.74551508  0.13432771  0.31840544  1
  H  H46  1  0.75106524  0.46916942  0.31755027  1
  H  H47  1  0.74540127  0.80265960  0.32052568  1
  H  H48  1  0.11877593  0.05257751  0.60617366  1
  H  H49  1  0.12605593  0.38595374  0.62042170  1
  H  H50  1  0.11759505  0.72144438  0.60322621  1
  H  H51  1  0.62064220  0.05560198  0.60410648  1
  H  H52  1  0.61895712  0.39238900  0.59474053  1
  H  H53  1  0.61564137  0.72122355  0.60557619  1
  H  H54  1  0.37884173  0.27838810  0.10407079  1
  H  H55  1  0.37578605  0.61275869  0.10695534  1
  H  H56  1  0.37367884  0.94864841  0.12367796  1
  H  H57  1  0.87260551  0.28329838  0.12473498  1
  H  H58  1  0.87738859  0.61204333  0.10442708  1
  H  H59  1  0.87827045  0.94607265  0.10399421  1
  H  H60  1  0.37340198  0.05274723  0.88701993  1
  H  H61  1  0.37117195  0.38547873  0.88067388  1
  H  H62  1  0.37099802  0.71937882  0.89094026  1
  H  H63  1  0.87469446  0.05448598  0.89108697  1
  H  H64  1  0.87269898  0.38748489  0.88608752  1
  H  H65  1  0.87362659  0.72152200  0.89233988  1
  H  H66  1  0.12701343  0.28072920  0.38900422  1
  H  H67  1  0.12944046  0.61393060  0.38405661  1
  H  H68  1  0.12154822  0.94555736  0.39274822  1
  H  H69  1  0.62928712  0.28191296  0.37787307  1
  H  H70  1  0.62937060  0.61434845  0.38371618  1
  H  H71  1  0.62056504  0.94535630  0.39312087  1
  H  H72  1  0.36663171  0.22579991  0.59959023  1
  H  H73  1  0.37151994  0.55487299  0.60994692  1
  H  H74  1  0.37660742  0.88440887  0.61357293  1
  H  H75  1  0.87011986  0.22008777  0.60973430  1
  H  H76  1  0.86340460  0.55734157  0.59693347  1
  H  H77  1  0.88127630  0.88626048  0.61671298  1
  H  H78  1  0.12389137  0.11503393  0.11885148  1
  H  H79  1  0.13167783  0.44385049  0.10296749  1
  H  H80  1  0.12974111  0.77503103  0.09819077  1
  H  H81  1  0.63079050  0.11031177  0.09691981  1
  H  H82  1  0.62907890  0.44470303  0.10745860  1
  H  H83  1  0.62887642  0.77892287  0.11170460  1
  H  H84  1  0.12692546  0.21992219  0.89034978  1
  H  H85  1  0.12311616  0.55422915  0.88421994  1
  H  H86  1  0.12747404  0.88642599  0.89111491  1
  H  H87  1  0.62792822  0.22299854  0.89345579  1
  H  H88  1  0.62450147  0.55356968  0.89278379  1
  H  H89  1  0.62647132  0.88541666  0.88192444  1
  H  H90  1  0.37663004  0.11110664  0.39026493  1
  H  H91  1  0.37535883  0.44695335  0.38851417  1
  H  H92  1  0.38275066  0.78043164  0.38271745  1
  H  H93  1  0.87919118  0.11472286  0.37812270  1
  H  H94  1  0.87438663  0.44363226  0.38943459  1
  H  H95  1  0.88067453  0.78451552  0.38095113  1
  H  H96  1  0.38157256  0.27578869  0.40040162  1
  H  H97  1  0.38259655  0.61090070  0.40480824  1
  H  H98  1  0.37140239  0.94722247  0.37983362  1
  H  H99  1  0.87912161  0.27776449  0.39483360  1
  H  H100  1  0.88046357  0.61116350  0.39486362  1
  H  H101  1  0.87295571  0.94694611  0.39162414  1
  H  H102  1  0.12339133  0.05379227  0.89110209  1
  H  H103  1  0.12264501  0.38845523  0.89305270  1
  H  H104  1  0.12264417  0.72015974  0.89155125  1
  H  H105  1  0.62336142  0.05636855  0.88900212  1
  H  H106  1  0.61940272  0.38845516  0.89661928  1
  H  H107  1  0.61954157  0.72064462  0.89338685  1
  H  H108  1  0.11839199  0.27411181  0.09518208  1
  H  H109  1  0.12652314  0.61531524  0.11331016  1
  H  H110  1  0.12615078  0.94919315  0.12385486  1
  H  H111  1  0.62729643  0.28275095  0.11938216  1
  H  H112  1  0.62466647  0.61271208  0.10761229  1
  H  H113  1  0.61866115  0.94088526  0.09529533  1
  H  H114  1  0.37243355  0.05130536  0.62031631  1
  H  H115  1  0.37424086  0.38534059  0.62410553  1
  H  H116  1  0.36661084  0.71790562  0.61537885  1
  H  H117  1  0.86949555  0.05094459  0.61709440  1
  H  H118  1  0.87979040  0.39091398  0.59658568  1
  H  H119  1  0.86868901  0.72034862  0.61706022  1
  H  H120  1  0.12766061  0.11289921  0.38649361  1
  H  H121  1  0.12704791  0.44378860  0.39718703  1
  H  H122  1  0.13398468  0.78045938  0.39601141  1
  H  H123  1  0.63117748  0.11169843  0.39581488  1
  H  H124  1  0.62474458  0.44729669  0.38588810  1
  H  H125  1  0.63440163  0.77528766  0.40206184  1
  H  H126  1  0.37540882  0.22118828  0.89043397  1
  H  H127  1  0.37155325  0.55514085  0.89723394  1
  H  H128  1  0.37592953  0.88775188  0.89169812  1
  H  H129  1  0.87677548  0.21957186  0.88820076  1
  H  H130  1  0.87347243  0.55493086  0.89165538  1
  H  H131  1  0.87599548  0.88594791  0.88870502  1
  H  H132  1  0.37211491  0.11021898  0.10247276  1
  H  H133  1  0.37931068  0.44717216  0.11389331  1
  H  H134  1  0.37695461  0.78139149  0.11783381  1
  H  H135  1  0.87756745  0.11507468  0.11945402  1
  H  H136  1  0.87748020  0.44635576  0.11236664  1
  H  H137  1  0.87840619  0.77943443  0.11081422  1
  H  H138  1  0.11985148  0.21656578  0.61828634  1
  H  H139  1  0.12238745  0.55387526  0.60639565  1
  H  H140  1  0.12799933  0.88935512  0.60412145  1
  H  H141  1  0.62139075  0.22268792  0.61068074  1
  H  H142  1  0.61690975  0.55088195  0.62649387  1
  H  H143  1  0.63217866  0.88736510  0.60501106  1
  H  H144  1  0.60152879  0.58586883  0.49269327  1
  H  H145  1  0.93998320  0.92325686  -0.00538459  1
  H  H146  1  0.43903120  0.25182986  -0.00616362  1
  H  H147  1  0.56024101  0.74870849  0.49455791  1
  H  H148  1  0.94130530  0.58397963  0.50265936  1
  H  H149  1  0.55569413  0.08152269  0.49678584  1
  H  H150  1  0.68940053  0.91470703  0.49372839  1
  H  H151  1  0.93607930  0.24642519  0.49676975  1
  H  H152  1  0.69095310  0.08446940  0.50464240  1
  H  H153  1  0.66916066  0.42117519  0.49813824  1
  H  H154  1  0.04338533  0.24796758  -0.00475752  1
  H  H155  1  0.06546307  0.07905595  0.49662490  1
  H  H156  1  0.07014134  0.42096026  0.99549736  1
  H  H157  1  0.91083881  0.41610595  0.99731776  1
  H  H158  1  0.60460209  0.25108383  0.49055333  1
  H  H159  1  0.34352005  0.42001745  0.00731797  1
  H  H160  1  0.95325951  0.41335235  0.49514232  1
  H  H161  1  0.05834678  0.75034304  0.49483200  1
  H  H162  1  0.66620453  0.90818502  0.99631832  1
  H  H163  1  0.15094625  0.25514332  0.51480561  1
  H  H164  1  0.54222561  0.91406057  -0.00344811  1
  H  H165  1  0.54268843  0.41851272  0.49601515  1
  H  H166  1  0.40268641  0.91818356  0.49207991  1
  H  H167  1  0.31930865  0.26498224  0.98751922  1
  H  H168  1  0.57242006  0.07858393  0.99592772  1
  H  H169  1  0.67386365  0.74890986  0.00003665  1
  H  H170  1  0.70590799  0.75058786  0.50372805  1
  H  H171  1  0.83463897  0.24823982  0.99799358  1
  H  H172  1  0.10005490  0.92153547  0.01050350  1
  H  H173  1  0.41988427  0.07723198  0.99986317  1
  H  H174  1  0.85533492  0.08448098  0.49065812  1
  H  H175  1  0.08707874  0.58749665  0.00281603  1
  H  H176  1  0.44898713  0.25541089  0.50348747  1
  H  H177  1  0.19167482  0.75206942  0.50623275  1
  H  H178  1  0.56396370  0.91887366  0.50336369  1
  H  H179  1  0.32344835  0.08074769  0.49822393  1
  H  H180  1  0.41783948  0.74579560  0.99546758  1
  H  H181  1  0.32517414  0.91437534  0.99607707  1
  H  H182  1  0.79240530  0.58368388  0.49040598  1
  H  H183  1  0.82556872  0.90743767  1.00101374  1
  H  H184  1  0.70447223  0.08905057  -0.00516651  1
  H  H185  1  0.90303426  0.75131740  0.51078268  1
  H  H186  1  0.56192528  0.41773923  1.00484486  1
  H  H187  1  0.33485111  0.41953853  0.49564568  1
  H  H188  1  0.82136104  0.42515198  0.49703363  1
  H  H189  1  0.30551281  0.08614030  -0.00546733  1
  H  H190  1  0.29767709  0.24065640  0.49665165  1
  H  H191  1  0.18129101  0.22509495  0.99747757  1
  Pb  Pb192  1  0.24460848  0.04817128  0.74953172  1
  Pb  Pb193  1  0.24543891  0.38129862  0.75101168  1
  Pb  Pb194  1  0.24757765  0.71082196  0.75117007  1
  Pb  Pb195  1  0.74807923  0.04580406  0.75245858  1
  Pb  Pb196  1  0.74693256  0.38253113  0.74259945  1
  Pb  Pb197  1  0.74316781  0.71520927  0.74735095  1
  Pb  Pb198  1  0.25071010  0.28404462  0.24659511  1
  Pb  Pb199  1  0.25359049  0.62089236  0.25093812  1
  Pb  Pb200  1  0.25036799  0.95481289  0.24962344  1
  Pb  Pb201  1  0.75223927  0.28849479  0.25244319  1
  Pb  Pb202  1  0.75155088  0.62098420  0.25000732  1
  Pb  Pb203  1  0.75206869  0.94915802  0.24583630  1
  Pb  Pb204  1  -0.00564511  0.21427228  0.75216147  1
  Pb  Pb205  1  -0.00542794  0.54874907  0.74715269  1
  Pb  Pb206  1  0.00047974  0.87875177  0.75369698  1
  Pb  Pb207  1  0.49786953  0.21434579  0.74678077  1
  Pb  Pb208  1  0.49599852  0.54585822  0.75207766  1
  Pb  Pb209  1  0.49411507  0.88117181  0.75057817  1
  Pb  Pb210  1  -0.00069023  0.11955792  0.25157545  1
  Pb  Pb211  1  0.00241326  0.45478164  0.24917635  1
  Pb  Pb212  1  0.00699562  0.78556113  0.25135661  1
  Pb  Pb213  1  0.50545658  0.11850298  0.24611368  1
  Pb  Pb214  1  0.50083370  0.45388113  0.25254978  1
  Pb  Pb215  1  0.50151601  0.78738201  0.24980213  1
  C  C216  1  -0.00297845  0.04539414  0.63342148  1
  C  C217  1  -0.00181618  0.37997514  0.63237865  1
  C  C218  1  -0.00469606  0.71411366  0.63275473  1
  C  C219  1  0.49970007  0.04630639  0.63542955  1
  C  C220  1  0.50232605  0.38124888  0.63300497  1
  C  C221  1  0.49360219  0.71296692  0.63197239  1
  C  C222  1  0.00112654  0.28712765  0.13197675  1
  C  C223  1  0.00026054  0.62064122  0.13259903  1
  C  C224  1  -0.00097836  0.95394250  0.13512156  1
  C  C225  1  0.49970084  0.28716728  0.13307728  1
  C  C226  1  0.50010893  0.62057592  0.13234490  1
  C  C227  1  0.50182110  0.95216423  0.13304963  1
  C  C228  1  -0.00097696  0.04748131  0.87063531  1
  C  C229  1  -0.00091849  0.38140193  0.86703282  1
  C  C230  1  -0.00214642  0.71330108  0.86847500  1
  C  C231  1  0.49910220  0.04631311  0.86588600  1
  C  C232  1  0.49877009  0.38009266  0.86772356  1
  C  C233  1  0.49560288  0.71203893  0.86813476  1
  C  C234  1  0.00178995  0.28601244  0.36759277  1
  C  C235  1  0.00258112  0.61953386  0.36558978  1
  C  C236  1  -0.00244007  0.95295336  0.37187634  1
  C  C237  1  0.50134258  0.28709766  0.36720379  1
  C  C238  1  0.50243418  0.61983461  0.36998717  1
  C  C239  1  0.49812789  0.95342980  0.36566468  1
  C  C240  1  0.24685016  0.21267219  0.63134032  1
  C  C241  1  0.24639663  0.54695718  0.63160065  1
  C  C242  1  0.25042970  0.87947967  0.63236788  1
  C  C243  1  0.74585405  0.21317640  0.63368602  1
  C  C244  1  0.74587849  0.54778001  0.63233416  1
  C  C245  1  0.75395786  0.88027222  0.63206159  1
  C  C246  1  0.25144297  0.11968953  0.13433240  1
  C  C247  1  0.25360807  0.45402808  0.13213038  1
  C  C248  1  0.24967998  0.78623501  0.13057862  1
  C  C249  1  0.74960942  0.12088291  0.13221294  1
  C  C250  1  0.75238664  0.45435720  0.13283394  1
  C  C251  1  0.75290867  0.78583821  0.13277468  1
  C  C252  1  0.25121254  0.21363297  0.86768804  1
  C  C253  1  0.24956185  0.54701422  0.86763048  1
  C  C254  1  0.25216031  0.87928104  0.86709132  1
  C  C255  1  0.75131989  0.21373015  0.86702819  1
  C  C256  1  0.74882985  0.54602410  0.86719943  1
  C  C257  1  0.75209905  0.87958006  0.86396962  1
  C  C258  1  0.25309615  0.11981800  0.36519190  1
  C  C259  1  0.24978027  0.45363539  0.37012736  1
  C  C260  1  0.25556969  0.78689306  0.36777852  1
  C  C261  1  0.75230326  0.11997752  0.36619380  1
  C  C262  1  0.75057831  0.45426256  0.36551647  1
  C  C263  1  0.75328281  0.78787215  0.36802264  1
  C  C264  1  0.04342552  0.59597383  0.04074081  1
  C  C265  1  0.78875859  0.90091212  0.95992862  1
  C  C266  1  0.52574366  0.40669712  0.96452094  1
  C  C267  1  0.44420315  0.40538990  0.95747837  1
  C  C268  1  0.27491521  0.09522888  0.03810935  1
  C  C269  1  0.22651999  0.76223014  0.46484346  1
  C  C270  1  0.44735068  0.92856250  0.45683742  1
  C  C271  1  0.76248436  0.57311652  0.53386037  1
  C  C272  1  0.79522728  0.76113811  0.03939187  1
  C  C273  1  0.44302404  0.73740628  0.54068650  1
  C  C274  1  0.55341705  0.26346925  0.04297784  1
  C  C275  1  0.97506581  0.59393847  0.46066258  1
  C  C276  1  0.71361198  0.76011842  0.03822995  1
  C  C277  1  0.47243898  0.26196033  0.03581463  1
  C  C278  1  0.05393937  0.93114045  0.04489333  1
  C  C279  1  0.70689370  0.90099289  0.95763745  1
  C  C280  1  0.03923521  0.07346325  0.96248219  1
  C  C281  1  0.21463913  0.42493692  0.46489683  1
  C  C282  1  0.52912059  0.92852091  0.46199576  1
  C  C283  1  0.95874168  0.07352201  0.96251637  1
  C  C284  1  0.68218385  0.57064114  0.54574626  1
  C  C285  1  0.96179211  0.74097474  0.96132445  1
  C  C286  1  0.22049672  0.90763179  0.53806073  1
  C  C287  1  0.79359655  0.42545433  0.04118280  1
  C  C288  1  0.02765182  0.07004856  0.53653566  1
  C  C289  1  0.72508751  0.09440250  0.46300921  1
  C  C290  1  0.72398682  0.90507591  0.53532503  1
  C  C291  1  0.80675611  0.09499569  0.45638229  1
  C  C292  1  0.52358040  0.07203446  0.53970181  1
  C  C293  1  0.95357123  0.40618274  0.95938973  1
  C  C294  1  0.02537754  0.74009999  0.53711203  1
  C  C295  1  0.21155967  0.57399601  0.53844103  1
  C  C296  1  0.70717187  0.42831063  0.45782600  1
  C  C297  1  0.45680925  0.07181129  0.95869551  1
  C  C298  1  0.80534005  0.90467465  0.54123557  1
  C  C299  1  0.52459985  0.73865218  0.53558252  1
  C  C300  1  0.28622455  0.09259887  0.45869500  1
  C  C301  1  0.20367282  0.57471768  0.95807353  1
  C  C302  1  0.95591547  0.92752222  0.46391488  1
  C  C303  1  0.94631902  0.06897247  0.54210018  1
  C  C304  1  0.70790320  0.24076083  0.54053867  1
  C  C305  1  0.22682615  0.75584467  0.03592291  1
  C  C306  1  0.97249020  0.93082137  0.03757829  1
  C  C307  1  0.30787147  0.76272199  0.45860092  1
  C  C308  1  0.55801540  0.26002688  0.45502927  1
  C  C309  1  0.03666980  0.92704291  0.46433220  1
  C  C310  1  0.79208950  0.23876386  0.95957653  1
  C  C311  1  0.93781607  0.26021656  0.04555193  1
  N  N312  1  0.73344043  0.76063736  0.46235720  1
  N  N313  1  0.20686652  0.09354417  0.45784984  1
  N  N314  1  0.05411993  0.59467441  0.45693409  1
  N  N315  1  0.55390504  0.59568960  0.45821386  1
  N  N316  1  0.51674495  0.92801801  0.03728973  1
  N  N317  1  0.44459647  0.07145592  0.54538074  1
  N  N318  1  0.47867474  0.25767198  0.46169760  1
  N  N319  1  0.22033067  0.42677856  0.03739087  1
  N  N320  1  0.19325956  0.23534172  0.54303916  1
  N  N321  1  0.80756927  0.09446601  0.04470863  1
  N  N322  1  0.73005445  0.09299233  0.03807318  1
  N  N323  1  0.19609686  0.09650821  0.04392894  1
  N  N324  1  0.30412912  0.75808427  0.04088270  1
  N  N325  1  0.21026639  0.24108755  0.95897638  1
  N  N326  1  0.28799624  0.90555526  0.95895881  1
  N  N327  1  0.51729716  0.40635811  0.53750091  1
  N  N328  1  0.53633929  0.07489476  0.95773891  1
  N  N329  1  0.81097944  0.76441631  0.45659490  1
  N  N330  1  0.47660485  0.59417520  0.46649479  1
  N  N331  1  0.45706773  0.73920447  0.95899160  1
  N  N332  1  0.01604229  0.25777852  0.03665193  1
  N  N333  1  0.78677113  0.42614653  0.45784841  1
  N  N334  1  0.71581092  0.42447593  0.03839646  1
  N  N335  1  0.04859216  0.26360638  0.46037657  1
  N  N336  1  0.97938164  0.40627154  0.53773119  1
  N  N337  1  0.20969498  0.90517145  0.96006590  1
  N  N338  1  0.78565913  0.24025623  0.53906000  1
  N  N339  1  0.96415581  0.59387728  0.03729675  1
  N  N340  1  0.03909435  0.74078994  0.96234273  1
  N  N341  1  0.29782442  0.90578314  0.54000962  1
  N  N342  1  0.03345270  0.40488276  0.96119918  1
  N  N343  1  0.53570095  0.73887769  0.96158730  1
  N  N344  1  0.71118204  0.57389158  0.96063559  1
  N  N345  1  0.28116627  0.57488056  0.96363456  1
  N  N346  1  0.44006039  0.40403180  0.54598391  1
  N  N347  1  0.46238335  0.59238813  0.03908902  1
  N  N348  1  0.29872888  0.42826712  0.04233412  1
  N  N349  1  0.29359865  0.42678768  0.46105505  1
  N  N350  1  0.27142278  0.24704568  0.53928494  1
  N  N351  1  0.94618108  0.73961022  0.54318860  1
  N  N352  1  0.29109506  0.23314875  0.96133291  1
  N  N353  1  0.71286210  0.24016198  0.96181779  1
  N  N354  1  0.28881386  0.57469601  0.53833691  1
  N  N355  1  0.05683319  0.40432672  0.54423714  1
  N  N356  1  0.78736929  0.57462312  0.96020615  1
  N  N357  1  0.97001369  0.26335364  0.46131017  1
  N  N358  1  0.53866915  0.59262686  0.03920104  1
  N  N359  1  0.43941784  0.93017189  0.04587995  1
  N  N360  1  0.05807126  0.05517605  0.59481434  1
  N  N361  1  0.06791456  0.38941344  0.60374006  1
  N  N362  1  0.05616060  0.72413179  0.59262055  1
  N  N363  1  0.55892419  0.05720016  0.59476102  1
  N  N364  1  0.55690756  0.39235500  0.59002401  1
  N  N365  1  0.55503413  0.72335126  0.59366045  1
  N  N366  1  0.43959464  0.27676155  0.09342183  1
  N  N367  1  0.43692643  0.60970337  0.09669421  1
  N  N368  1  0.43099921  0.94544810  0.10526040  1
  N  N369  1  0.92874949  0.27783628  0.10474185  1
  N  N370  1  0.93894050  0.60956352  0.09505875  1
  N  N371  1  0.93936832  0.94479551  0.09423282  1
  N  N372  1  0.43332072  0.05580787  0.90125430  1
  N  N373  1  0.42895699  0.38935974  0.89862632  1
  N  N374  1  0.43159668  0.72208652  0.90276605  1
  N  N375  1  0.93365600  0.05786799  0.90640252  1
  N  N376  1  0.93227609  0.39058604  0.90115307  1
  N  N377  1  0.93358168  0.72448908  0.90486246  1
  N  N378  1  0.06730038  0.27885685  0.40210910  1
  N  N379  1  0.06946555  0.61048262  0.39760297  1
  N  N380  1  0.06226791  0.94233682  0.40814253  1
  N  N381  1  0.57193260  0.27671187  0.39589728  1
  N  N382  1  0.57081055  0.61062412  0.39957611  1
  N  N383  1  0.55955942  0.94391911  0.40471692  1
  N  N384  1  0.30494022  0.22242400  0.59059504  1
  N  N385  1  0.31082170  0.55774545  0.59762380  1
  N  N386  1  0.31679158  0.88777827  0.59994949  1
  N  N387  1  0.80922183  0.22275405  0.59836081  1
  N  N388  1  0.80139168  0.55857300  0.58921218  1
  N  N389  1  0.82276785  0.88988385  0.59977112  1
  N  N390  1  0.18329771  0.11103603  0.10386257  1
  N  N391  1  0.19320569  0.44232160  0.09359815  1
  N  N392  1  0.19102725  0.77306345  0.08937086  1
  N  N393  1  0.69295246  0.11150966  0.09026761  1
  N  N394  1  0.69015533  0.44317786  0.09679154  1
  N  N395  1  0.68842554  0.77585163  0.09750258  1
  N  N396  1  0.18724724  0.21811397  0.90378179  1
  N  N397  1  0.18182026  0.55777697  0.90005506  1
  N  N398  1  0.18812255  0.88921928  0.90261385  1
  N  N399  1  0.68906115  0.22478663  0.90368461  1
  N  N400  1  0.68569723  0.55618398  0.90306633  1
  N  N401  1  0.68537194  0.88803971  0.89758836  1
  N  N402  1  0.31614551  0.10879564  0.40220793  1
  N  N403  1  0.31587035  0.44501031  0.40264412  1
  N  N404  1  0.32471827  0.77758519  0.39985828  1
  N  N405  1  0.82161967  0.11084429  0.39604928  1
  N  N406  1  0.81351576  0.44569385  0.40183880  1
  N  N407  1  0.82269316  0.78017952  0.39752116  1
  N  N408  1  0.44380888  0.27758181  0.40832520  1
  N  N409  1  0.44471482  0.60936167  0.41148812  1
  N  N410  1  0.42965878  0.94388790  0.39688916  1
  N  N411  1  0.94041021  0.27425448  0.40438486  1
  N  N412  1  0.94169941  0.60878706  0.40488604  1
  N  N413  1  0.93182205  0.94319745  0.40738644  1
  N  N414  1  0.06437449  0.05779783  0.90644184  1
  N  N415  1  0.06130501  0.39183632  0.90349149  1
  N  N416  1  0.06187121  0.72319586  0.90314857  1
  N  N417  1  0.56244265  0.05601939  0.90132398  1
  N  N418  1  0.55842259  0.39061628  0.90747073  1
  N  N419  1  0.55871840  0.72298674  0.90443575  1
  N  N420  1  0.05614347  0.27623418  0.08933300  1
  N  N421  1  0.06692440  0.61155420  0.09912761  1
  N  N422  1  0.06876200  0.94549077  0.10546759  1
  N  N423  1  0.56932921  0.27835323  0.10163353  1
  N  N424  1  0.56362481  0.61003211  0.09693803  1
  N  N425  1  0.55638031  0.94054785  0.09027362  1
  N  N426  1  0.43167306  0.05551799  0.60516063  1
  N  N427  1  0.43146499  0.38896034  0.60563409  1
  N  N428  1  0.42511356  0.72195723  0.59901291  1
  N  N429  1  0.92819133  0.05415308  0.60071618  1
  N  N430  1  0.94171683  0.38951704  0.59035718  1
  N  N431  1  0.92789482  0.72432999  0.60226849  1
  N  N432  1  0.18819115  0.11017317  0.39925219  1
  N  N433  1  0.18729238  0.44121216  0.40880658  1
  N  N434  1  0.19486825  0.77753158  0.40710905  1
  N  N435  1  0.69230177  0.10986578  0.40631328  1
  N  N436  1  0.68444023  0.44403050  0.40014223  1
  N  N437  1  0.69670943  0.77619817  0.40923467  1
  N  N438  1  0.31478530  0.22782233  0.90146213  1
  N  N439  1  0.30982997  0.55724818  0.90594831  1
  N  N440  1  0.31519125  0.88939244  0.90283745  1
  N  N441  1  0.81712938  0.22259137  0.90162175  1
  N  N442  1  0.81237612  0.55742551  0.90230013  1
  N  N443  1  0.81567303  0.88807857  0.90131221  1
  N  N444  1  0.31083152  0.10940509  0.09336862  1
  N  N445  1  0.31980894  0.44505568  0.09958706  1
  N  N446  1  0.31832292  0.77724797  0.10150939  1
  N  N447  1  0.81905647  0.10974764  0.10383502  1
  N  N448  1  0.81827834  0.44310653  0.09838166  1
  N  N449  1  0.81861203  0.77657992  0.09648206  1
  N  N450  1  0.17808549  0.22346698  0.60271812  1
  N  N451  1  0.18243650  0.55729373  0.59455792  1
  N  N452  1  0.18903136  0.89168994  0.59351432  1
  N  N453  1  0.68117259  0.22467720  0.59791664  1
  N  N454  1  0.67291925  0.55548285  0.60559933  1
  N  N455  1  0.69277022  0.88975684  0.59316062  1
  Cl  Cl456  1  0.24691772  0.05211991  0.61787421  1
  Cl  Cl457  1  0.25055041  0.38595921  0.61615171  1
  Cl  Cl458  1  0.23956480  0.71874652  0.61766606  1
  Cl  Cl459  1  0.74274538  0.05382332  0.61996934  1
  Cl  Cl460  1  0.75179601  0.39319490  0.59923370  1
  Cl  Cl461  1  0.74176435  0.72377748  0.60747471  1
  Cl  Cl462  1  0.24527168  0.27377580  0.10381090  1
  Cl  Cl463  1  0.25148202  0.61578312  0.11880926  1
  Cl  Cl464  1  0.25187457  0.94552930  0.11574859  1
  Cl  Cl465  1  0.75063045  0.28311770  0.12118737  1
  Cl  Cl466  1  0.75053052  0.61537550  0.11988172  1
  Cl  Cl467  1  0.74524244  0.94394836  0.10958392  1
  Cl  Cl468  1  0.25182020  0.05449030  0.88461653  1
  Cl  Cl469  1  0.24543710  0.38358499  0.88371388  1
  Cl  Cl470  1  0.24791121  0.71927971  0.88422760  1
  Cl  Cl471  1  0.74386441  0.05895791  0.89014278  1
  Cl  Cl472  1  0.74835416  0.38507051  0.87315558  1
  Cl  Cl473  1  0.74533451  0.72135587  0.87956468  1
  Cl  Cl474  1  0.25746404  0.27574443  0.39357714  1
  Cl  Cl475  1  0.25782510  0.61404155  0.38301428  1
  Cl  Cl476  1  0.24633393  0.94760481  0.37693220  1
  Cl  Cl477  1  0.75659402  0.28283240  0.38446002  1
  Cl  Cl478  1  0.75493105  0.61391674  0.38650356  1
  Cl  Cl479  1  0.74417600  0.94483679  0.37885233  1
  Cl  Cl480  1  -0.00577360  0.21998985  0.61617948  1
  Cl  Cl481  1  -0.01022964  0.55427558  0.61183632  1
  Cl  Cl482  1  0.00587163  0.88358149  0.62275361  1
  Cl  Cl483  1  0.48988031  0.22871969  0.60393354  1
  Cl  Cl484  1  0.49347370  0.55120363  0.61937940  1
  Cl  Cl485  1  0.50490603  0.88665912  0.61834436  1
  Cl  Cl486  1  0.00045904  0.12067597  0.12127115  1
  Cl  Cl487  1  0.00724672  0.44226544  0.11110875  1
  Cl  Cl488  1  0.00372778  0.78006658  0.12310740  1
  Cl  Cl489  1  0.50684278  0.10700650  0.10253186  1
  Cl  Cl490  1  0.50302070  0.44318832  0.11991034  1
  Cl  Cl491  1  0.50138157  0.78191349  0.11750580  1
  Cl  Cl492  1  0.00585947  0.22552290  0.89199855  1
  Cl  Cl493  1  -0.00214126  0.55130863  0.88007421  1
  Cl  Cl494  1  0.00236496  0.88731494  0.88764325  1
  Cl  Cl495  1  0.49822497  0.21859589  0.88110825  1
  Cl  Cl496  1  0.49872237  0.55183591  0.88247906  1
  Cl  Cl497  1  0.50034058  0.88994806  0.89113603  1
  Cl  Cl498  1  0.00456135  0.11517792  0.38393513  1
  Cl  Cl499  1  -0.00362801  0.44038841  0.39030342  1
  Cl  Cl500  1  0.00722677  0.77979753  0.38852946  1
  Cl  Cl501  1  0.50504330  0.11379189  0.38049361  1
  Cl  Cl502  1  0.50240996  0.44265461  0.39262118  1
  Cl  Cl503  1  0.51392663  0.77654528  0.38480174  1
  Cl  Cl504  1  0.36254369  0.14489091  0.74910661  1
  Cl  Cl505  1  0.36189666  0.47674491  0.74888712  1
  Cl  Cl506  1  0.36194835  0.81067225  0.74872692  1
  Cl  Cl507  1  0.86108635  0.14527547  0.74865165  1
  Cl  Cl508  1  0.86115399  0.47643453  0.74846999  1
  Cl  Cl509  1  0.86349420  0.81067681  0.74534058  1
  Cl  Cl510  1  0.13936591  0.19033783  0.25052386  1
  Cl  Cl511  1  0.13989805  0.52090244  0.25109456  1
  Cl  Cl512  1  0.13986775  0.85536333  0.24770749  1
  Cl  Cl513  1  0.63972860  0.18815764  0.25005596  1
  Cl  Cl514  1  0.63907108  0.52045306  0.25421108  1
  Cl  Cl515  1  0.63829640  0.85656517  0.24872066  1
  Cl  Cl516  1  0.14263659  0.14498751  0.74838737  1
  Cl  Cl517  1  0.13710322  0.47632219  0.75098236  1
  Cl  Cl518  1  0.13804457  0.81234350  0.75302983  1
  Cl  Cl519  1  0.63488844  0.14515975  0.75192771  1
  Cl  Cl520  1  0.63891894  0.47587326  0.74353108  1
  Cl  Cl521  1  0.64102194  0.81118770  0.75180263  1
  Cl  Cl522  1  0.35787622  0.18931782  0.24957693  1
  Cl  Cl523  1  0.36302265  0.51955859  0.25139368  1
  Cl  Cl524  1  0.36505642  0.85621424  0.24896233  1
  Cl  Cl525  1  0.86360078  0.18832265  0.24930429  1
  Cl  Cl526  1  0.86511358  0.52125188  0.25178716  1
  Cl  Cl527  1  0.85967993  0.85630516  0.25185396  1
  Cl  Cl528  1  0.11325110  0.31036742  0.74822519  1
  Cl  Cl529  1  0.10994120  0.64478187  0.75182689  1
  Cl  Cl530  1  0.11166275  0.97880993  0.75408185  1
  Cl  Cl531  1  0.60867123  0.31155639  0.74663177  1
  Cl  Cl532  1  0.61105308  0.64453559  0.74794250  1
  Cl  Cl533  1  0.61165394  0.97826625  0.75603287  1
  Cl  Cl534  1  0.38641694  0.02287469  0.24675557  1
  Cl  Cl535  1  0.38793972  0.35373700  0.25209864  1
  Cl  Cl536  1  0.38959219  0.68856255  0.25176195  1
  Cl  Cl537  1  0.89197223  0.02306714  0.25088183  1
  Cl  Cl538  1  0.88880653  0.35535830  0.24899115  1
  Cl  Cl539  1  0.88748125  0.69001098  0.25132415  1
  Cl  Cl540  1  0.38521130  0.31121966  0.74937859  1
  Cl  Cl541  1  0.38726672  0.64476369  0.74827679  1
  Cl  Cl542  1  0.39100781  0.97659828  0.74916042  1
  Cl  Cl543  1  0.89320742  0.31069992  0.74971294  1
  Cl  Cl544  1  0.88927699  0.64383863  0.74646393  1
  Cl  Cl545  1  0.88587875  0.97809486  0.75078993  1
  Cl  Cl546  1  0.11461212  0.02314175  0.24753387  1
  Cl  Cl547  1  0.11247751  0.35327027  0.25227644  1
  Cl  Cl548  1  0.11018842  0.68804828  0.25370366  1
  Cl  Cl549  1  0.60682476  0.02248328  0.24974848  1
  Cl  Cl550  1  0.61286837  0.35349423  0.25322618  1
  Cl  Cl551  1  0.61394591  0.68763847  0.25243169  1
