# generated using pymatgen
data_H8PbC4(N3Cl2)2
_symmetry_space_group_name_H-M   'P 1'
_cell_length_a   16.62500235
_cell_length_b   22.50637397
_cell_length_c   21.59000078
_cell_angle_alpha   90.00016778
_cell_angle_beta   89.98083854
_cell_angle_gamma   89.99973947
_symmetry_Int_Tables_number   1
_chemical_formula_structural   H8PbC4(N3Cl2)2
_chemical_formula_sum   'H192 Pb24 C96 N144 Cl96'
_cell_volume   8078.29818759
_cell_formula_units_Z   24
loop_
 _symmetry_equiv_pos_site_id
 _symmetry_equiv_pos_as_xyz
  1  'x, y, z'
loop_
 _atom_site_type_symbol
 _atom_site_label
 _atom_site_symmetry_multiplicity
 _atom_site_fract_x
 _atom_site_fract_y
 _atom_site_fract_z
 _atom_site_occupancy
  H  H0  1  -0.00302768  0.03140712  0.68079791  1
  H  H1  1  0.00680008  0.36496805  0.68386162  1
  H  H2  1  0.00535380  0.69845745  0.67953145  1
  H  H3  1  0.50503397  0.03210097  0.67855772  1
  H  H4  1  0.49162405  0.36550625  0.68144077  1
  H  H5  1  0.50819727  0.69869495  0.68047205  1
  H  H6  1  0.00681693  0.30000315  0.18350084  1
  H  H7  1  -0.01040009  0.63695164  0.17767099  1
  H  H8  1  -0.00595600  0.96952153  0.17686568  1
  H  H9  1  0.48638161  0.29922099  0.17507056  1
  H  H10  1  0.50958474  0.63594090  0.17790488  1
  H  H11  1  0.49942325  0.96933654  0.17853195  1
  H  H12  1  0.00441179  0.03078978  0.82064249  1
  H  H13  1  0.01380776  0.36607402  0.82334251  1
  H  H14  1  -0.01036777  0.69600535  0.81942735  1
  H  H15  1  0.49985194  0.02887546  0.82460486  1
  H  H16  1  0.48735012  0.36353190  0.82134763  1
  H  H17  1  0.50244638  0.69754106  0.82127995  1
  H  H18  1  0.00337625  0.30233999  0.32036948  1
  H  H19  1  -0.00156986  0.63580699  0.32239655  1
  H  H20  1  0.00189705  0.96796324  0.32064376  1
  H  H21  1  0.49923624  0.30297673  0.31762895  1
  H  H22  1  0.49985452  0.63826314  0.31777615  1
  H  H23  1  0.49908847  0.96662298  0.32040560  1
  H  H24  1  0.24674803  0.19655148  0.68222028  1
  H  H25  1  0.26286890  0.53222649  0.67918355  1
  H  H26  1  0.25010507  0.86416590  0.67697969  1
  H  H27  1  0.74498557  0.19824287  0.67671415  1
  H  H28  1  0.73672676  0.53288060  0.67663286  1
  H  H29  1  0.74484748  0.86402528  0.68066245  1
  H  H30  1  0.24430068  0.13450057  0.17797601  1
  H  H31  1  0.25159556  0.47208205  0.18079335  1
  H  H32  1  0.25684987  0.80293204  0.17815541  1
  H  H33  1  0.75025156  0.13699895  0.17988779  1
  H  H34  1  0.74377776  0.46978333  0.17586370  1
  H  H35  1  0.74456328  0.80330465  0.17797227  1
  H  H36  1  0.23794424  0.19475894  0.82200086  1
  H  H37  1  0.25011966  0.53257242  0.82192489  1
  H  H38  1  0.25417031  0.86513238  0.82017169  1
  H  H39  1  0.76477487  0.19617891  0.82105486  1
  H  H40  1  0.74958899  0.53236048  0.82536056  1
  H  H41  1  0.74909254  0.86666909  0.81936081  1
  H  H42  1  0.26105100  0.13552600  0.32063007  1
  H  H43  1  0.24414605  0.46928718  0.31832548  1
  H  H44  1  0.24862336  0.80189002  0.31923611  1
  H  H45  1  0.73976572  0.13568897  0.31779259  1
  H  H46  1  0.76161500  0.46626236  0.31850257  1
  H  H47  1  0.74485012  0.80280875  0.31803659  1
  H  H48  1  0.12411952  0.05153881  0.61355612  1
  H  H49  1  0.12641324  0.38650730  0.60969941  1
  H  H50  1  0.12461934  0.72195393  0.60520078  1
  H  H51  1  0.62000704  0.05806811  0.60008618  1
  H  H52  1  0.62859193  0.38228594  0.62554567  1
  H  H53  1  0.62393508  0.72338879  0.60367690  1
  H  H54  1  0.38050015  0.27320082  0.09076359  1
  H  H55  1  0.37223222  0.61705502  0.11964518  1
  H  H56  1  0.37747379  0.94434573  0.10696503  1
  H  H57  1  0.87791501  0.28092542  0.11692640  1
  H  H58  1  0.88144133  0.60992474  0.09436197  1
  H  H59  1  0.88388328  0.94072024  0.09667698  1
  H  H60  1  0.37364579  0.05402337  0.89270634  1
  H  H61  1  0.37739268  0.39057672  0.90417071  1
  H  H62  1  0.36870224  0.71732416  0.88276759  1
  H  H63  1  0.87734081  0.05262241  0.88636620  1
  H  H64  1  0.87143302  0.38464613  0.87208986  1
  H  H65  1  0.87345132  0.72163229  0.89888214  1
  H  H66  1  0.12126569  0.27608207  0.39477378  1
  H  H67  1  0.11868049  0.61172392  0.39773471  1
  H  H68  1  0.11559285  0.94449324  0.39970561  1
  H  H69  1  0.62338952  0.27942662  0.39041031  1
  H  H70  1  0.62421962  0.61079192  0.38790882  1
  H  H71  1  0.61534296  0.94380626  0.39524587  1
  H  H72  1  0.37301023  0.21846050  0.61095261  1
  H  H73  1  0.37074916  0.56143003  0.59749226  1
  H  H74  1  0.38362397  0.88677040  0.61592352  1
  H  H75  1  0.87824734  0.22026151  0.61555574  1
  H  H76  1  0.88009387  0.55104035  0.62909615  1
  H  H77  1  0.88192533  0.88481396  0.62180253  1
  H  H78  1  0.13269758  0.10840667  0.09663561  1
  H  H79  1  0.12674302  0.44631022  0.11021108  1
  H  H80  1  0.13046186  0.78112125  0.11249416  1
  H  H81  1  0.62222120  0.11199167  0.11256547  1
  H  H82  1  0.63102460  0.44347444  0.09499764  1
  H  H83  1  0.63011457  0.77777334  0.09928595  1
  H  H84  1  0.13056484  0.22247962  0.90667727  1
  H  H85  1  0.12564195  0.55340390  0.89108923  1
  H  H86  1  0.12070700  0.88778268  0.88433136  1
  H  H87  1  0.62514906  0.21489291  0.87500680  1
  H  H88  1  0.62451206  0.55335802  0.89294404  1
  H  H89  1  0.61761439  0.88603009  0.88363271  1
  H  H90  1  0.37433949  0.10744531  0.39906431  1
  H  H91  1  0.37226227  0.44645724  0.38368333  1
  H  H92  1  0.37670699  0.78137794  0.38796914  1
  H  H93  1  0.87671917  0.11671050  0.37739129  1
  H  H94  1  0.86574567  0.44251689  0.40256798  1
  H  H95  1  0.87534728  0.77915726  0.38588272  1
  H  H96  1  0.37421401  0.27829367  0.38728267  1
  H  H97  1  0.37486112  0.61427322  0.38698248  1
  H  H98  1  0.36682214  0.94890181  0.38432882  1
  H  H99  1  0.87296583  0.28099767  0.38616421  1
  H  H100  1  0.87108298  0.61139885  0.39058167  1
  H  H101  1  0.86698000  0.94692040  0.38175947  1
  H  H102  1  0.12664929  0.05472372  0.89242239  1
  H  H103  1  0.11473675  0.39585963  0.90985841  1
  H  H104  1  0.12134422  0.71751320  0.88461162  1
  H  H105  1  0.62268631  0.05374738  0.89459494  1
  H  H106  1  0.62332734  0.38474703  0.88047434  1
  H  H107  1  0.61740945  0.72076783  0.89771063  1
  H  H108  1  0.12757263  0.27752277  0.10824391  1
  H  H109  1  0.12722041  0.61635400  0.11990011  1
  H  H110  1  0.13057812  0.95169146  0.11791432  1
  H  H111  1  0.62529306  0.28359845  0.12253060  1
  H  H112  1  0.61795952  0.60997612  0.09402498  1
  H  H113  1  0.62620216  0.94544919  0.10951589  1
  H  H114  1  0.37149353  0.04989526  0.61586500  1
  H  H115  1  0.38178503  0.38991206  0.60059082  1
  H  H116  1  0.37540814  0.71923853  0.61641819  1
  H  H117  1  0.87469342  0.05579284  0.61029430  1
  H  H118  1  0.87690787  0.38460286  0.61934707  1
  H  H119  1  0.87585289  0.71819794  0.61641030  1
  H  H120  1  0.12661781  0.11569207  0.38267278  1
  H  H121  1  0.12292251  0.44321384  0.39204240  1
  H  H122  1  0.12754653  0.77829974  0.39376077  1
  H  H123  1  0.62952541  0.10962233  0.39922799  1
  H  H124  1  0.62042335  0.44990208  0.37029669  1
  H  H125  1  0.62684978  0.77878521  0.39561822  1
  H  H126  1  0.37598426  0.21741738  0.87800913  1
  H  H127  1  0.37469706  0.55448558  0.89028638  1
  H  H128  1  0.36816383  0.88838362  0.90108015  1
  H  H129  1  0.86888908  0.22617375  0.90704956  1
  H  H130  1  0.87359609  0.55421689  0.89378327  1
  H  H131  1  0.86669327  0.88870677  0.89371199  1
  H  H132  1  0.37947926  0.11484831  0.11898091  1
  H  H133  1  0.37619209  0.44551092  0.11220139  1
  H  H134  1  0.37958266  0.77987577  0.10603190  1
  H  H135  1  0.87042904  0.11175994  0.10523626  1
  H  H136  1  0.87775235  0.44787824  0.11368389  1
  H  H137  1  0.87841616  0.78155133  0.11748927  1
  H  H138  1  0.12384180  0.22076265  0.61135589  1
  H  H139  1  0.12564899  0.54957314  0.62215385  1
  H  H140  1  0.13556961  0.89002682  0.59905642  1
  H  H141  1  0.63009431  0.22270202  0.59853687  1
  H  H142  1  0.63767915  0.56244791  0.58878519  1
  H  H143  1  0.63477628  0.88850587  0.59897049  1
  H  H144  1  0.17097695  0.74870729  0.00017256  1
  H  H145  1  0.71963809  0.58393675  0.49060880  1
  H  H146  1  0.91365658  0.40877571  0.50514328  1
  H  H147  1  0.03451889  0.41901733  1.00859704  1
  H  H148  1  0.20065731  0.91724660  0.49566754  1
  H  H149  1  0.84536388  0.42206192  0.00467373  1
  H  H150  1  0.79151151  0.41579239  0.50854782  1
  H  H151  1  0.84405661  0.24865236  0.50758623  1
  H  H152  1  0.69862344  0.08282645  0.50426310  1
  H  H153  1  0.91199715  0.58667234  0.49755452  1
  H  H154  1  0.55825348  0.91509787  0.50571282  1
  H  H155  1  0.57400428  0.59332744  0.49555557  1
  H  H156  1  0.95554229  0.92516463  -0.00596440  1
  H  H157  1  0.81124909  0.91543551  1.00488656  1
  H  H158  1  0.78929504  0.24442291  1.00710123  1
  H  H159  1  0.89821263  0.91819455  0.48947254  1
  H  H160  1  0.92088100  0.08543266  0.50067971  1
  H  H161  1  0.60952138  0.41198108  0.51059728  1
  H  H162  1  0.41701474  0.08366153  0.99784764  1
  H  H163  1  0.55443058  0.08398378  0.49658183  1
  H  H164  1  0.32998192  0.42041248  0.00058378  1
  H  H165  1  0.29772132  0.57336606  0.49583384  1
  H  H166  1  0.44894354  0.41310757  0.49247303  1
  H  H167  1  0.33260644  0.75317150  0.49774470  1
  H  H168  1  0.15397382  0.59293893  0.52174391  1
  H  H169  1  0.17826788  0.43154034  0.00183227  1
  H  H170  1  0.05320864  0.91598574  0.50693256  1
  H  H171  1  0.91813868  0.25656042  0.00382408  1
  H  H172  1  0.39797455  0.58888126  0.01235577  1
  H  H173  1  0.10106509  0.58765929  0.01268508  1
  H  H174  1  0.42215604  0.24863081  0.49600793  1
  H  H175  1  0.66590240  0.08495280  0.00733084  1
  H  H176  1  0.42165749  0.58996215  0.49908552  1
  H  H177  1  0.20841738  0.24516003  1.00661368  1
  H  H178  1  0.10262033  0.91499252  0.01292696  1
  H  H179  1  0.91099089  0.74828176  0.50277261  1
  H  H180  1  0.69644562  0.74803017  -0.00304614  1
  H  H181  1  0.91759914  0.08319645  0.99877429  1
  H  H182  1  0.07033393  0.24297641  0.00673061  1
  H  H183  1  0.33122237  0.41961874  0.49698689  1
  H  H184  1  0.08549583  0.08344466  0.50336436  1
  H  H185  1  0.17973817  0.43185511  0.49930319  1
  H  H186  1  0.07167161  0.40084631  0.49601260  1
  H  H187  1  0.45115306  0.41196327  1.00576948  1
  H  H188  1  0.17395471  0.24735604  0.50145335  1
  H  H189  1  0.70412110  0.91431852  0.49338874  1
  H  H190  1  0.55804543  0.75114586  1.00676678  1
  H  H191  1  0.60851011  0.25561037  1.00678415  1
  Pb  Pb192  1  0.25146533  0.04557304  0.75063862  1
  Pb  Pb193  1  0.25276010  0.38414869  0.75309246  1
  Pb  Pb194  1  0.24856096  0.71269819  0.74691287  1
  Pb  Pb195  1  0.74834417  0.04651993  0.74925361  1
  Pb  Pb196  1  0.75004224  0.37926881  0.75048223  1
  Pb  Pb197  1  0.74905286  0.71446189  0.75701743  1
  Pb  Pb198  1  0.24589442  0.28394655  0.24577652  1
  Pb  Pb199  1  0.24934336  0.62136750  0.25881910  1
  Pb  Pb200  1  0.24418968  0.95197051  0.25639708  1
  Pb  Pb201  1  0.74701902  0.28499334  0.25173256  1
  Pb  Pb202  1  0.74468931  0.61761477  0.24685913  1
  Pb  Pb203  1  0.75004371  0.95375283  0.24781750  1
  Pb  Pb204  1  0.00032885  0.21286447  0.76075022  1
  Pb  Pb205  1  -0.00104853  0.54609417  0.75196131  1
  Pb  Pb206  1  0.00141990  0.88059365  0.75080491  1
  Pb  Pb207  1  0.49982661  0.21232374  0.74303564  1
  Pb  Pb208  1  0.50469987  0.54925260  0.74064262  1
  Pb  Pb209  1  0.49967802  0.87847899  0.74838635  1
  Pb  Pb210  1  -0.00124567  0.12023107  0.24525188  1
  Pb  Pb211  1  -0.00229659  0.45271535  0.25322786  1
  Pb  Pb212  1  -0.00331625  0.78421723  0.25333009  1
  Pb  Pb213  1  0.49644640  0.11755071  0.25616278  1
  Pb  Pb214  1  0.49484975  0.45119608  0.24254339  1
  Pb  Pb215  1  0.50024439  0.78811433  0.24900292  1
  C  C216  1  -0.00141410  0.04668413  0.63305428  1
  C  C217  1  0.00325480  0.37896214  0.63576810  1
  C  C218  1  0.00126046  0.71328996  0.63195051  1
  C  C219  1  0.49909197  0.04635979  0.63088789  1
  C  C220  1  0.50115112  0.37940278  0.63376129  1
  C  C221  1  0.50209972  0.71378127  0.63319766  1
  C  C222  1  0.00451433  0.28554629  0.13551107  1
  C  C223  1  -0.00026155  0.62136182  0.13076276  1
  C  C224  1  0.00300603  0.95449643  0.12944079  1
  C  C225  1  0.49829358  0.28573551  0.12785548  1
  C  C226  1  0.49969501  0.62104249  0.13069232  1
  C  C227  1  0.50142095  0.95331532  0.13136341  1
  C  C228  1  0.00219113  0.04621455  0.86807447  1
  C  C229  1  0.00017970  0.38108342  0.87003915  1
  C  C230  1  -0.00542993  0.71138879  0.86691176  1
  C  C231  1  0.49827632  0.04523333  0.87177845  1
  C  C232  1  0.49538015  0.37842820  0.86868091  1
  C  C233  1  0.49642426  0.71214796  0.86884104  1
  C  C234  1  -0.00114356  0.28684647  0.36754948  1
  C  C235  1  -0.00412319  0.62016155  0.36992844  1
  C  C236  1  -0.00579146  0.95309875  0.36820566  1
  C  C237  1  0.49915945  0.28696219  0.36499991  1
  C  C238  1  0.50017531  0.62237867  0.36535073  1
  C  C239  1  0.49385299  0.95304617  0.36836488  1
  C  C240  1  0.24815222  0.21227768  0.63470701  1
  C  C241  1  0.25319018  0.54684614  0.63171055  1
  C  C242  1  0.25640405  0.87937578  0.62958231  1
  C  C243  1  0.75157864  0.21331279  0.62930795  1
  C  C244  1  0.75130783  0.54750175  0.62998780  1
  C  C245  1  0.75430254  0.87895774  0.63338507  1
  C  C246  1  0.25197249  0.11973112  0.13070156  1
  C  C247  1  0.25089725  0.45576310  0.13336523  1
  C  C248  1  0.25506070  0.78767817  0.13066278  1
  C  C249  1  0.74746324  0.12050951  0.13275419  1
  C  C250  1  0.75128430  0.45470232  0.12847982  1
  C  C251  1  0.75080724  0.78786925  0.13076091  1
  C  C252  1  0.24757497  0.21116090  0.86866126  1
  C  C253  1  0.25016580  0.54706309  0.86975501  1
  C  C254  1  0.24748494  0.87940647  0.86797738  1
  C  C255  1  0.75368029  0.21182216  0.86779325  1
  C  C256  1  0.74922810  0.54715061  0.87335551  1
  C  C257  1  0.74473127  0.88051622  0.86725286  1
  C  C258  1  0.25370262  0.12000990  0.36766032  1
  C  C259  1  0.24581017  0.45340538  0.36588762  1
  C  C260  1  0.25104178  0.78674918  0.36694075  1
  C  C261  1  0.74897529  0.12111278  0.36520655  1
  C  C262  1  0.74933293  0.45275575  0.36584273  1
  C  C263  1  0.74918498  0.78707371  0.36548480  1
  C  C264  1  0.69471424  0.90497617  0.95813743  1
  C  C265  1  0.03726303  0.39864569  0.53878060  1
  C  C266  1  0.56056446  0.40247192  0.54500799  1
  C  C267  1  0.96061132  0.07419842  0.53888864  1
  C  C268  1  0.76380539  0.42673855  0.46437706  1
  C  C269  1  0.29387078  0.75981777  0.03708797  1
  C  C270  1  0.44302082  0.73844012  0.95828810  1
  C  C271  1  0.93207108  0.40795348  0.95356898  1
  C  C272  1  0.77587760  0.90573700  0.96371995  1
  C  C273  1  0.31087799  0.90946659  0.54050564  1
  C  C274  1  0.29095207  0.57358547  0.96245439  1
  C  C275  1  0.55957748  0.26335261  0.03954871  1
  C  C276  1  0.95879000  0.07317417  0.96121601  1
  C  C277  1  0.27853356  0.08977050  0.46215845  1
  C  C278  1  0.47945947  0.40405766  0.53601534  1
  C  C279  1  0.72168473  0.24272459  0.53366773  1
  C  C280  1  0.29234337  0.42837297  0.04090498  1
  C  C281  1  0.82103247  0.57352781  0.54678483  1
  C  C282  1  0.52331687  0.92689452  0.46485985  1
  C  C283  1  0.73419239  0.90480656  0.53712431  1
  C  C284  1  0.78874926  0.57382304  0.96508111  1
  C  C285  1  0.02952557  0.25768209  0.46172139  1
  C  C286  1  0.44167415  0.92949500  0.45977171  1
  C  C287  1  0.95418008  0.73908605  0.53945648  1
  C  C288  1  0.52966817  0.74356869  0.53907827  1
  C  C289  1  0.46665306  0.92349002  0.03890394  1
  C  C290  1  0.70853210  0.57322205  0.96491101  1
  C  C291  1  0.95805747  0.26480932  0.04276974  1
  C  C292  1  0.04043519  0.07368150  0.96173717  1
  C  C293  1  0.21249809  0.23814779  0.54127857  1
  C  C294  1  0.46140082  0.25958256  0.45741776  1
  C  C295  1  0.45861760  0.59594237  0.45800806  1
  C  C296  1  0.44481204  0.07172818  0.54057722  1
  C  C297  1  0.04282158  0.07299734  0.54014943  1
  C  C298  1  0.52412533  0.73975382  0.96527961  1
  C  C299  1  0.72903777  0.09399581  0.46104562  1
  C  C300  1  0.02149109  0.92656289  0.46420575  1
  C  C301  1  0.03581442  0.74035511  0.53727447  1
  C  C302  1  0.95538434  0.40011439  0.54280942  1
  C  C303  1  0.47917501  0.25952126  0.03026552  1
  C  C304  1  0.29173119  0.76211363  0.45938450  1
  C  C305  1  0.68419717  0.42912634  0.45147821  1
  C  C306  1  0.21219846  0.75963082  0.03758297  1
  C  C307  1  0.20936555  0.57345051  0.96261734  1
  C  C308  1  0.29204183  0.42748666  0.45749387  1
  C  C309  1  0.53844325  0.07531498  0.96497839  1
  C  C310  1  0.80558579  0.75810123  0.04207047  1
  C  C311  1  0.30483473  0.09320659  0.04200180  1
  N  N312  1  0.03779154  0.26396174  0.04053234  1
  N  N313  1  0.80096465  0.42956523  0.03992985  1
  N  N314  1  0.30899146  0.24094695  0.95352880  1
  N  N315  1  0.80768010  0.09606255  0.45386020  1
  N  N316  1  0.44497729  0.59693425  0.04391539  1
  N  N317  1  0.04272275  0.73928132  0.95739926  1
  N  N318  1  0.19532816  0.56665750  0.54414105  1
  N  N319  1  0.03291598  0.59579128  0.46470850  1
  N  N320  1  0.53822036  0.59350355  0.45696871  1
  N  N321  1  0.72343059  0.42751378  0.03271506  1
  N  N322  1  0.29186088  0.23852010  0.54127254  1
  N  N323  1  0.72700558  0.75759265  0.03701619  1
  N  N324  1  0.22794202  0.09071317  0.03366388  1
  N  N325  1  0.97700897  0.59261473  0.03453265  1
  N  N326  1  0.52348822  0.07386386  0.53631054  1
  N  N327  1  0.19784705  0.90272657  0.95939261  1
  N  N328  1  0.95442678  0.59570570  0.46116243  1
  N  N329  1  0.20136170  0.09265317  0.45832301  1
  N  N330  1  0.95168826  0.25965621  0.45987021  1
  N  N331  1  0.27365826  0.58116950  0.53899878  1
  N  N332  1  0.94254811  0.92727709  0.45679136  1
  N  N333  1  0.52216263  0.59407365  0.03376553  1
  N  N334  1  0.23194651  0.90933847  0.53578525  1
  N  N335  1  0.54068257  0.25993849  0.45874572  1
  N  N336  1  0.21237787  0.76069021  0.46171645  1
  N  N337  1  0.78466272  0.09398572  0.03853454  1
  N  N338  1  0.45901040  0.07513118  0.96296104  1
  N  N339  1  0.05862085  0.93277828  0.04173023  1
  N  N340  1  0.23189149  0.24128880  0.96249170  1
  N  N341  1  0.71801823  0.75919681  0.46047186  1
  N  N342  1  0.70636276  0.09349926  0.04262534  1
  N  N343  1  0.74374761  0.57704113  0.53413039  1
  N  N344  1  0.55413141  0.40488172  0.95587520  1
  N  N345  1  0.79416215  0.75880511  0.45704663  1
  N  N346  1  0.81273652  0.90428496  0.54501726  1
  N  N347  1  0.47678905  0.40687762  0.96269643  1
  N  N348  1  0.80031836  0.24062873  0.54020146  1
  N  N349  1  0.00955687  0.41089118  0.96566089  1
  N  N350  1  0.76627519  0.23967199  0.96285379  1
  N  N351  1  0.27383055  0.90404757  0.96460515  1
  N  N352  1  0.21228540  0.42639456  0.45946541  1
  N  N353  1  0.98095895  0.92027398  0.03711952  1
  N  N354  1  0.96648313  0.74066899  0.96184172  1
  N  N355  1  0.05429797  0.59508648  0.04460027  1
  N  N356  1  0.54397479  0.92402293  0.03838575  1
  N  N357  1  0.21257992  0.42831410  0.04109637  1
  N  N358  1  0.45215339  0.74189718  0.54191506  1
  N  N359  1  0.68966803  0.23671088  0.95272439  1
  N  N360  1  0.06472693  0.05599268  0.59898952  1
  N  N361  1  0.06597448  0.38610162  0.59724625  1
  N  N362  1  0.06399650  0.72486334  0.59301436  1
  N  N363  1  0.55815030  0.05722173  0.59141701  1
  N  N364  1  0.57221988  0.38730279  0.60587736  1
  N  N365  1  0.56271849  0.72647635  0.59355974  1
  N  N366  1  0.44219787  0.27293730  0.08353495  1
  N  N367  1  0.43024041  0.61326233  0.10224843  1
  N  N368  1  0.43774154  0.94106757  0.09479518  1
  N  N369  1  0.93729038  0.27958896  0.10113741  1
  N  N370  1  0.94337479  0.60850000  0.08885100  1
  N  N371  1  0.94581167  0.94390705  0.08812085  1
  N  N372  1  0.43397639  0.05599495  0.90562768  1
  N  N373  1  0.43903290  0.38844938  0.91071386  1
  N  N374  1  0.42683089  0.72183928  0.90009376  1
  N  N375  1  0.93619092  0.05619736  0.90172335  1
  N  N376  1  0.92619615  0.39035992  0.89412694  1
  N  N377  1  0.93522456  0.72327018  0.90602386  1
  N  N378  1  0.06043312  0.27412378  0.40603319  1
  N  N379  1  0.05774207  0.61048227  0.40773582  1
  N  N380  1  0.05388739  0.94250335  0.40920483  1
  N  N381  1  0.56227643  0.27681814  0.40093702  1
  N  N382  1  0.56375427  0.61347926  0.40083595  1
  N  N383  1  0.55465259  0.94193908  0.40705177  1
  N  N384  1  0.31227565  0.22237030  0.59986874  1
  N  N385  1  0.30966198  0.55635434  0.58944213  1
  N  N386  1  0.32595435  0.89132960  0.59887562  1
  N  N387  1  0.81944448  0.22197940  0.59895827  1
  N  N388  1  0.82570506  0.55638176  0.60653333  1
  N  N389  1  0.82372287  0.88807659  0.60518784  1
  N  N390  1  0.19474033  0.10762888  0.09020544  1
  N  N391  1  0.18734272  0.44898311  0.09728463  1
  N  N392  1  0.18935124  0.77699568  0.09703456  1
  N  N393  1  0.68248676  0.11054185  0.09914219  1
  N  N394  1  0.69277406  0.44297658  0.08798366  1
  N  N395  1  0.69208181  0.77721091  0.09104151  1
  N  N396  1  0.19274349  0.22124564  0.91183667  1
  N  N397  1  0.18529031  0.55731324  0.90540835  1
  N  N398  1  0.17999091  0.88765855  0.89926856  1
  N  N399  1  0.68214288  0.22083308  0.89349763  1
  N  N400  1  0.68345549  0.55722986  0.90893306  1
  N  N401  1  0.67621624  0.88985664  0.90001131  1
  N  N402  1  0.31312206  0.10617400  0.40785088  1
  N  N403  1  0.31294876  0.44223783  0.39919958  1
  N  N404  1  0.31694376  0.77760201  0.40135502  1
  N  N405  1  0.81823180  0.11278582  0.39406642  1
  N  N406  1  0.80389332  0.44171920  0.40965091  1
  N  N407  1  0.81488113  0.77544327  0.39793200  1
  N  N408  1  0.43427400  0.27580177  0.40012248  1
  N  N409  1  0.43458049  0.61185705  0.40065514  1
  N  N410  1  0.42483820  0.94500339  0.40104027  1
  N  N411  1  0.93275731  0.27801814  0.40001691  1
  N  N412  1  0.93103593  0.61059181  0.40383144  1
  N  N413  1  0.92587741  0.94353101  0.39774795  1
  N  N414  1  0.06632511  0.05762391  0.90552255  1
  N  N415  1  0.05255266  0.39186870  0.91460026  1
  N  N416  1  0.06145297  0.72121078  0.89857090  1
  N  N417  1  0.56262666  0.05710895  0.90839642  1
  N  N418  1  0.56507111  0.38885334  0.89691493  1
  N  N419  1  0.55644424  0.72310014  0.90831836  1
  N  N420  1  0.06610154  0.27308030  0.09901935  1
  N  N421  1  0.06920667  0.61268275  0.10261325  1
  N  N422  1  0.07252456  0.94505110  0.10139247  1
  N  N423  1  0.57004850  0.27946436  0.10112854  1
  N  N424  1  0.55585690  0.60899316  0.08835015  1
  N  N425  1  0.56596213  0.94288491  0.09733343  1
  N  N426  1  0.42957599  0.05513638  0.59923372  1
  N  N427  1  0.44343183  0.38985858  0.59175774  1
  N  N428  1  0.43497450  0.72335598  0.60212434  1
  N  N429  1  0.93456897  0.05790061  0.59706499  1
  N  N430  1  0.93571795  0.38810858  0.60320236  1
  N  N431  1  0.93403899  0.72244263  0.59964785  1
  N  N432  1  0.18580039  0.11171763  0.39804075  1
  N  N433  1  0.18387560  0.44589106  0.40350012  1
  N  N434  1  0.18885789  0.77594150  0.40378407  1
  N  N435  1  0.69151249  0.10909833  0.40696235  1
  N  N436  1  0.67564485  0.44471589  0.39189732  1
  N  N437  1  0.68862325  0.77675310  0.40406546  1
  N  N438  1  0.31808785  0.22381348  0.89470105  1
  N  N439  1  0.31512584  0.55760230  0.90524609  1
  N  N440  1  0.30606248  0.88945371  0.90834774  1
  N  N441  1  0.80716484  0.22248848  0.91185541  1
  N  N442  1  0.81449021  0.55819355  0.90910171  1
  N  N443  1  0.80615907  0.89034768  0.90572354  1
  N  N444  1  0.32201018  0.11071609  0.10101575  1
  N  N445  1  0.31622066  0.44324563  0.09854438  1
  N  N446  1  0.31942723  0.77659405  0.09332306  1
  N  N447  1  0.80939866  0.10956115  0.09533286  1
  N  N448  1  0.81914425  0.44670320  0.09780979  1
  N  N449  1  0.82061028  0.77640677  0.10021440  1
  N  N450  1  0.18419748  0.22279116  0.59845856  1
  N  N451  1  0.18316905  0.55738420  0.60508450  1
  N  N452  1  0.19731502  0.88891500  0.58989229  1
  N  N453  1  0.69114779  0.22579478  0.58880077  1
  N  N454  1  0.69978981  0.55814487  0.58478008  1
  N  N455  1  0.69693746  0.88986509  0.59115449  1
  Cl  Cl456  1  0.24800427  0.04748728  0.61902865  1
  Cl  Cl457  1  0.25414454  0.39481499  0.61112328  1
  Cl  Cl458  1  0.24969298  0.71797894  0.61456825  1
  Cl  Cl459  1  0.74234920  0.05756426  0.61344603  1
  Cl  Cl460  1  0.75460131  0.38300795  0.61734147  1
  Cl  Cl461  1  0.74567930  0.71433960  0.62621116  1
  Cl  Cl462  1  0.25032520  0.27443350  0.10441255  1
  Cl  Cl463  1  0.25011398  0.61487147  0.12684711  1
  Cl  Cl464  1  0.25373848  0.95009515  0.12520635  1
  Cl  Cl465  1  0.75809590  0.27174055  0.11207905  1
  Cl  Cl466  1  0.74835048  0.61431082  0.11404772  1
  Cl  Cl467  1  0.76084925  0.94299773  0.11338337  1
  Cl  Cl468  1  0.25110558  0.05350470  0.88171307  1
  Cl  Cl469  1  0.24358266  0.39617346  0.89778034  1
  Cl  Cl470  1  0.24429514  0.71704402  0.87935091  1
  Cl  Cl471  1  0.74540251  0.05412147  0.88212375  1
  Cl  Cl472  1  0.74747179  0.38496643  0.88077329  1
  Cl  Cl473  1  0.74503594  0.72356145  0.89516502  1
  Cl  Cl474  1  0.24621528  0.28068658  0.37889905  1
  Cl  Cl475  1  0.24748396  0.60513683  0.39624547  1
  Cl  Cl476  1  0.23708601  0.94336702  0.39392797  1
  Cl  Cl477  1  0.74830835  0.27930439  0.38499290  1
  Cl  Cl478  1  0.74656243  0.60463861  0.39274353  1
  Cl  Cl479  1  0.74143450  0.94511120  0.38390342  1
  Cl  Cl480  1  0.00093639  0.22162070  0.62936137  1
  Cl  Cl481  1  0.00410222  0.55295716  0.61863950  1
  Cl  Cl482  1  0.01229105  0.88997403  0.61485941  1
  Cl  Cl483  1  0.50140761  0.21665063  0.61032182  1
  Cl  Cl484  1  0.50625158  0.56514375  0.59894898  1
  Cl  Cl485  1  0.51230797  0.88742622  0.61385556  1
  Cl  Cl486  1  -0.00046930  0.11217202  0.10964498  1
  Cl  Cl487  1  0.00475113  0.44033323  0.10767075  1
  Cl  Cl488  1  0.00266200  0.78620689  0.12511751  1
  Cl  Cl489  1  0.50264051  0.11063425  0.12022809  1
  Cl  Cl490  1  0.50077897  0.44142842  0.10526085  1
  Cl  Cl491  1  0.50765710  0.77861990  0.11376443  1
  Cl  Cl492  1  0.00287401  0.22699743  0.90326854  1
  Cl  Cl493  1  0.00118548  0.54749680  0.88211911  1
  Cl  Cl494  1  -0.00647922  0.89598900  0.89009729  1
  Cl  Cl495  1  0.49985179  0.21158661  0.87581305  1
  Cl  Cl496  1  0.49819231  0.55102503  0.87246635  1
  Cl  Cl497  1  0.49004259  0.88566729  0.88014915  1
  Cl  Cl498  1  0.00251994  0.11499437  0.37829479  1
  Cl  Cl499  1  -0.00345211  0.44226957  0.38747574  1
  Cl  Cl500  1  0.00060177  0.78005341  0.38931886  1
  Cl  Cl501  1  0.50517879  0.10695128  0.39375650  1
  Cl  Cl502  1  0.49231333  0.44961746  0.37530019  1
  Cl  Cl503  1  0.50364871  0.78032771  0.38118318  1
  Cl  Cl504  1  0.36014519  0.14730972  0.74987815  1
  Cl  Cl505  1  0.35726435  0.47829354  0.74791902  1
  Cl  Cl506  1  0.36025817  0.81256422  0.74495031  1
  Cl  Cl507  1  0.86015653  0.14775622  0.75019336  1
  Cl  Cl508  1  0.86185181  0.47900239  0.74863217  1
  Cl  Cl509  1  0.86305562  0.81257905  0.74655106  1
  Cl  Cl510  1  0.14068978  0.18951228  0.24979153  1
  Cl  Cl511  1  0.13912832  0.51992269  0.24978127  1
  Cl  Cl512  1  0.14379586  0.85494258  0.25061055  1
  Cl  Cl513  1  0.64351947  0.18907777  0.24699223  1
  Cl  Cl514  1  0.64115483  0.52230073  0.25338896  1
  Cl  Cl515  1  0.64181261  0.85185572  0.24779426  1
  Cl  Cl516  1  0.13797915  0.14570112  0.75149566  1
  Cl  Cl517  1  0.13897535  0.47799139  0.74457314  1
  Cl  Cl518  1  0.13662190  0.81270290  0.75053737  1
  Cl  Cl519  1  0.63835667  0.14779212  0.75230310  1
  Cl  Cl520  1  0.64010191  0.48046312  0.74815253  1
  Cl  Cl521  1  0.64143765  0.81271435  0.75428848  1
  Cl  Cl522  1  0.36288342  0.18642670  0.24980968  1
  Cl  Cl523  1  0.36005778  0.51977155  0.25057370  1
  Cl  Cl524  1  0.36299845  0.85553548  0.25310198  1
  Cl  Cl525  1  0.86354315  0.18781415  0.25196048  1
  Cl  Cl526  1  0.86173080  0.51948699  0.24710088  1
  Cl  Cl527  1  0.86397903  0.85425691  0.25131857  1
  Cl  Cl528  1  0.10760914  0.31433682  0.75366199  1
  Cl  Cl529  1  0.11239642  0.64379752  0.74786340  1
  Cl  Cl530  1  0.10969014  0.98014308  0.75334197  1
  Cl  Cl531  1  0.61213516  0.31264949  0.75255863  1
  Cl  Cl532  1  0.60726004  0.64644093  0.75087062  1
  Cl  Cl533  1  0.61095269  0.97953969  0.75373067  1
  Cl  Cl534  1  0.39211690  0.02285383  0.25491557  1
  Cl  Cl535  1  0.39409823  0.35404241  0.24365673  1
  Cl  Cl536  1  0.38826604  0.68695689  0.24815625  1
  Cl  Cl537  1  0.88898263  0.02060673  0.25357429  1
  Cl  Cl538  1  0.89286915  0.35460044  0.24674256  1
  Cl  Cl539  1  0.89438106  0.68636724  0.25180727  1
  Cl  Cl540  1  0.38983048  0.31455280  0.74952089  1
  Cl  Cl541  1  0.38537166  0.64501921  0.74690917  1
  Cl  Cl542  1  0.38999557  0.98015796  0.74544440  1
  Cl  Cl543  1  0.88650758  0.31249898  0.75735858  1
  Cl  Cl544  1  0.89228555  0.64418575  0.74716186  1
  Cl  Cl545  1  0.88743815  0.98006031  0.74752143  1
  Cl  Cl546  1  0.10939510  0.01911293  0.24816956  1
  Cl  Cl547  1  0.11353967  0.35497297  0.24639364  1
  Cl  Cl548  1  0.11299409  0.68652040  0.25122899  1
  Cl  Cl549  1  0.61384528  0.02067175  0.24754393  1
  Cl  Cl550  1  0.61458377  0.35537705  0.24696336  1
  Cl  Cl551  1  0.60896364  0.68458230  0.25054857  1
