# generated using pymatgen
data_H8PbC4(N3Cl2)2
_symmetry_space_group_name_H-M   'P 1'
_cell_length_a   16.62042315
_cell_length_b   22.50165634
_cell_length_c   21.58872870
_cell_angle_alpha   90.00174912
_cell_angle_beta   89.99222151
_cell_angle_gamma   90.00002341
_symmetry_Int_Tables_number   1
_chemical_formula_structural   H8PbC4(N3Cl2)2
_chemical_formula_sum   'H192 Pb24 C96 N144 Cl96'
_cell_volume   8073.90487810
_cell_formula_units_Z   24
loop_
 _symmetry_equiv_pos_site_id
 _symmetry_equiv_pos_as_xyz
  1  'x, y, z'
loop_
 _atom_site_type_symbol
 _atom_site_label
 _atom_site_symmetry_multiplicity
 _atom_site_fract_x
 _atom_site_fract_y
 _atom_site_fract_z
 _atom_site_occupancy
  H  H0  1  0.00347109  0.03191972  0.68193612  1
  H  H1  1  0.00248579  0.36468877  0.67829291  1
  H  H2  1  0.00532931  0.69850497  0.68242959  1
  H  H3  1  0.49701011  0.03285677  0.68070920  1
  H  H4  1  0.50113960  0.36537969  0.67873013  1
  H  H5  1  0.49460736  0.69820211  0.67899274  1
  H  H6  1  -0.00130101  0.30086637  0.18008494  1
  H  H7  1  0.00310314  0.63498502  0.18167360  1
  H  H8  1  0.00447022  0.96902391  0.18044379  1
  H  H9  1  0.49898601  0.29958294  0.18066835  1
  H  H10  1  0.49673447  0.63457440  0.17919580  1
  H  H11  1  0.49986489  0.96735139  0.18149967  1
  H  H12  1  -0.00095622  0.03238358  0.82061904  1
  H  H13  1  0.00462114  0.36525374  0.82097991  1
  H  H14  1  -0.00145407  0.69882544  0.82181968  1
  H  H15  1  0.50732373  0.03307399  0.82102639  1
  H  H16  1  0.49440771  0.36486823  0.81772934  1
  H  H17  1  0.49810773  0.69792124  0.82024441  1
  H  H18  1  0.00033385  0.30078486  0.31944594  1
  H  H19  1  -0.00112575  0.63463333  0.31840408  1
  H  H20  1  0.00728980  0.96727165  0.31823528  1
  H  H21  1  0.50365830  0.30263156  0.31958830  1
  H  H22  1  0.50358140  0.63488298  0.31954188  1
  H  H23  1  0.50073439  0.96745088  0.31963443  1
  H  H24  1  0.24528882  0.19781583  0.67985796  1
  H  H25  1  0.25182946  0.53121723  0.68261417  1
  H  H26  1  0.24226942  0.86548101  0.68313060  1
  H  H27  1  0.74179005  0.19695168  0.68123314  1
  H  H28  1  0.75337088  0.53123108  0.67992406  1
  H  H29  1  0.74799163  0.86544542  0.68120658  1
  H  H30  1  0.25039880  0.13357968  0.17809378  1
  H  H31  1  0.24226206  0.46764572  0.18309972  1
  H  H32  1  0.25726874  0.80064939  0.18112088  1
  H  H33  1  0.74664302  0.13487924  0.18035828  1
  H  H34  1  0.74935505  0.46946830  0.17963520  1
  H  H35  1  0.74769424  0.80112808  0.18071026  1
  H  H36  1  0.25518393  0.19993234  0.82058289  1
  H  H37  1  0.25232197  0.53414814  0.81863546  1
  H  H38  1  0.24445290  0.86530363  0.82062544  1
  H  H39  1  0.74437937  0.19960408  0.82038085  1
  H  H40  1  0.74286680  0.53274503  0.81792663  1
  H  H41  1  0.74983577  0.86281464  0.81946682  1
  H  H42  1  0.25603904  0.13558114  0.32015214  1
  H  H43  1  0.24962010  0.46818049  0.31834408  1
  H  H44  1  0.25756639  0.80248133  0.31856858  1
  H  H45  1  0.75193222  0.13451939  0.31656381  1
  H  H46  1  0.74535325  0.46807687  0.32274288  1
  H  H47  1  0.74710404  0.80147840  0.31908709  1
  H  H48  1  0.12362330  0.05470302  0.60992717  1
  H  H49  1  0.12169727  0.38794042  0.60277769  1
  H  H50  1  0.12581708  0.72071454  0.60924902  1
  H  H51  1  0.62244485  0.05215044  0.61263147  1
  H  H52  1  0.62144684  0.39090591  0.60588207  1
  H  H53  1  0.63048164  0.71771470  0.62111674  1
  H  H54  1  0.38260059  0.27815030  0.10482591  1
  H  H55  1  0.37935920  0.61029713  0.10230415  1
  H  H56  1  0.37255506  0.94550532  0.11182035  1
  H  H57  1  0.87915842  0.27691769  0.10651932  1
  H  H58  1  0.87662036  0.61405861  0.11225729  1
  H  H59  1  0.87034994  0.94870405  0.11968446  1
  H  H60  1  0.36930477  0.05094810  0.87645633  1
  H  H61  1  0.37550217  0.38895298  0.89284127  1
  H  H62  1  0.38039603  0.72306492  0.89775661  1
  H  H63  1  0.87081041  0.05357096  0.88919097  1
  H  H64  1  0.87175252  0.38266495  0.88459568  1
  H  H65  1  0.87992109  0.72362794  0.89632186  1
  H  H66  1  0.12535603  0.27940142  0.38888636  1
  H  H67  1  0.12634931  0.61339289  0.38620191  1
  H  H68  1  0.11809563  0.94562246  0.39814876  1
  H  H69  1  0.61886882  0.27746389  0.39824792  1
  H  H70  1  0.62776567  0.61169491  0.39177240  1
  H  H71  1  0.62407584  0.94509103  0.39094857  1
  H  H72  1  0.37647294  0.21924429  0.61428686  1
  H  H73  1  0.37337663  0.55300038  0.61050755  1
  H  H74  1  0.37696209  0.88510584  0.62011172  1
  H  H75  1  0.87785659  0.21749006  0.62103738  1
  H  H76  1  0.87377857  0.55511188  0.60676900  1
  H  H77  1  0.87779954  0.88698139  0.61536540  1
  H  H78  1  0.12906371  0.10882103  0.10577702  1
  H  H79  1  0.12962073  0.44424047  0.10287389  1
  H  H80  1  0.12048984  0.78127273  0.12132290  1
  H  H81  1  0.63252321  0.11228781  0.10158304  1
  H  H82  1  0.62699557  0.44526475  0.10629239  1
  H  H83  1  0.62308029  0.77745187  0.10787502  1
  H  H84  1  0.12061756  0.21577959  0.88276176  1
  H  H85  1  0.12084550  0.55278616  0.88287894  1
  H  H86  1  0.13228332  0.89217419  0.90009393  1
  H  H87  1  0.62249217  0.22115910  0.89316087  1
  H  H88  1  0.62394667  0.55642271  0.89568383  1
  H  H89  1  0.62730221  0.88721267  0.89037280  1
  H  H90  1  0.37434850  0.11044385  0.39524005  1
  H  H91  1  0.37547747  0.44551192  0.38950651  1
  H  H92  1  0.36931336  0.77611136  0.40038520  1
  H  H93  1  0.87605068  0.11276254  0.38806595  1
  H  H94  1  0.87802934  0.44671676  0.38525143  1
  H  H95  1  0.87422855  0.78016185  0.38699391  1
  H  H96  1  0.37018573  0.28096318  0.38003646  1
  H  H97  1  0.37908175  0.61258347  0.39075066  1
  H  H98  1  0.37478909  0.94846078  0.38728073  1
  H  H99  1  0.87624038  0.28045545  0.38879842  1
  H  H100  1  0.87678842  0.61328822  0.38944928  1
  H  H101  1  0.87032189  0.94973885  0.37629445  1
  H  H102  1  0.11946760  0.05681321  0.89355303  1
  H  H103  1  0.11922941  0.39238479  0.89809038  1
  H  H104  1  0.12858411  0.72001818  0.88756974  1
  H  H105  1  0.61518296  0.05863061  0.90449667  1
  H  H106  1  0.62411831  0.38444590  0.88539996  1
  H  H107  1  0.62880139  0.71966426  0.88571698  1
  H  H108  1  0.12764965  0.27902060  0.11259038  1
  H  H109  1  0.12583600  0.61136581  0.10826704  1
  H  H110  1  0.11883282  0.94319538  0.10161924  1
  H  H111  1  0.63156998  0.28099588  0.11766426  1
  H  H112  1  0.62805853  0.61383554  0.11600241  1
  H  H113  1  0.62162192  0.94504365  0.10860844  1
  H  H114  1  0.37304748  0.05458566  0.60999274  1
  H  H115  1  0.37233639  0.38642471  0.61150644  1
  H  H116  1  0.38330736  0.72467479  0.59822532  1
  H  H117  1  0.87412554  0.05136206  0.61554932  1
  H  H118  1  0.87274983  0.38688352  0.61361161  1
  H  H119  1  0.87665665  0.71807794  0.61647640  1
  H  H120  1  0.12557650  0.11490617  0.38672892  1
  H  H121  1  0.12699435  0.44479521  0.39215819  1
  H  H122  1  0.12248098  0.78116582  0.37914076  1
  H  H123  1  0.62686724  0.11177038  0.38761735  1
  H  H124  1  0.63001585  0.44295078  0.40008923  1
  H  H125  1  0.62494073  0.78015447  0.38988896  1
  H  H126  1  0.36805347  0.22529388  0.89951475  1
  H  H127  1  0.36997783  0.55504508  0.89319941  1
  H  H128  1  0.37933321  0.88406826  0.88140061  1
  H  H129  1  0.87165558  0.21903036  0.88655599  1
  H  H130  1  0.87221456  0.55366751  0.88598880  1
  H  H131  1  0.87601091  0.88676160  0.88921451  1
  H  H132  1  0.37738186  0.11516031  0.10841032  1
  H  H133  1  0.37747789  0.44843121  0.12087540  1
  H  H134  1  0.36802855  0.77503687  0.10055431  1
  H  H135  1  0.88136304  0.11516406  0.11826736  1
  H  H136  1  0.87495537  0.44523342  0.11050901  1
  H  H137  1  0.87174917  0.77843006  0.10763455  1
  H  H138  1  0.12810971  0.22277435  0.60369030  1
  H  H139  1  0.12394096  0.55129743  0.61598330  1
  H  H140  1  0.12876815  0.89001368  0.60451574  1
  H  H141  1  0.63122156  0.22472466  0.59907261  1
  H  H142  1  0.62486522  0.55292099  0.61167993  1
  H  H143  1  0.62915514  0.88830355  0.60399173  1
  H  H144  1  0.08875575  0.74728096  0.99503053  1
  H  H145  1  0.34875795  0.91927814  0.98597690  1
  H  H146  1  0.43121178  0.41618450  1.00046585  1
  H  H147  1  0.41624207  0.92039106  0.50009091  1
  H  H148  1  0.57089347  0.91582027  0.00054877  1
  H  H149  1  0.83276958  0.24906340  0.99932463  1
  H  H150  1  0.15185131  0.25076968  0.98745024  1
  H  H151  1  0.54289591  0.08623018  1.00449391  1
  H  H152  1  0.07698761  0.74755215  0.49963826  1
  H  H153  1  0.33663097  0.08200007  0.00441384  1
  H  H154  1  0.84079678  0.91597888  0.50414831  1
  H  H155  1  0.55555125  0.25371479  0.50178502  1
  H  H156  1  0.41546798  0.41718770  0.50587220  1
  H  H157  1  0.29822302  0.75250594  0.50171982  1
  H  H158  1  0.32547013  0.57998578  0.50036043  1
  H  H159  1  0.06505136  0.41605781  0.49944096  1
  H  H160  1  0.43998945  0.25231047  -0.00597265  1
  H  H161  1  0.57954611  0.07958791  0.49957773  1
  H  H162  1  0.92282043  0.58650635  0.00232621  1
  H  H163  1  0.84457905  0.41804526  0.49290713  1
  H  H164  1  0.90600523  0.42166755  0.98615865  1
  H  H165  1  0.66957907  0.75169104  0.50098593  1
  H  H166  1  0.29992145  0.74846720  -0.00532756  1
  H  H167  1  0.57670913  0.58286374  0.49515696  1
  H  H168  1  0.92312731  0.58502558  0.50021672  1
  H  H169  1  0.19384359  0.91675034  0.49723557  1
  H  H170  1  0.44204604  0.58423293  -0.00214523  1
  H  H171  1  0.91132434  0.74688425  0.50505995  1
  H  H172  1  0.19534790  0.42164553  -0.00432528  1
  H  H173  1  0.07348918  0.08361227  0.49941880  1
  H  H174  1  0.05402305  0.40543358  1.00235961  1
  H  H175  1  0.90029074  0.91741250  0.00813195  1
  H  H176  1  0.82834648  0.08367290  0.49660795  1
  H  H177  1  0.29991782  0.23921556  1.00347853  1
  H  H178  1  0.70344484  0.24940646  0.49839759  1
  H  H179  1  0.92039856  0.24948986  0.49986261  1
  H  H180  1  0.18340469  0.09375376  0.00038746  1
  H  H181  1  0.31437471  0.58040809  1.00495838  1
  H  H182  1  0.68058161  0.41701711  0.00309558  1
  H  H183  1  0.84949730  0.08757866  0.01104742  1
  H  H184  1  0.44492251  0.74838209  1.00117339  1
  H  H185  1  0.69362386  0.08593739  -0.00618990  1
  H  H186  1  0.15972542  0.58028859  0.50506748  1
  H  H187  1  0.40070584  0.24980294  0.49189204  1
  H  H188  1  0.05317145  0.91950546  0.50667244  1
  H  H189  1  0.05508655  0.92188989  -0.00239867  1
  H  H190  1  0.20108723  0.90368376  1.00320850  1
  H  H191  1  0.45289304  0.75001551  0.49600110  1
  Pb  Pb192  1  0.24953410  0.04624353  0.75327796  1
  Pb  Pb193  1  0.24808322  0.38058761  0.75240164  1
  Pb  Pb194  1  0.25685593  0.71518376  0.74689586  1
  Pb  Pb195  1  0.75194682  0.04888100  0.75574996  1
  Pb  Pb196  1  0.75214832  0.37961415  0.74790706  1
  Pb  Pb197  1  0.75157099  0.71141426  0.75081610  1
  Pb  Pb198  1  0.25281533  0.28651393  0.24132683  1
  Pb  Pb199  1  0.25545903  0.61870707  0.24794788  1
  Pb  Pb200  1  0.24650066  0.95171514  0.24823691  1
  Pb  Pb201  1  0.75248777  0.28607138  0.25589349  1
  Pb  Pb202  1  0.75186235  0.61996136  0.25256570  1
  Pb  Pb203  1  0.74964372  0.95413381  0.24927643  1
  Pb  Pb204  1  0.00237060  0.21292907  0.74917104  1
  Pb  Pb205  1  0.00137903  0.54782139  0.74895287  1
  Pb  Pb206  1  0.00028406  0.87963347  0.75415452  1
  Pb  Pb207  1  0.49853240  0.21510245  0.74770669  1
  Pb  Pb208  1  0.50186747  0.54547835  0.75224686  1
  Pb  Pb209  1  0.50604386  0.88194096  0.74889520  1
  Pb  Pb210  1  0.00160172  0.12120920  0.25005125  1
  Pb  Pb211  1  0.00276396  0.45277411  0.24658038  1
  Pb  Pb212  1  -0.00206083  0.78520411  0.24768713  1
  Pb  Pb213  1  0.50092257  0.11844229  0.24674888  1
  Pb  Pb214  1  0.50507188  0.45223115  0.25351382  1
  Pb  Pb215  1  0.50146076  0.78583799  0.24939522  1
  C  C216  1  0.00080210  0.04598840  0.63398380  1
  C  C217  1  -0.00063082  0.37988695  0.63071681  1
  C  C218  1  0.00258643  0.71289588  0.63441011  1
  C  C219  1  0.49803628  0.04677820  0.63269196  1
  C  C220  1  0.49790459  0.38073069  0.63127337  1
  C  C221  1  0.50258691  0.71260053  0.63147984  1
  C  C222  1  0.00229383  0.28616459  0.13258094  1
  C  C223  1  0.00200726  0.61990611  0.13402137  1
  C  C224  1  -0.00197747  0.95413354  0.13277900  1
  C  C225  1  0.50415840  0.28630236  0.13263824  1
  C  C226  1  0.50111885  0.62016491  0.13151245  1
  C  C227  1  0.49768667  0.95260408  0.13364956  1
  C  C228  1  -0.00394094  0.04724368  0.86809063  1
  C  C229  1  -0.00164851  0.38015559  0.86867888  1
  C  C230  1  0.00283916  0.71375856  0.86938121  1
  C  C231  1  0.49732253  0.04725162  0.86845262  1
  C  C232  1  0.49822622  0.37958677  0.86549534  1
  C  C233  1  0.50200877  0.71294287  0.86785565  1
  C  C234  1  0.00010247  0.28676084  0.36739758  1
  C  C235  1  0.00024180  0.62001507  0.36617772  1
  C  C236  1  -0.00127737  0.95419705  0.36609492  1
  C  C237  1  0.49781422  0.28764597  0.36727602  1
  C  C238  1  0.50380926  0.61946130  0.36711336  1
  C  C239  1  0.49935087  0.95335628  0.36758163  1
  C  C240  1  0.25036482  0.21288360  0.63251840  1
  C  C241  1  0.24969882  0.54583763  0.63473070  1
  C  C242  1  0.24963365  0.88008511  0.63553247  1
  C  C243  1  0.74994678  0.21228717  0.63399751  1
  C  C244  1  0.75035261  0.54640643  0.63253918  1
  C  C245  1  0.75162319  0.88011709  0.63347001  1
  C  C246  1  0.25236305  0.11884769  0.13008765  1
  C  C247  1  0.25012336  0.45324343  0.13551476  1
  C  C248  1  0.24814847  0.78605137  0.13367844  1
  C  C249  1  0.75414862  0.12012020  0.13274946  1
  C  C250  1  0.75020452  0.45360810  0.13223757  1
  C  C251  1  0.74729979  0.78643151  0.13291201  1
  C  C252  1  0.24775856  0.21351957  0.86861137  1
  C  C253  1  0.24793251  0.54739962  0.86668486  1
  C  C254  1  0.25226967  0.88053343  0.86808421  1
  C  C255  1  0.74669636  0.21359405  0.86831516  1
  C  C256  1  0.74615860  0.54682793  0.86586565  1
  C  C257  1  0.75142302  0.87878650  0.86653035  1
  C  C258  1  0.25171627  0.12046575  0.36757475  1
  C  C259  1  0.25066856  0.45341978  0.36615072  1
  C  C260  1  0.25008960  0.78744056  0.36599245  1
  C  C261  1  0.75148422  0.11976164  0.36433490  1
  C  C262  1  0.75162713  0.45289377  0.37009208  1
  C  C263  1  0.74826112  0.78713014  0.36696565  1
  C  C264  1  0.28637984  0.57071495  0.53954220  1
  C  C265  1  0.72110862  0.42358234  0.46577955  1
  C  C266  1  0.55298894  0.59251913  0.04115384  1
  C  C267  1  0.79587532  0.90525458  0.54182005  1
  C  C268  1  0.22562180  0.90610286  0.53994858  1
  C  C269  1  0.78399521  0.57521311  0.53900845  1
  C  C270  1  0.96277961  0.59547177  0.04117235  1
  C  C271  1  0.53504911  0.41089391  0.53740633  1
  C  C272  1  0.02977888  0.07701009  0.96145252  1
  C  C273  1  0.71479906  0.90849074  0.95908148  1
  C  C274  1  0.45756438  0.07170886  0.53891181  1
  C  C275  1  0.78804900  0.09426809  0.45766417  1
  C  C276  1  0.20416320  0.57041502  0.54172585  1
  C  C277  1  0.27906639  0.57121204  0.96355901  1
  C  C278  1  0.95610069  0.73706956  0.54146636  1
  C  C279  1  0.45722584  0.92926331  0.46198927  1
  C  C280  1  0.53869217  0.92820194  0.46148566  1
  C  C281  1  0.79245590  0.76142677  0.45952809  1
  C  C282  1  0.96347126  0.59434550  0.46142589  1
  C  C283  1  0.53206870  0.92677069  0.03984078  1
  C  C284  1  0.43541352  0.07135619  0.95626657  1
  C  C285  1  0.22713648  0.42988587  0.03899281  1
  C  C286  1  0.56120904  0.74046592  0.54362841  1
  C  C287  1  0.94978949  0.40686289  0.53924118  1
  C  C288  1  0.47492730  0.26185070  0.03550006  1
  C  C289  1  0.71090178  0.76141364  0.46227058  1
  C  C290  1  0.28228344  0.09160962  0.46139701  1
  C  C291  1  0.19786721  0.57034660  0.95797620  1
  C  C292  1  0.96935110  0.25855071  0.03837016  1
  C  C293  1  0.44480916  0.25938635  0.45592702  1
  C  C294  1  0.94459305  0.92695620  0.04389928  1
  C  C295  1  0.04214497  0.26087544  0.46054225  1
  C  C296  1  0.53917938  0.07092356  0.53811164  1
  C  C297  1  0.96050881  0.26054761  0.46182666  1
  C  C298  1  0.03816394  0.73752468  0.53876434  1
  C  C299  1  0.55626070  0.26286334  0.04173567  1
  C  C300  1  0.79038407  0.23916573  0.96186142  1
  C  C301  1  0.02076463  0.92961966  0.46413956  1
  C  C302  1  0.96806281  0.74217770  0.96428184  1
  C  C303  1  0.72614065  0.09554442  0.03641931  1
  C  C304  1  0.46764757  0.40561176  0.96006768  1
  C  C305  1  0.26906687  0.75956788  0.03770294  1
  C  C306  1  0.93971749  0.93152955  0.45495996  1
  C  C307  1  0.03529565  0.07224227  0.53855710  1
  C  C308  1  0.04509497  0.59447657  0.45868540  1
  C  C309  1  0.22083175  0.24235394  0.53855068  1
  C  C310  1  0.70856039  0.23945548  0.96270163  1
  C  C311  1  0.95390547  0.07028206  0.54193736  1
  N  N312  1  0.20477045  0.09288789  0.45995416  1
  N  N313  1  0.27299825  0.24600506  0.96119181  1
  N  N314  1  0.73075788  0.24135880  0.54024777  1
  N  N315  1  0.95190818  0.07532699  0.96110801  1
  N  N316  1  0.21444356  0.42751361  0.46053571  1
  N  N317  1  0.79270542  0.90825836  0.95972168  1
  N  N318  1  0.51389011  0.07422007  0.96440188  1
  N  N319  1  0.79980342  0.42563106  0.45963055  1
  N  N320  1  0.30448213  0.90477347  0.54532866  1
  N  N321  1  0.94769327  0.40044159  0.95864668  1
  N  N322  1  0.19494457  0.23317577  0.95798968  1
  N  N323  1  0.79129228  0.57163510  0.95831407  1
  N  N324  1  0.30609375  0.43028550  0.04515372  1
  N  N325  1  0.02609764  0.41329447  0.96072626  1
  N  N326  1  0.29132176  0.42777628  0.45954068  1
  N  N327  1  0.71686531  0.42681313  0.04020895  1
  N  N328  1  0.52424021  0.25756764  0.46090277  1
  N  N329  1  0.71668136  0.90573570  0.53776501  1
  N  N330  1  0.45258130  0.92803037  0.03990114  1
  N  N331  1  0.21719599  0.08580265  0.03948948  1
  N  N332  1  0.71478545  0.57224940  0.96139851  1
  N  N333  1  0.02911553  0.40730767  0.53674596  1
  N  N334  1  0.79545661  0.42776613  0.03980959  1
  N  N335  1  0.45596502  0.40837968  0.54029271  1
  N  N336  1  0.48248038  0.74206147  0.53694000  1
  N  N337  1  0.02397476  0.92491907  0.03864153  1
  N  N338  1  0.47517986  0.74018263  0.96081746  1
  N  N339  1  0.19021030  0.76164596  0.04434492  1
  N  N340  1  0.29826625  0.24079715  0.54065079  1
  N  N341  1  0.78532981  0.76025275  0.03897683  1
  N  N342  1  0.19280867  0.76184478  0.45416211  1
  N  N343  1  0.04736389  0.26022366  0.03917367  1
  N  N344  1  0.55308095  0.73896691  0.95817619  1
  N  N345  1  0.04706178  0.73965787  0.96039284  1
  N  N346  1  0.29525636  0.09920466  0.03747015  1
  N  N347  1  0.30583109  0.90079676  0.95709098  1
  N  N348  1  0.53934186  0.59288443  0.45869790  1
  N  N349  1  0.80817039  0.23815364  0.54637128  1
  N  N350  1  0.70862457  0.09432484  0.45822887  1
  N  N351  1  0.22740425  0.91253971  0.96108929  1
  N  N352  1  0.04212391  0.59400274  0.03952513  1
  N  N353  1  0.54701089  0.40445500  0.95797675  1
  N  N354  1  0.27038030  0.75957292  0.45992316  1
  N  N355  1  0.47413264  0.59213725  0.03749626  1
  N  N356  1  0.70610659  0.57417194  0.53959330  1
  N  N357  1  0.70913526  0.75994829  0.03906647  1
  N  N358  1  0.46090956  0.59382280  0.46022270  1
  N  N359  1  0.80527565  0.09623181  0.04346887  1
  N  N360  1  0.06343344  0.05686781  0.59699483  1
  N  N361  1  0.06026953  0.38991720  0.59299859  1
  N  N362  1  0.06568161  0.72256811  0.59698757  1
  N  N363  1  0.56321013  0.05553806  0.59776406  1
  N  N364  1  0.56121431  0.39360163  0.59355323  1
  N  N365  1  0.57348116  0.72294432  0.60239042  1
  N  N366  1  0.44335480  0.27659634  0.09349135  1
  N  N367  1  0.44092970  0.61048483  0.09277296  1
  N  N368  1  0.43282408  0.94378907  0.09935194  1
  N  N369  1  0.93985570  0.27434086  0.09458855  1
  N  N370  1  0.93666208  0.61084670  0.09891693  1
  N  N371  1  0.92843584  0.94367583  0.10261780  1
  N  N372  1  0.42529071  0.05525389  0.89655634  1
  N  N373  1  0.43627468  0.39070997  0.90364218  1
  N  N374  1  0.44212611  0.72310447  0.90672541  1
  N  N375  1  0.93093578  0.05659037  0.90167221  1
  N  N376  1  0.93051768  0.39006634  0.89891985  1
  N  N377  1  0.94045741  0.72618300  0.90812584  1
  N  N378  1  0.06563341  0.27652193  0.40358077  1
  N  N379  1  0.06695287  0.60990787  0.40106945  1
  N  N380  1  0.05652570  0.94401573  0.40754442  1
  N  N381  1  0.55678655  0.27815844  0.40715856  1
  N  N382  1  0.56677684  0.60869231  0.40270082  1
  N  N383  1  0.56390516  0.94255393  0.40453214  1
  N  N384  1  0.31691436  0.22197690  0.60056406  1
  N  N385  1  0.31318158  0.55567736  0.59785575  1
  N  N386  1  0.31767737  0.88885713  0.60513352  1
  N  N387  1  0.81941116  0.22180122  0.60513582  1
  N  N388  1  0.81319110  0.55836113  0.59506427  1
  N  N389  1  0.81862051  0.88953940  0.60039878  1
  N  N390  1  0.18983638  0.10891697  0.09363308  1
  N  N391  1  0.19126953  0.44334541  0.09422999  1
  N  N392  1  0.17903789  0.77788345  0.10468163  1
  N  N393  1  0.69395799  0.11023906  0.09192521  1
  N  N394  1  0.68805047  0.44293601  0.09579695  1
  N  N395  1  0.68389269  0.77648735  0.09718750  1
  N  N396  1  0.17917885  0.22247535  0.89822058  1
  N  N397  1  0.17943226  0.55630672  0.89951501  1
  N  N398  1  0.19412334  0.88935988  0.90896359  1
  N  N399  1  0.68246557  0.22400023  0.90622768  1
  N  N400  1  0.68546086  0.55671568  0.90433386  1
  N  N401  1  0.68744928  0.89092604  0.90284350  1
  N  N402  1  0.31362012  0.10809021  0.40598199  1
  N  N403  1  0.31478446  0.44369162  0.40113281  1
  N  N404  1  0.30698988  0.77734302  0.40739914  1
  N  N405  1  0.81565066  0.10981419  0.40036542  1
  N  N406  1  0.81913139  0.44416773  0.40078044  1
  N  N407  1  0.81469314  0.77689769  0.40198478  1
  N  N408  1  0.42838595  0.27660822  0.39743388  1
  N  N409  1  0.43964420  0.60966590  0.40263628  1
  N  N410  1  0.43383096  0.94480476  0.40220583  1
  N  N411  1  0.93550834  0.27703719  0.40267524  1
  N  N412  1  0.93679994  0.61019569  0.40251220  1
  N  N413  1  0.92745525  0.94621914  0.39549849  1
  N  N414  1  0.05887654  0.05959065  0.90551096  1
  N  N415  1  0.05779001  0.38952844  0.90829228  1
  N  N416  1  0.06913398  0.72169732  0.90197303  1
  N  N417  1  0.55286703  0.05868959  0.91045379  1
  N  N418  1  0.56401192  0.38810953  0.89874585  1
  N  N419  1  0.56924978  0.72287668  0.89974483  1
  N  N420  1  0.06773362  0.27748009  0.09922065  1
  N  N421  1  0.06481336  0.60915601  0.09781104  1
  N  N422  1  0.05687384  0.94471852  0.09269765  1
  N  N423  1  0.57326162  0.27744751  0.10042481  1
  N  N424  1  0.56989635  0.60949895  0.09927329  1
  N  N425  1  0.56088782  0.94183733  0.09680905  1
  N  N426  1  0.43304697  0.05725232  0.59602306  1
  N  N427  1  0.43233181  0.38961712  0.59808819  1
  N  N428  1  0.44533118  0.72248447  0.59034575  1
  N  N429  1  0.93337172  0.05461344  0.59975207  1
  N  N430  1  0.93152185  0.39037690  0.59765938  1
  N  N431  1  0.93579720  0.72187509  0.60120055  1
  N  N432  1  0.18564157  0.11131469  0.40005724  1
  N  N433  1  0.18820773  0.44350774  0.40282765  1
  N  N434  1  0.18095589  0.77747875  0.39520924  1
  N  N435  1  0.68764345  0.10999986  0.39956622  1
  N  N436  1  0.69096269  0.44040678  0.41032372  1
  N  N437  1  0.68459615  0.77763840  0.40323624  1
  N  N438  1  0.30633346  0.22300481  0.90907127  1
  N  N439  1  0.30939483  0.55679826  0.90527085  1
  N  N440  1  0.32101334  0.89121665  0.89691558  1
  N  N441  1  0.81270906  0.22295050  0.90196544  1
  N  N442  1  0.81196674  0.55599794  0.89909639  1
  N  N443  1  0.81560931  0.88939574  0.90078174  1
  N  N444  1  0.31754603  0.10941295  0.09624977  1
  N  N445  1  0.31844788  0.44474925  0.10532603  1
  N  N446  1  0.30600214  0.77448682  0.09203642  1
  N  N447  1  0.82226422  0.11096749  0.10278897  1
  N  N448  1  0.81504166  0.44341262  0.09780870  1
  N  N449  1  0.81061204  0.77649344  0.09707039  1
  N  N450  1  0.18909060  0.22539333  0.59354901  1
  N  N451  1  0.18311568  0.55514961  0.60124921  1
  N  N452  1  0.19038247  0.89112242  0.59497405  1
  N  N453  1  0.69351496  0.22349898  0.59249477  1
  N  N454  1  0.68526102  0.55600782  0.59896715  1
  N  N455  1  0.69093366  0.89027275  0.59511618  1
  Cl  Cl456  1  0.24959356  0.05191556  0.62528377  1
  Cl  Cl457  1  0.24647502  0.38480187  0.62024937  1
  Cl  Cl458  1  0.26042771  0.72598743  0.60755810  1
  Cl  Cl459  1  0.75046079  0.05273298  0.62456093  1
  Cl  Cl460  1  0.74828737  0.38761171  0.61417834  1
  Cl  Cl461  1  0.75325090  0.71717755  0.61798885  1
  Cl  Cl462  1  0.25529712  0.27169781  0.10361018  1
  Cl  Cl463  1  0.25552537  0.61236320  0.11341461  1
  Cl  Cl464  1  0.24262336  0.94112561  0.10477081  1
  Cl  Cl465  1  0.75649442  0.28145326  0.12361215  1
  Cl  Cl466  1  0.75269517  0.61371187  0.12273675  1
  Cl  Cl467  1  0.74485865  0.95138220  0.11770466  1
  Cl  Cl468  1  0.24287303  0.05719061  0.89244877  1
  Cl  Cl469  1  0.24248111  0.38838202  0.88902936  1
  Cl  Cl470  1  0.25780657  0.72325548  0.88542001  1
  Cl  Cl471  1  0.74101991  0.05695853  0.89315098  1
  Cl  Cl472  1  0.74832825  0.38426405  0.88346400  1
  Cl  Cl473  1  0.75375834  0.72032100  0.87890198  1
  Cl  Cl474  1  0.24730694  0.28214032  0.37148781  1
  Cl  Cl475  1  0.25456059  0.61504750  0.38235131  1
  Cl  Cl476  1  0.24300472  0.94645993  0.38114583  1
  Cl  Cl477  1  0.74042753  0.27788760  0.39473115  1
  Cl  Cl478  1  0.74981061  0.61299175  0.38509958  1
  Cl  Cl479  1  0.74666871  0.94669607  0.38012534  1
  Cl  Cl480  1  0.00291078  0.22035249  0.61640130  1
  Cl  Cl481  1  -0.00308887  0.54968137  0.61679222  1
  Cl  Cl482  1  0.00530949  0.88909006  0.62189662  1
  Cl  Cl483  1  0.50957460  0.22703302  0.60420490  1
  Cl  Cl484  1  0.50109878  0.55199061  0.61815493  1
  Cl  Cl485  1  0.50387108  0.88420488  0.61591456  1
  Cl  Cl486  1  0.00615200  0.11390298  0.11620812  1
  Cl  Cl487  1  0.00323912  0.43925728  0.10676195  1
  Cl  Cl488  1  -0.00427622  0.77966041  0.11224999  1
  Cl  Cl489  1  0.50594260  0.11147107  0.10587977  1
  Cl  Cl490  1  0.50459313  0.44934016  0.11917816  1
  Cl  Cl491  1  0.49213764  0.77436242  0.11095169  1
  Cl  Cl492  1  -0.00124063  0.21742376  0.88101037  1
  Cl  Cl493  1  -0.00444802  0.55147918  0.88198455  1
  Cl  Cl494  1  0.00925034  0.89192416  0.89642847  1
  Cl  Cl495  1  0.49041288  0.21909439  0.88203262  1
  Cl  Cl496  1  0.49619203  0.55881048  0.89126901  1
  Cl  Cl497  1  0.50289722  0.88531079  0.88420790  1
  Cl  Cl498  1  0.00082725  0.11443841  0.38218260  1
  Cl  Cl499  1  0.00456396  0.44353118  0.38589519  1
  Cl  Cl500  1  -0.00156633  0.78059947  0.37995993  1
  Cl  Cl501  1  0.50099081  0.11380765  0.37938659  1
  Cl  Cl502  1  0.50056792  0.44384186  0.38953336  1
  Cl  Cl503  1  0.48971863  0.77404573  0.39216748  1
  Cl  Cl504  1  0.36272950  0.14478913  0.75029723  1
  Cl  Cl505  1  0.36300912  0.47744952  0.74973760  1
  Cl  Cl506  1  0.35978117  0.81019763  0.75140515  1
  Cl  Cl507  1  0.86108912  0.14325188  0.74876595  1
  Cl  Cl508  1  0.86145444  0.47552825  0.75114658  1
  Cl  Cl509  1  0.86449431  0.81146570  0.75031655  1
  Cl  Cl510  1  0.13743085  0.18843533  0.24802964  1
  Cl  Cl511  1  0.13557092  0.52275283  0.25099111  1
  Cl  Cl512  1  0.13725171  0.85622178  0.24705269  1
  Cl  Cl513  1  0.63731890  0.18879987  0.24961601  1
  Cl  Cl514  1  0.63756655  0.52197531  0.25202456  1
  Cl  Cl515  1  0.63403390  0.85577172  0.24997899  1
  Cl  Cl516  1  0.13765689  0.14553894  0.75521011  1
  Cl  Cl517  1  0.13642980  0.47757328  0.75302370  1
  Cl  Cl518  1  0.13845681  0.81212631  0.75283819  1
  Cl  Cl519  1  0.63923039  0.14510600  0.75226366  1
  Cl  Cl520  1  0.63581213  0.47706869  0.74843453  1
  Cl  Cl521  1  0.63758423  0.81041073  0.74928356  1
  Cl  Cl522  1  0.36102331  0.18897705  0.24584781  1
  Cl  Cl523  1  0.36100595  0.52324218  0.24790587  1
  Cl  Cl524  1  0.35887012  0.85515195  0.24761012  1
  Cl  Cl525  1  0.86133330  0.18970507  0.24796778  1
  Cl  Cl526  1  0.86290096  0.52093401  0.25161043  1
  Cl  Cl527  1  0.86132634  0.85670536  0.25101198  1
  Cl  Cl528  1  0.11038044  0.31133766  0.75272742  1
  Cl  Cl529  1  0.10972456  0.64319539  0.75175947  1
  Cl  Cl530  1  0.11478245  0.97759684  0.75553085  1
  Cl  Cl531  1  0.61017330  0.31047331  0.75117069  1
  Cl  Cl532  1  0.61206957  0.64510275  0.74835424  1
  Cl  Cl533  1  0.60852390  0.97758084  0.75072001  1
  Cl  Cl534  1  0.38764070  0.02260538  0.24440411  1
  Cl  Cl535  1  0.38680175  0.35526381  0.24948935  1
  Cl  Cl536  1  0.38779923  0.68811501  0.25206361  1
  Cl  Cl537  1  0.88562983  0.02237088  0.24877358  1
  Cl  Cl538  1  0.88642065  0.35559214  0.25209796  1
  Cl  Cl539  1  0.88761149  0.68970885  0.25072217  1
  Cl  Cl540  1  0.38826936  0.30972051  0.74751960  1
  Cl  Cl541  1  0.38831793  0.64523220  0.74945182  1
  Cl  Cl542  1  0.38548231  0.97758418  0.75481332  1
  Cl  Cl543  1  0.88748226  0.31149950  0.74954887  1
  Cl  Cl544  1  0.88822640  0.64475555  0.74993708  1
  Cl  Cl545  1  0.88897896  0.97766466  0.75223740  1
  Cl  Cl546  1  0.11061481  0.02121327  0.24613722  1
  Cl  Cl547  1  0.11148999  0.35622577  0.24695392  1
  Cl  Cl548  1  0.10998970  0.69105407  0.24979543  1
  Cl  Cl549  1  0.61122436  0.02405604  0.25071030  1
  Cl  Cl550  1  0.61112784  0.35559701  0.24875679  1
  Cl  Cl551  1  0.60998133  0.69008180  0.24898143  1
