# generated using pymatgen
data_H8PbC4(N3Cl2)2
_symmetry_space_group_name_H-M   'P 1'
_cell_length_a   16.62424301
_cell_length_b   22.51238465
_cell_length_c   21.59190554
_cell_angle_alpha   90.00095788
_cell_angle_beta   90.01475007
_cell_angle_gamma   89.99440980
_symmetry_Int_Tables_number   1
_chemical_formula_structural   H8PbC4(N3Cl2)2
_chemical_formula_sum   'H192 Pb24 C96 N144 Cl96'
_cell_volume   8080.79955971
_cell_formula_units_Z   24
loop_
 _symmetry_equiv_pos_site_id
 _symmetry_equiv_pos_as_xyz
  1  'x, y, z'
loop_
 _atom_site_type_symbol
 _atom_site_label
 _atom_site_symmetry_multiplicity
 _atom_site_fract_x
 _atom_site_fract_y
 _atom_site_fract_z
 _atom_site_occupancy
  H  H0  1  -0.00522791  0.02721988  0.67353054  1
  H  H1  1  0.00946690  0.36221395  0.67723704  1
  H  H2  1  0.00603649  0.69745831  0.68136663  1
  H  H3  1  0.50472664  0.02873518  0.67732296  1
  H  H4  1  0.49990605  0.36188794  0.68328650  1
  H  H5  1  0.50076314  0.69615878  0.67551364  1
  H  H6  1  0.00863998  0.30111875  0.18249678  1
  H  H7  1  -0.01109230  0.63682181  0.17537848  1
  H  H8  1  -0.00737849  0.96878519  0.17706229  1
  H  H9  1  0.48775453  0.30232225  0.17793926  1
  H  H10  1  0.50498965  0.63539448  0.17300948  1
  H  H11  1  0.48915148  0.97048784  0.17710344  1
  H  H12  1  0.00515771  0.02749643  0.82094798  1
  H  H13  1  -0.01167623  0.36321463  0.81973475  1
  H  H14  1  0.00029216  0.69510794  0.82449058  1
  H  H15  1  0.49469892  0.03007317  0.82361784  1
  H  H16  1  0.51092645  0.36203586  0.82126666  1
  H  H17  1  0.49292658  0.69605636  0.82031221  1
  H  H18  1  0.00726075  0.30470974  0.32123042  1
  H  H19  1  -0.01220143  0.63693472  0.31760054  1
  H  H20  1  0.00382098  0.96997337  0.32068591  1
  H  H21  1  0.49295376  0.30490496  0.31859537  1
  H  H22  1  0.50012893  0.63682913  0.31617903  1
  H  H23  1  0.49601415  0.96973254  0.32612397  1
  H  H24  1  0.24198453  0.19386035  0.67774841  1
  H  H25  1  0.25353429  0.53209605  0.67831729  1
  H  H26  1  0.24739400  0.86194932  0.67671269  1
  H  H27  1  0.75124373  0.19811092  0.68211240  1
  H  H28  1  0.74963793  0.52990180  0.68360280  1
  H  H29  1  0.75999770  0.86344321  0.67549478  1
  H  H30  1  0.25511970  0.13369723  0.18098223  1
  H  H31  1  0.23494261  0.47214661  0.17808356  1
  H  H32  1  0.25726031  0.80107573  0.17645857  1
  H  H33  1  0.75170796  0.13736650  0.17901452  1
  H  H34  1  0.75881583  0.47162708  0.18331546  1
  H  H35  1  0.74861013  0.80625832  0.18100176  1
  H  H36  1  0.26210787  0.19678488  0.82051158  1
  H  H37  1  0.25627261  0.53039731  0.82617935  1
  H  H38  1  0.25870184  0.86626898  0.81833635  1
  H  H39  1  0.73089485  0.19854683  0.82757588  1
  H  H40  1  0.74524611  0.53336637  0.82551313  1
  H  H41  1  0.74664513  0.86232871  0.82339919  1
  H  H42  1  0.26209176  0.13824199  0.32472781  1
  H  H43  1  0.24538657  0.47018158  0.31764447  1
  H  H44  1  0.24506668  0.80600656  0.32479923  1
  H  H45  1  0.73803298  0.13507562  0.32010827  1
  H  H46  1  0.75669356  0.47019595  0.31914124  1
  H  H47  1  0.75595726  0.80549475  0.32338918  1
  H  H48  1  0.12416250  0.05205578  0.61059501  1
  H  H49  1  0.11522749  0.39055470  0.59340765  1
  H  H50  1  0.12431077  0.72365931  0.60682447  1
  H  H51  1  0.61966153  0.05677816  0.59960266  1
  H  H52  1  0.62115364  0.38777812  0.61131391  1
  H  H53  1  0.62305513  0.72429192  0.60428155  1
  H  H54  1  0.38106844  0.27350725  0.09336929  1
  H  H55  1  0.38086869  0.61377111  0.10456322  1
  H  H56  1  0.38616325  0.93912075  0.09208827  1
  H  H57  1  0.87812539  0.28010528  0.11511239  1
  H  H58  1  0.87947359  0.60676425  0.09557106  1
  H  H59  1  0.88092051  0.94407626  0.09754836  1
  H  H60  1  0.38604681  0.05919108  0.90481833  1
  H  H61  1  0.37384269  0.38675609  0.87446541  1
  H  H62  1  0.38864178  0.72148672  0.90423522  1
  H  H63  1  0.88442657  0.05401303  0.89483480  1
  H  H64  1  0.87190170  0.39174933  0.89486351  1
  H  H65  1  0.88532955  0.72374794  0.90094635  1
  H  H66  1  0.12246063  0.27412918  0.39647360  1
  H  H67  1  0.12772842  0.61779427  0.37334352  1
  H  H68  1  0.12766595  0.94417969  0.39340816  1
  H  H69  1  0.62023600  0.27999460  0.38741429  1
  H  H70  1  0.62838909  0.61497305  0.38536387  1
  H  H71  1  0.62839273  0.94525603  0.38801544  1
  H  H72  1  0.37659900  0.21604043  0.61753512  1
  H  H73  1  0.36798126  0.55837015  0.60096421  1
  H  H74  1  0.37092436  0.88968883  0.60776747  1
  H  H75  1  0.87641178  0.21904266  0.61277868  1
  H  H76  1  0.86630770  0.55332703  0.60780749  1
  H  H77  1  0.86760143  0.89407008  0.59404790  1
  H  H78  1  0.11763015  0.11595770  0.12593683  1
  H  H79  1  0.13184192  0.44232369  0.09174834  1
  H  H80  1  0.11621056  0.78527733  0.12401577  1
  H  H81  1  0.61964697  0.11524318  0.11446328  1
  H  H82  1  0.62935687  0.45345213  0.11710760  1
  H  H83  1  0.61851938  0.77875039  0.11582792  1
  H  H84  1  0.12417705  0.21441962  0.87738055  1
  H  H85  1  0.12224762  0.55178113  0.88717923  1
  H  H86  1  0.11694892  0.88162655  0.87060266  1
  H  H87  1  0.63279882  0.22879283  0.91533067  1
  H  H88  1  0.62152987  0.55501842  0.89440174  1
  H  H89  1  0.61891035  0.88836902  0.89170790  1
  H  H90  1  0.37177199  0.10620406  0.40531700  1
  H  H91  1  0.37884804  0.45062804  0.37781414  1
  H  H92  1  0.37704835  0.78284031  0.38706749  1
  H  H93  1  0.87903035  0.11771876  0.37435693  1
  H  H94  1  0.88065955  0.44428950  0.38893877  1
  H  H95  1  0.87421444  0.77785754  0.39819030  1
  H  H96  1  0.37107749  0.27811613  0.39000661  1
  H  H97  1  0.37921596  0.61412215  0.38985511  1
  H  H98  1  0.38015209  0.94114734  0.40143206  1
  H  H99  1  0.87441999  0.28205702  0.38448646  1
  H  H100  1  0.88144134  0.61151602  0.40177175  1
  H  H101  1  0.87868492  0.94402531  0.39162565  1
  H  H102  1  0.13302949  0.05301437  0.88712779  1
  H  H103  1  0.11908622  0.38304094  0.88468553  1
  H  H104  1  0.13303664  0.71664606  0.88727503  1
  H  H105  1  0.63180657  0.05152142  0.87991394  1
  H  H106  1  0.61957343  0.38982293  0.90390102  1
  H  H107  1  0.63372155  0.71202407  0.87164174  1
  H  H108  1  0.12613694  0.27542966  0.10422593  1
  H  H109  1  0.12612690  0.61612535  0.11784654  1
  H  H110  1  0.12711189  0.94935629  0.12085525  1
  H  H111  1  0.62637830  0.28182835  0.12161755  1
  H  H112  1  0.62964738  0.61263102  0.10571066  1
  H  H113  1  0.62974009  0.94973017  0.12482577  1
  H  H114  1  0.37166168  0.05191611  0.61671222  1
  H  H115  1  0.37205872  0.38668953  0.61446505  1
  H  H116  1  0.37395934  0.72212029  0.60945218  1
  H  H117  1  0.87596743  0.05529947  0.59977507  1
  H  H118  1  0.87005300  0.38378834  0.62502813  1
  H  H119  1  0.87586236  0.72145080  0.61520042  1
  H  H120  1  0.12534740  0.11619209  0.38425064  1
  H  H121  1  0.13051341  0.44391212  0.39401897  1
  H  H122  1  0.12897399  0.77736469  0.39944286  1
  H  H123  1  0.63425162  0.10631694  0.40458273  1
  H  H124  1  0.63180995  0.44565455  0.39006604  1
  H  H125  1  0.62568846  0.78185727  0.38659082  1
  H  H126  1  0.36998113  0.22575805  0.90267325  1
  H  H127  1  0.37029192  0.55954655  0.90251032  1
  H  H128  1  0.36269498  0.89121087  0.90246595  1
  H  H129  1  0.87382372  0.21227730  0.87279949  1
  H  H130  1  0.87021463  0.55451375  0.89282672  1
  H  H131  1  0.86742866  0.88802778  0.89695659  1
  H  H132  1  0.36454538  0.10784457  0.10059760  1
  H  H133  1  0.37505537  0.45179239  0.12522127  1
  H  H134  1  0.36064578  0.77211254  0.09161352  1
  H  H135  1  0.86806676  0.11062627  0.10307679  1
  H  H136  1  0.87874622  0.44560291  0.11109678  1
  H  H137  1  0.86648471  0.77807266  0.10423540  1
  H  H138  1  0.12876170  0.22347383  0.60017000  1
  H  H139  1  0.12023376  0.54986386  0.61886846  1
  H  H140  1  0.12195819  0.88804502  0.60725466  1
  H  H141  1  0.62681715  0.21921404  0.61270039  1
  H  H142  1  0.61743043  0.55190257  0.62240136  1
  H  H143  1  0.62147022  0.88340657  0.61948829  1
  H  H144  1  0.28940730  0.91762987  1.00788464  1
  H  H145  1  0.64833280  0.58017506  0.50975457  1
  H  H146  1  0.29672616  0.23944366  1.00353140  1
  H  H147  1  0.94117689  0.44411436  0.98237874  1
  H  H148  1  0.15593162  0.58311725  0.99454502  1
  H  H149  1  0.82666848  0.41644258  0.00125271  1
  H  H150  1  0.35045763  0.42185223  0.49083098  1
  H  H151  1  0.95158560  0.74359370  1.00504517  1
  H  H152  1  0.43271195  0.58217896  0.49703470  1
  H  H153  1  0.80849819  0.08270036  -0.00404526  1
  H  H154  1  0.61952088  0.73972495  -0.01396486  1
  H  H155  1  0.81698238  0.75010861  0.50116384  1
  H  H156  1  0.95579802  0.58277474  0.50489419  1
  H  H157  1  0.07014352  0.38699306  0.99380367  1
  H  H158  1  0.03965410  0.41471171  0.49312478  1
  H  H159  1  0.57258475  0.75194223  0.50040406  1
  H  H160  1  0.14823680  0.58246203  0.50545182  1
  H  H161  1  0.06809878  0.75403900  0.50015091  1
  H  H162  1  0.42231718  0.24886027  0.49799990  1
  H  H163  1  0.86796782  0.24654076  -0.01238980  1
  H  H164  1  0.46575766  0.91495122  -0.00676101  1
  H  H165  1  0.21277581  0.42049066  -0.00696511  1
  H  H166  1  0.15171410  0.25761729  0.97790201  1
  H  H167  1  0.66830586  0.43312486  0.00271273  1
  H  H168  1  0.45950516  0.74786483  1.00874807  1
  H  H169  1  0.45964077  0.07232914  1.00653310  1
  H  H170  1  0.55415476  0.08379249  0.49658131  1
  H  H171  1  0.83462683  0.24840079  0.50272700  1
  H  H172  1  0.80887867  0.58178723  0.49862752  1
  H  H173  1  0.15481728  0.08558623  0.49019193  1
  H  H174  1  0.66378082  0.91431946  0.99694508  1
  H  H175  1  0.39592601  0.42071482  0.98701191  1
  H  H176  1  0.67023921  0.24935177  0.50246308  1
  H  H177  1  0.13590920  0.08638371  0.01212974  1
  H  H178  1  0.59267367  0.91648535  0.49543988  1
  H  H179  1  0.10550769  0.91822192  0.00492423  1
  H  H180  1  0.29791083  0.08104166  -0.00629537  1
  H  H181  1  0.34263778  0.75241937  0.49355442  1
  H  H182  1  0.54752902  0.41184321  1.00512157  1
  H  H183  1  0.45810427  0.24857321  -0.00597219  1
  H  H184  1  0.60636846  0.08747369  0.98552281  1
  H  H185  1  0.28428104  0.74626949  -0.00784695  1
  H  H186  1  0.83483421  0.41654062  0.49836799  1
  H  H187  1  0.10097515  0.75273033  0.99289778  1
  H  H188  1  0.71023539  0.07952527  0.50713875  1
  H  H189  1  0.56834064  0.41650860  0.50284726  1
  H  H190  1  0.93046363  0.08505425  0.49748189  1
  H  H191  1  0.18930744  0.41707118  0.50270612  1
  Pb  Pb192  1  0.24958123  0.04497476  0.75326848  1
  Pb  Pb193  1  0.24608712  0.38130277  0.74721316  1
  Pb  Pb194  1  0.25416820  0.71690016  0.75230148  1
  Pb  Pb195  1  0.75468386  0.04987628  0.74731162  1
  Pb  Pb196  1  0.74776879  0.38002380  0.75710218  1
  Pb  Pb197  1  0.75027498  0.71287876  0.74407171  1
  Pb  Pb198  1  0.25616830  0.28244645  0.24405738  1
  Pb  Pb199  1  0.25765276  0.61822439  0.24554373  1
  Pb  Pb200  1  0.25251386  0.95242565  0.24921707  1
  Pb  Pb201  1  0.75122088  0.28643379  0.25384731  1
  Pb  Pb202  1  0.75361416  0.62001573  0.25369466  1
  Pb  Pb203  1  0.75681777  0.95034660  0.24988695  1
  Pb  Pb204  1  0.00161277  0.21264216  0.74458986  1
  Pb  Pb205  1  -0.00215743  0.54759354  0.74944757  1
  Pb  Pb206  1  -0.00423090  0.87993594  0.74533814  1
  Pb  Pb207  1  0.49757699  0.21327093  0.75746656  1
  Pb  Pb208  1  0.49675226  0.54710380  0.74882926  1
  Pb  Pb209  1  0.50393216  0.88252489  0.75386132  1
  Pb  Pb210  1  -0.00006405  0.11973283  0.25098097  1
  Pb  Pb211  1  0.00496325  0.45054559  0.24624660  1
  Pb  Pb212  1  0.00513365  0.78380565  0.24934099  1
  Pb  Pb213  1  0.50639024  0.11529359  0.25467215  1
  Pb  Pb214  1  0.50755832  0.45202577  0.24710213  1
  Pb  Pb215  1  0.50012066  0.78651257  0.25001107  1
  C  C216  1  -0.00209880  0.04438787  0.62672230  1
  C  C217  1  -0.00159671  0.37754802  0.63033011  1
  C  C218  1  0.00168864  0.71333942  0.63402556  1
  C  C219  1  0.49906768  0.04461838  0.63022463  1
  C  C220  1  0.49740294  0.37826708  0.63603238  1
  C  C221  1  0.49977529  0.71334578  0.62866352  1
  C  C222  1  0.00449174  0.28650564  0.13471793  1
  C  C223  1  -0.00140388  0.62007676  0.12911200  1
  C  C224  1  0.00110320  0.95412421  0.12966126  1
  C  C225  1  0.49797370  0.28674568  0.13106212  1
  C  C226  1  0.50519440  0.62012805  0.12541309  1
  C  C227  1  0.50157136  0.95446877  0.13064975  1
  C  C228  1  0.00732009  0.04421091  0.86782837  1
  C  C229  1  -0.00673171  0.37875083  0.86721005  1
  C  C230  1  0.00640747  0.71178618  0.87161099  1
  C  C231  1  0.50442462  0.04649236  0.87045687  1
  C  C232  1  0.50156490  0.37809443  0.86824250  1
  C  C233  1  0.50575933  0.71048130  0.86731434  1
  C  C234  1  0.00100372  0.28781266  0.36783936  1
  C  C235  1  -0.00070169  0.62182807  0.36453333  1
  C  C236  1  0.00343296  0.95354486  0.36790830  1
  C  C237  1  0.49492989  0.28785494  0.36557542  1
  C  C238  1  0.50286503  0.62156940  0.36385826  1
  C  C239  1  0.50199683  0.95290078  0.37291618  1
  C  C240  1  0.24947883  0.21108329  0.63138618  1
  C  C241  1  0.24650302  0.54683062  0.63084458  1
  C  C242  1  0.24652922  0.87954430  0.63016465  1
  C  C243  1  0.75149304  0.21279531  0.63417025  1
  C  C244  1  0.74412331  0.54534885  0.63609222  1
  C  C245  1  0.74936154  0.87987744  0.62924314  1
  C  C246  1  0.24516368  0.11959872  0.13346349  1
  C  C247  1  0.24705174  0.45627795  0.13152502  1
  C  C248  1  0.24486476  0.78658411  0.12946554  1
  C  C249  1  0.74616298  0.12192085  0.13156456  1
  C  C250  1  0.75549674  0.45712515  0.13539547  1
  C  C251  1  0.74447471  0.78928565  0.13405666  1
  C  C252  1  0.25198150  0.21218618  0.86771597  1
  C  C253  1  0.24912847  0.54693465  0.87297921  1
  C  C254  1  0.24618107  0.87927928  0.86574347  1
  C  C255  1  0.74685524  0.21352789  0.87361970  1
  C  C256  1  0.74569288  0.54814001  0.87328801  1
  C  C257  1  0.74368715  0.87861784  0.87058848  1
  C  C258  1  0.25292045  0.12116271  0.37118860  1
  C  C259  1  0.25189694  0.45537281  0.36529067  1
  C  C260  1  0.25073589  0.78933446  0.37167253  1
  C  C261  1  0.75085386  0.12004839  0.36688789  1
  C  C262  1  0.75619215  0.45394479  0.36639617  1
  C  C263  1  0.75235002  0.78922477  0.37053536  1
  C  C264  1  0.27839942  0.57999220  0.96739360  1
  C  C265  1  0.54601948  0.59160528  0.03416973  1
  C  C266  1  0.04712414  0.07494810  0.53650414  1
  C  C267  1  0.69268945  0.57050262  0.54536179  1
  C  C268  1  0.22348840  0.42868878  0.46150045  1
  C  C269  1  0.18543045  0.09519417  0.04534847  1
  C  C270  1  0.73788123  0.09145141  0.46305855  1
  C  C271  1  0.70198391  0.75953716  0.46086752  1
  C  C272  1  0.19394283  0.57297373  0.54041282  1
  C  C273  1  0.21939652  0.75735657  0.46620360  1
  C  C274  1  0.46985583  0.59393312  0.45727065  1
  C  C275  1  0.45428087  0.74342056  0.53695440  1
  C  C276  1  0.26684788  0.09257815  0.03633932  1
  C  C277  1  0.81605001  0.23851363  0.95776559  1
  C  C278  1  0.02818336  0.25387623  0.46054102  1
  C  C279  1  0.70912861  0.43650005  0.04188269  1
  C  C280  1  0.04987481  0.07335691  0.95877798  1
  C  C281  1  0.48914975  0.73688042  0.96523028  1
  C  C282  1  0.47057484  0.92073855  0.46728972  1
  C  C283  1  0.97590491  0.92664836  0.03371129  1
  C  C284  1  0.77399626  0.09494395  0.03686402  1
  C  C285  1  0.46071639  0.25946998  0.45859900  1
  C  C286  1  0.70632785  0.57563651  0.96519663  1
  C  C287  1  0.98370686  0.59387276  0.46061967  1
  C  C288  1  0.77455792  0.57140159  0.54010411  1
  C  C289  1  0.79080819  0.43128499  0.04034898  1
  C  C290  1  0.30517805  0.43124601  0.45576766  1
  C  C291  1  0.53106872  0.40574548  0.54268500  1
  C  C292  1  0.03178151  0.74194349  0.54026552  1
  C  C293  1  0.56982735  0.73307471  0.95383433  1
  C  C294  1  0.28319657  0.91237995  0.53943060  1
  C  C295  1  0.46501116  0.59171031  0.03384817  1
  C  C296  1  0.44195120  0.40960957  0.95303186  1
  C  C297  1  0.79355732  0.42683771  0.45926018  1
  C  C298  1  0.97823848  0.58690017  0.03497061  1
  C  C299  1  0.78696226  0.57584426  0.96464626  1
  C  C300  1  0.18078872  0.90223838  0.95159833  1
  C  C301  1  0.93443652  0.40568581  0.54486118  1
  C  C302  1  0.22504341  0.24520028  0.53841783  1
  C  C303  1  0.73644971  0.24378664  0.97070697  1
  C  C304  1  0.44479319  0.07512430  0.54166951  1
  C  C305  1  0.17982030  0.76428258  0.04310447  1
  C  C306  1  0.05687887  0.92817194  0.03990143  1
  C  C307  1  0.76752284  0.91295821  0.53473757  1
  C  C308  1  0.26069241  0.90582802  0.96418747  1
  C  C309  1  0.71092804  0.23865154  0.54024595  1
  C  C310  1  0.79312870  0.23851067  0.54042021  1
  C  C311  1  0.27501064  0.57532004  0.53566968  1
  N  N312  1  0.70334519  0.90670052  0.96063826  1
  N  N313  1  0.19397541  0.23251954  0.95502584  1
  N  N314  1  0.20032006  0.09278699  0.45736167  1
  N  N315  1  0.81590875  0.09476721  0.45299026  1
  N  N316  1  0.30256288  0.24244376  0.54234410  1
  N  N317  1  0.69484208  0.09809168  0.03990633  1
  N  N318  1  0.96076325  0.40574464  0.96131049  1
  N  N319  1  0.54906820  0.59476478  0.45621765  1
  N  N320  1  0.96773878  0.07576517  0.53416666  1
  N  N321  1  0.95874869  0.26269789  0.04254503  1
  N  N322  1  0.27215042  0.24666433  0.96038336  1
  N  N323  1  0.20585402  0.91159593  0.53790380  1
  N  N324  1  0.03516639  0.26204506  0.03859153  1
  N  N325  1  0.69063053  0.90902921  0.54189454  1
  N  N326  1  0.05534163  0.59024392  0.04105491  1
  N  N327  1  0.05699220  0.73631676  0.96014012  1
  N  N328  1  0.48364713  0.08030307  0.96332494  1
  N  N329  1  0.52344904  0.07594159  0.53700087  1
  N  N330  1  0.04319811  0.40664283  0.95620604  1
  N  N331  1  0.45185828  0.40581335  0.54354835  1
  N  N332  1  0.27779216  0.08921534  0.46601763  1
  N  N333  1  0.23548226  0.42554387  0.03743972  1
  N  N334  1  0.78149379  0.90655984  0.96417540  1
  N  N335  1  0.54010390  0.25945946  0.45797246  1
  N  N336  1  0.69909507  0.75674544  0.04494771  1
  N  N337  1  0.95246397  0.74076663  0.54244617  1
  N  N338  1  0.25760936  0.75960729  0.03320034  1
  N  N339  1  0.31218819  0.42951161  0.04731129  1
  N  N340  1  0.48270339  0.25625635  0.03744091  1
  N  N341  1  0.78120291  0.75876787  0.46363748  1
  N  N342  1  0.52074616  0.41014092  0.96222855  1
  N  N343  1  0.97912172  0.74743615  0.96248815  1
  N  N344  1  0.56664088  0.92647658  0.04671599  1
  N  N345  1  0.01265515  0.40794364  0.53537159  1
  N  N346  1  0.97254507  0.07405436  0.96279115  1
  N  N347  1  0.19974642  0.57636040  0.96116458  1
  N  N348  1  0.54927779  0.92344450  0.46171960  1
  N  N349  1  0.55987488  0.25953555  0.04543708  1
  N  N350  1  0.48948259  0.92199392  0.03725997  1
  N  N351  1  0.29813579  0.75973889  0.46043120  1
  N  N352  1  0.06171536  0.59516269  0.45059566  1
  N  N353  1  0.53360881  0.74353919  0.53646671  1
  N  N354  1  0.77498162  0.75729673  0.04073070  1
  N  N355  1  0.95085456  0.25704585  0.45806299  1
  N  N356  1  0.96426477  0.92384225  0.46031271  1
  N  N357  1  0.71405572  0.42696382  0.46002992  1
  N  N358  1  0.56180283  0.06920440  0.95718212  1
  N  N359  1  0.04044159  0.92384224  0.46084734  1
  N  N360  1  0.06558374  0.05627294  0.59411828  1
  N  N361  1  0.05303609  0.38781314  0.58720214  1
  N  N362  1  0.06341455  0.72508304  0.59594144  1
  N  N363  1  0.55813152  0.05511380  0.59069065  1
  N  N364  1  0.56050845  0.38931690  0.59908841  1
  N  N365  1  0.56215381  0.72436797  0.59278372  1
  N  N366  1  0.44319498  0.27496164  0.08831260  1
  N  N367  1  0.44015133  0.60915577  0.08959775  1
  N  N368  1  0.44861543  0.94228488  0.08674879  1
  N  N369  1  0.93837423  0.27781637  0.10162876  1
  N  N370  1  0.94122952  0.60487369  0.08763224  1
  N  N371  1  0.94233490  0.94216954  0.08771835  1
  N  N372  1  0.44807805  0.05574840  0.91279041  1
  N  N373  1  0.43002836  0.39115634  0.89437843  1
  N  N374  1  0.45069575  0.72278267  0.91079576  1
  N  N375  1  0.94584720  0.05510790  0.90472113  1
  N  N376  1  0.93337483  0.39681946  0.90272847  1
  N  N377  1  0.94709646  0.72265276  0.91100117  1
  N  N378  1  0.06137086  0.27259410  0.40667574  1
  N  N379  1  0.06994410  0.61236602  0.39078504  1
  N  N380  1  0.06638907  0.94249533  0.40376283  1
  N  N381  1  0.55957961  0.27692536  0.39955991  1
  N  N382  1  0.56806629  0.61181813  0.39755923  1
  N  N383  1  0.56934248  0.94389466  0.40384852  1
  N  N384  1  0.31767021  0.22094281  0.60190427  1
  N  N385  1  0.30656362  0.55965652  0.59028191  1
  N  N386  1  0.31101076  0.89309120  0.59496686  1
  N  N387  1  0.81675945  0.22272247  0.59912702  1
  N  N388  1  0.80520891  0.55601375  0.59700425  1
  N  N389  1  0.80569921  0.89535777  0.58710747  1
  N  N390  1  0.17387224  0.11179194  0.10588365  1
  N  N391  1  0.19425366  0.44448509  0.08744517  1
  N  N392  1  0.17157497  0.78054803  0.10298525  1
  N  N393  1  0.67905142  0.11455790  0.09956533  1
  N  N394  1  0.68843979  0.45195542  0.10134494  1
  N  N395  1  0.67838912  0.77631455  0.10261880  1
  N  N396  1  0.18182628  0.22320096  0.89408030  1
  N  N397  1  0.18109085  0.55575461  0.90300416  1
  N  N398  1  0.17244448  0.88635263  0.89197487  1
  N  N399  1  0.69466905  0.22869498  0.92005086  1
  N  N400  1  0.68082932  0.55890281  0.90938120  1
  N  N401  1  0.67880480  0.88867827  0.90438948  1
  N  N402  1  0.31009362  0.10630791  0.41170635  1
  N  N403  1  0.32130100  0.44761465  0.39589155  1
  N  N404  1  0.31804072  0.78005695  0.40252989  1
  N  N405  1  0.82204869  0.11236598  0.39295919  1
  N  N406  1  0.82055669  0.44302419  0.40188665  1
  N  N407  1  0.81298231  0.77805747  0.40824763  1
  N  N408  1  0.43161649  0.27635226  0.40211544  1
  N  N409  1  0.44007420  0.61022766  0.40096021  1
  N  N410  1  0.44099563  0.93872566  0.41223772  1
  N  N411  1  0.93381942  0.27840419  0.39887422  1
  N  N412  1  0.94382032  0.60978772  0.40793485  1
  N  N413  1  0.93965633  0.94202851  0.40272781  1
  N  N414  1  0.07387481  0.05571038  0.90134112  1
  N  N415  1  0.05984119  0.38133462  0.90057923  1
  N  N416  1  0.07432131  0.72356278  0.90120152  1
  N  N417  1  0.57429511  0.05815723  0.89707410  1
  N  N418  1  0.55739613  0.38723178  0.91081445  1
  N  N419  1  0.57850670  0.71716210  0.89299325  1
  N  N420  1  0.06470249  0.27647155  0.09583105  1
  N  N421  1  0.06798302  0.61078176  0.10123325  1
  N  N422  1  0.07109707  0.94523615  0.10099706  1
  N  N423  1  0.56880605  0.27687761  0.10427219  1
  N  N424  1  0.57056156  0.60863437  0.09013914  1
  N  N425  1  0.57328027  0.94444684  0.10566948  1
  N  N426  1  0.42952130  0.05643772  0.59958878  1
  N  N427  1  0.43238202  0.38866320  0.60227610  1
  N  N428  1  0.43335669  0.72527487  0.59430550  1
  N  N429  1  0.93699060  0.05590431  0.58958340  1
  N  N430  1  0.92573370  0.38819688  0.60408837  1
  N  N431  1  0.93566437  0.72319415  0.60135799  1
  N  N432  1  0.18415148  0.11298427  0.40038179  1
  N  N433  1  0.19170019  0.44375650  0.40473320  1
  N  N434  1  0.18977106  0.77538178  0.41095747  1
  N  N435  1  0.69651524  0.10670443  0.41059506  1
  N  N436  1  0.69274615  0.44387985  0.40191417  1
  N  N437  1  0.68421660  0.77770522  0.40300726  1
  N  N438  1  0.30802322  0.22199209  0.91013483  1
  N  N439  1  0.30923301  0.56188739  0.91291655  1
  N  N440  1  0.30067022  0.89096811  0.90935140  1
  N  N441  1  0.82069704  0.21990555  0.89644136  1
  N  N442  1  0.81130341  0.55907065  0.90855714  1
  N  N443  1  0.80610597  0.88992812  0.90755240  1
  N  N444  1  0.30281538  0.10800105  0.09154635  1
  N  N445  1  0.31877522  0.44652912  0.10643053  1
  N  N446  1  0.29836339  0.77365708  0.08649167  1
  N  N447  1  0.80667725  0.10945900  0.09264110  1
  N  N448  1  0.81853399  0.44442509  0.09874219  1
  N  N449  1  0.80464584  0.77821482  0.09557061  1
  N  N450  1  0.19026936  0.22631483  0.59161429  1
  N  N451  1  0.17739785  0.55523927  0.60075608  1
  N  N452  1  0.18271056  0.89088763  0.59569467  1
  N  N453  1  0.68653527  0.22274086  0.59885363  1
  N  N454  1  0.67537933  0.55459225  0.60510285  1
  N  N455  1  0.67934019  0.88841425  0.60199866  1
  Cl  Cl456  1  0.24669348  0.05242980  0.62235541  1
  Cl  Cl457  1  0.23964304  0.39019228  0.61318519  1
  Cl  Cl458  1  0.25095849  0.72458830  0.61883204  1
  Cl  Cl459  1  0.74591543  0.05694295  0.61079455  1
  Cl  Cl460  1  0.74457307  0.38883799  0.62621514  1
  Cl  Cl461  1  0.74835377  0.72745752  0.60756890  1
  Cl  Cl462  1  0.25487741  0.27212859  0.10046431  1
  Cl  Cl463  1  0.25348370  0.61527957  0.11003935  1
  Cl  Cl464  1  0.26699236  0.93975735  0.11428956  1
  Cl  Cl465  1  0.75335245  0.28021669  0.12194470  1
  Cl  Cl466  1  0.75676503  0.61297886  0.12248234  1
  Cl  Cl467  1  0.75669452  0.94739283  0.11676439  1
  Cl  Cl468  1  0.26469468  0.06008662  0.88823844  1
  Cl  Cl469  1  0.24126826  0.39421667  0.89199439  1
  Cl  Cl470  1  0.26364568  0.72199602  0.89703449  1
  Cl  Cl471  1  0.75889046  0.05350259  0.88291593  1
  Cl  Cl472  1  0.74617756  0.39088127  0.89363457  1
  Cl  Cl473  1  0.76662580  0.72014887  0.87444811  1
  Cl  Cl474  1  0.24645522  0.27615008  0.37519718  1
  Cl  Cl475  1  0.25602875  0.62037262  0.37701046  1
  Cl  Cl476  1  0.25294276  0.94375124  0.38134610  1
  Cl  Cl477  1  0.74584670  0.27955941  0.38677553  1
  Cl  Cl478  1  0.75784142  0.61436338  0.38981728  1
  Cl  Cl479  1  0.75330785  0.94286429  0.38397638  1
  Cl  Cl480  1  0.00469164  0.21769593  0.61235412  1
  Cl  Cl481  1  -0.01046073  0.55044252  0.61382452  1
  Cl  Cl482  1  -0.00594921  0.88902500  0.61588814  1
  Cl  Cl483  1  0.50112466  0.21430000  0.62593993  1
  Cl  Cl484  1  0.48915573  0.55921279  0.61430277  1
  Cl  Cl485  1  0.49572586  0.88587852  0.62056092  1
  Cl  Cl486  1  -0.01071271  0.11411626  0.12390938  1
  Cl  Cl487  1  0.00897141  0.44011126  0.10437972  1
  Cl  Cl488  1  -0.01273536  0.77147872  0.10827652  1
  Cl  Cl489  1  0.48971361  0.10438467  0.11097264  1
  Cl  Cl490  1  0.50569704  0.44195146  0.11015798  1
  Cl  Cl491  1  0.48520733  0.77771648  0.11480977  1
  Cl  Cl492  1  0.00386009  0.21518439  0.87608607  1
  Cl  Cl493  1  -0.00245427  0.54865802  0.88257677  1
  Cl  Cl494  1  -0.01134495  0.88531282  0.87960295  1
  Cl  Cl495  1  0.49310733  0.22717285  0.89946101  1
  Cl  Cl496  1  0.49403136  0.55243938  0.88048862  1
  Cl  Cl497  1  0.48968409  0.89580085  0.89698952  1
  Cl  Cl498  1  0.00539620  0.11324779  0.38748640  1
  Cl  Cl499  1  0.00736149  0.43904497  0.38698719  1
  Cl  Cl500  1  0.00220790  0.77556675  0.38291112  1
  Cl  Cl501  1  0.50690171  0.10388454  0.39472032  1
  Cl  Cl502  1  0.50781016  0.44474847  0.37874692  1
  Cl  Cl503  1  0.50179193  0.78025354  0.38679563  1
  Cl  Cl504  1  0.35967967  0.14746824  0.74833368  1
  Cl  Cl505  1  0.35524274  0.48323356  0.75021278  1
  Cl  Cl506  1  0.35337792  0.81499084  0.74935164  1
  Cl  Cl507  1  0.85841175  0.14899471  0.75488703  1
  Cl  Cl508  1  0.85706139  0.48178404  0.75486674  1
  Cl  Cl509  1  0.85595236  0.81651482  0.74520227  1
  Cl  Cl510  1  0.13444977  0.18838986  0.24561555  1
  Cl  Cl511  1  0.13771686  0.52193589  0.25122053  1
  Cl  Cl512  1  0.13801038  0.85299299  0.24305493  1
  Cl  Cl513  1  0.63875410  0.18554321  0.24540030  1
  Cl  Cl514  1  0.64320987  0.51821740  0.25529240  1
  Cl  Cl515  1  0.63406933  0.85610683  0.24984655  1
  Cl  Cl516  1  0.14007754  0.14725484  0.75346487  1
  Cl  Cl517  1  0.13514282  0.48101653  0.75366408  1
  Cl  Cl518  1  0.13300196  0.81170787  0.75513616  1
  Cl  Cl519  1  0.63827045  0.14842313  0.75864477  1
  Cl  Cl520  1  0.63553364  0.48067335  0.75027485  1
  Cl  Cl521  1  0.63506675  0.81266526  0.74818149  1
  Cl  Cl522  1  0.35641131  0.18446012  0.24914158  1
  Cl  Cl523  1  0.35737891  0.51889859  0.24631187  1
  Cl  Cl524  1  0.35873096  0.84864641  0.25620523  1
  Cl  Cl525  1  0.86141520  0.18618763  0.25883195  1
  Cl  Cl526  1  0.86441271  0.51840173  0.25157151  1
  Cl  Cl527  1  0.85341787  0.85012235  0.24871940  1
  Cl  Cl528  1  0.11187000  0.31362723  0.75783034  1
  Cl  Cl529  1  0.10699759  0.64694666  0.75581960  1
  Cl  Cl530  1  0.10939365  0.97977740  0.75054782  1
  Cl  Cl531  1  0.60724585  0.31480452  0.75038270  1
  Cl  Cl532  1  0.61188185  0.64597315  0.75020618  1
  Cl  Cl533  1  0.60803544  0.97786925  0.75571373  1
  Cl  Cl534  1  0.39236456  0.01661120  0.25401339  1
  Cl  Cl535  1  0.38933037  0.35395025  0.24683843  1
  Cl  Cl536  1  0.39324164  0.68287165  0.24576374  1
  Cl  Cl537  1  0.89275162  0.01725314  0.25410225  1
  Cl  Cl538  1  0.88712140  0.35419331  0.24901319  1
  Cl  Cl539  1  0.89269415  0.68383480  0.25036354  1
  Cl  Cl540  1  0.38304861  0.31316093  0.75795840  1
  Cl  Cl541  1  0.39165613  0.65226963  0.75092482  1
  Cl  Cl542  1  0.39153747  0.98299612  0.75071491  1
  Cl  Cl543  1  0.88977144  0.31447283  0.74654021  1
  Cl  Cl544  1  0.89013168  0.64993091  0.74317375  1
  Cl  Cl545  1  0.88927806  0.98404869  0.74646750  1
  Cl  Cl546  1  0.11444847  0.02088097  0.24382460  1
  Cl  Cl547  1  0.10901946  0.35338719  0.24737684  1
  Cl  Cl548  1  0.11136433  0.68979080  0.24363896  1
  Cl  Cl549  1  0.60993622  0.02277899  0.24655464  1
  Cl  Cl550  1  0.60987654  0.35200244  0.24571689  1
  Cl  Cl551  1  0.61276447  0.68580406  0.25209827  1
