# generated using pymatgen
data_H8PbC4(N3Cl2)2
_symmetry_space_group_name_H-M   'P 1'
_cell_length_a   16.62294615
_cell_length_b   22.51261861
_cell_length_c   21.59369715
_cell_angle_alpha   89.99897283
_cell_angle_beta   89.99504865
_cell_angle_gamma   90.00579363
_symmetry_Int_Tables_number   1
_chemical_formula_structural   H8PbC4(N3Cl2)2
_chemical_formula_sum   'H192 Pb24 C96 N144 Cl96'
_cell_volume   8080.92385155
_cell_formula_units_Z   24
loop_
 _symmetry_equiv_pos_site_id
 _symmetry_equiv_pos_as_xyz
  1  'x, y, z'
loop_
 _atom_site_type_symbol
 _atom_site_label
 _atom_site_symmetry_multiplicity
 _atom_site_fract_x
 _atom_site_fract_y
 _atom_site_fract_z
 _atom_site_occupancy
  H  H0  1  0.00921181  0.03112444  0.68026235  1
  H  H1  1  -0.01022628  0.36091448  0.68135201  1
  H  H2  1  -0.01478597  0.69930515  0.67481091  1
  H  H3  1  0.49771129  0.02628617  0.67739982  1
  H  H4  1  0.50884529  0.36438287  0.67812066  1
  H  H5  1  0.51286817  0.69998620  0.68114265  1
  H  H6  1  0.00647099  0.30194185  0.18229683  1
  H  H7  1  0.00378376  0.63635247  0.17818569  1
  H  H8  1  0.00444031  0.96855088  0.17714374  1
  H  H9  1  0.49152431  0.30585971  0.17583400  1
  H  H10  1  0.50335169  0.63838488  0.18106607  1
  H  H11  1  0.50165912  0.96967295  0.18132951  1
  H  H12  1  -0.00449494  0.02835077  0.81859234  1
  H  H13  1  -0.01318609  0.36355121  0.82168854  1
  H  H14  1  0.00573233  0.69743489  0.81618860  1
  H  H15  1  0.49932832  0.03006171  0.81870828  1
  H  H16  1  0.51746569  0.36457794  0.82641789  1
  H  H17  1  0.50475795  0.69775842  0.82326673  1
  H  H18  1  0.00052936  0.30212897  0.32158260  1
  H  H19  1  -0.00669392  0.63856202  0.32183838  1
  H  H20  1  0.00031161  0.97144271  0.32116556  1
  H  H21  1  0.50190904  0.30117848  0.31847499  1
  H  H22  1  0.50933197  0.63965840  0.32168499  1
  H  H23  1  0.50425644  0.96976921  0.31758736  1
  H  H24  1  0.24976361  0.19440654  0.67886219  1
  H  H25  1  0.25882596  0.53150002  0.67942994  1
  H  H26  1  0.24357626  0.86490576  0.67801427  1
  H  H27  1  0.74426529  0.19657134  0.67875346  1
  H  H28  1  0.73851681  0.53128320  0.68232399  1
  H  H29  1  0.74636511  0.85978498  0.67485973  1
  H  H30  1  0.24901152  0.13647461  0.17933708  1
  H  H31  1  0.23394137  0.46961811  0.17779563  1
  H  H32  1  0.24255375  0.80228622  0.17819650  1
  H  H33  1  0.74536151  0.13600386  0.18106735  1
  H  H34  1  0.75924922  0.47282413  0.17628416  1
  H  H35  1  0.75122735  0.80147583  0.17916187  1
  H  H36  1  0.24476800  0.19750312  0.81948343  1
  H  H37  1  0.25914352  0.52703644  0.81771834  1
  H  H38  1  0.26578986  0.86512973  0.82075232  1
  H  H39  1  0.75324624  0.19575437  0.82122234  1
  H  H40  1  0.74588951  0.52819319  0.82252860  1
  H  H41  1  0.74032257  0.86446260  0.82261272  1
  H  H42  1  0.23949183  0.13655796  0.32132373  1
  H  H43  1  0.23830022  0.46882872  0.32264597  1
  H  H44  1  0.26109982  0.80467843  0.32035426  1
  H  H45  1  0.75165701  0.13595886  0.32318250  1
  H  H46  1  0.76344300  0.46461904  0.31527807  1
  H  H47  1  0.74778519  0.80081909  0.32622090  1
  H  H48  1  0.12007402  0.05644587  0.59795202  1
  H  H49  1  0.11922911  0.38616922  0.61774972  1
  H  H50  1  0.12557058  0.71611601  0.62564506  1
  H  H51  1  0.62046881  0.05283774  0.60735902  1
  H  H52  1  0.61615670  0.39040211  0.59483981  1
  H  H53  1  0.63158987  0.72483461  0.60370705  1
  H  H54  1  0.37883112  0.27819800  0.09618466  1
  H  H55  1  0.37606798  0.61260820  0.11225798  1
  H  H56  1  0.36823788  0.94843005  0.11715464  1
  H  H57  1  0.87214819  0.28067530  0.12420700  1
  H  H58  1  0.87161626  0.61335467  0.11508041  1
  H  H59  1  0.86737400  0.94926559  0.12006127  1
  H  H60  1  0.37515819  0.05393967  0.88850977  1
  H  H61  1  0.37725420  0.38082277  0.87595446  1
  H  H62  1  0.36867096  0.71948730  0.88124635  1
  H  H63  1  0.87520233  0.05466394  0.89184799  1
  H  H64  1  0.87844382  0.39209017  0.90544011  1
  H  H65  1  0.86877621  0.71665420  0.87690839  1
  H  H66  1  0.11432840  0.27651716  0.40103030  1
  H  H67  1  0.12352769  0.61320597  0.38581151  1
  H  H68  1  0.11657067  0.94517884  0.39750601  1
  H  H69  1  0.61598596  0.27514442  0.39818797  1
  H  H70  1  0.61764301  0.61245088  0.40520508  1
  H  H71  1  0.61904959  0.94310626  0.39718791  1
  H  H72  1  0.37890352  0.21993823  0.61287976  1
  H  H73  1  0.37844557  0.55703984  0.60571958  1
  H  H74  1  0.38176616  0.88291343  0.62552866  1
  H  H75  1  0.88005867  0.21870445  0.61967181  1
  H  H76  1  0.87789043  0.55183846  0.62628729  1
  H  H77  1  0.88269577  0.88153056  0.61751809  1
  H  H78  1  0.12504578  0.11088375  0.10873039  1
  H  H79  1  0.12420737  0.44109297  0.09623663  1
  H  H80  1  0.13597247  0.77717941  0.09442004  1
  H  H81  1  0.62596845  0.11409428  0.10824654  1
  H  H82  1  0.62163687  0.44905739  0.11994489  1
  H  H83  1  0.62716639  0.77972434  0.10874237  1
  H  H84  1  0.12984983  0.22374149  0.89738333  1
  H  H85  1  0.12978784  0.55090977  0.88482657  1
  H  H86  1  0.13017715  0.88463058  0.88140509  1
  H  H87  1  0.62416154  0.21992713  0.88587068  1
  H  H88  1  0.62956699  0.55671168  0.89735987  1
  H  H89  1  0.63614237  0.89026422  0.90760051  1
  H  H90  1  0.37569474  0.11366729  0.38134900  1
  H  H91  1  0.37947901  0.45103016  0.37362094  1
  H  H92  1  0.37300343  0.77836434  0.40076065  1
  H  H93  1  0.87871874  0.11181903  0.39108429  1
  H  H94  1  0.88147026  0.44626592  0.39187200  1
  H  H95  1  0.87274091  0.77969347  0.39377614  1
  H  H96  1  0.36849760  0.28010811  0.38343853  1
  H  H97  1  0.37127168  0.61661864  0.37494285  1
  H  H98  1  0.37108466  0.94680275  0.38205052  1
  H  H99  1  0.86717797  0.27853028  0.38132562  1
  H  H100  1  0.87454855  0.61689242  0.39748150  1
  H  H101  1  0.86767217  0.94590446  0.38346016  1
  H  H102  1  0.12401232  0.05089964  0.88638637  1
  H  H103  1  0.12456243  0.38474254  0.87896265  1
  H  H104  1  0.11657764  0.72420282  0.89670989  1
  H  H105  1  0.62407216  0.05464809  0.88979755  1
  H  H106  1  0.62101874  0.39388477  0.91124638  1
  H  H107  1  0.61571595  0.72404545  0.90444304  1
  H  H108  1  0.12020257  0.27984517  0.10376216  1
  H  H109  1  0.12080244  0.61000741  0.10277366  1
  H  H110  1  0.11518382  0.94359608  0.09813486  1
  H  H111  1  0.62591887  0.28264573  0.11494373  1
  H  H112  1  0.62524142  0.61472423  0.10886739  1
  H  H113  1  0.61684505  0.94417712  0.10412716  1
  H  H114  1  0.37071823  0.05327186  0.61014229  1
  H  H115  1  0.37089456  0.38387860  0.62115820  1
  H  H116  1  0.38302158  0.72109122  0.61354116  1
  H  H117  1  0.87335128  0.05206737  0.61846702  1
  H  H118  1  0.87031041  0.38767675  0.60632412  1
  H  H119  1  0.88172071  0.72663962  0.59002156  1
  H  H120  1  0.12941653  0.10903802  0.40367471  1
  H  H121  1  0.13548741  0.43902123  0.40797249  1
  H  H122  1  0.12505565  0.78314063  0.38028651  1
  H  H123  1  0.62944097  0.10978040  0.39382953  1
  H  H124  1  0.63251919  0.44542280  0.37872254  1
  H  H125  1  0.62379719  0.77937135  0.39475331  1
  H  H126  1  0.37818106  0.21882680  0.88301364  1
  H  H127  1  0.37854616  0.55324839  0.89142039  1
  H  H128  1  0.37785992  0.89341963  0.90021395  1
  H  H129  1  0.87260137  0.22189426  0.89629248  1
  H  H130  1  0.87770124  0.55243245  0.88528404  1
  H  H131  1  0.88149525  0.88367342  0.87485132  1
  H  H132  1  0.37499575  0.11370720  0.11079123  1
  H  H133  1  0.37090079  0.44900039  0.12033312  1
  H  H134  1  0.38250855  0.78382609  0.12330553  1
  H  H135  1  0.87529411  0.11419040  0.11576613  1
  H  H136  1  0.86770797  0.44159422  0.09384439  1
  H  H137  1  0.87625739  0.77954067  0.11143928  1
  H  H138  1  0.12920247  0.21930994  0.60631375  1
  H  H139  1  0.12975499  0.55504927  0.61263858  1
  H  H140  1  0.13640861  0.89069127  0.59585837  1
  H  H141  1  0.63191636  0.22278622  0.59986699  1
  H  H142  1  0.63185227  0.55858401  0.59890421  1
  H  H143  1  0.63555488  0.89047070  0.59579345  1
  H  H144  1  0.66662567  0.42428090  0.49371182  1
  H  H145  1  0.57333867  0.08531490  0.49897266  1
  H  H146  1  0.83434053  0.08218119  0.49611267  1
  H  H147  1  0.08550906  0.58819037  0.49301425  1
  H  H148  1  0.04843173  0.75402811  1.00120599  1
  H  H149  1  0.90724113  0.58689820  0.00775615  1
  H  H150  1  0.79172000  0.41557660  -0.00606024  1
  H  H151  1  0.67731688  0.08414112  -0.00172314  1
  H  H152  1  0.30583404  0.74954195  0.50570572  1
  H  H153  1  0.11274315  0.74893631  0.51089204  1
  H  H154  1  0.21366917  0.41759299  0.50818710  1
  H  H155  1  0.89774440  0.25206981  0.01107470  1
  H  H156  1  0.33822949  0.24695771  0.50677967  1
  H  H157  1  0.92824627  0.08493009  0.99889164  1
  H  H158  1  0.39426588  0.41618726  0.51274603  1
  H  H159  1  0.89955461  0.91724995  0.49064757  1
  H  H160  1  0.33291980  0.08283366  0.00110427  1
  H  H161  1  0.93113238  0.39701710  0.49923787  1
  H  H162  1  0.57366323  0.58322674  0.00125897  1
  H  H163  1  0.41469630  0.07976059  0.50439823  1
  H  H164  1  0.82500986  0.43598899  0.50481099  1
  H  H165  1  0.55418049  0.91576296  -0.00276771  1
  H  H166  1  0.69516189  0.25313866  0.49400696  1
  H  H167  1  0.70374399  0.91616573  0.49371614  1
  H  H168  1  0.70515483  0.58918163  0.49661624  1
  H  H169  1  0.54513641  0.59165765  0.50613076  1
  H  H170  1  0.71062865  0.91786423  1.01095018  1
  H  H171  1  0.32299304  0.58241125  0.99876015  1
  H  H172  1  0.05772772  0.91425121  0.50440591  1
  H  H173  1  0.85371577  0.24537722  0.51042064  1
  H  H174  1  0.36328406  0.75513847  0.01302041  1
  H  H175  1  0.17295296  0.08056953  0.00517657  1
  H  H176  1  0.83395560  0.74945562  -0.00030400  1
  H  H177  1  0.20764545  0.75092282  -0.01037580  1
  H  H178  1  0.06461886  0.57881620  -0.00408402  1
  H  H179  1  0.39059868  0.58681947  0.48841694  1
  H  H180  1  0.19389215  0.25400092  1.00330190  1
  H  H181  1  0.95398812  0.41643861  1.00564488  1
  H  H182  1  0.54017139  0.40196436  0.49238656  1
  H  H183  1  0.08151144  0.41382469  0.50538794  1
  H  H184  1  0.59279149  0.25346219  0.00807174  1
  H  H185  1  0.18114864  0.24793500  0.49691465  1
  H  H186  1  0.36331996  0.91362348  0.51002840  1
  H  H187  1  0.39021752  0.41178896  -0.00855602  1
  H  H188  1  0.86765809  0.91406775  0.98643194  1
  H  H189  1  0.92701196  0.58718478  0.50473048  1
  H  H190  1  0.05159683  0.91387467  -0.00890745  1
  H  H191  1  0.05862310  0.25424606  -0.00512588  1
  Pb  Pb192  1  0.25225784  0.04572638  0.75229494  1
  Pb  Pb193  1  0.24996230  0.37954729  0.74467402  1
  Pb  Pb194  1  0.25611722  0.71618118  0.75135885  1
  Pb  Pb195  1  0.75285045  0.04894947  0.74794261  1
  Pb  Pb196  1  0.75517311  0.38302967  0.75182921  1
  Pb  Pb197  1  0.75326820  0.71422200  0.74824143  1
  Pb  Pb198  1  0.24891328  0.28747844  0.24914321  1
  Pb  Pb199  1  0.24740284  0.61896204  0.24558935  1
  Pb  Pb200  1  0.24417197  0.95296548  0.24935317  1
  Pb  Pb201  1  0.74320025  0.28392481  0.25581258  1
  Pb  Pb202  1  0.74870332  0.62154263  0.25623780  1
  Pb  Pb203  1  0.74662088  0.95226799  0.25349646  1
  Pb  Pb204  1  0.00574959  0.21385899  0.75537773  1
  Pb  Pb205  1  0.00716000  0.54974000  0.74996023  1
  Pb  Pb206  1  0.00388628  0.88011944  0.74272822  1
  Pb  Pb207  1  0.50192717  0.21448820  0.74932335  1
  Pb  Pb208  1  0.50461962  0.54920797  0.74751878  1
  Pb  Pb209  1  0.50866446  0.88234171  0.75595441  1
  Pb  Pb210  1  -0.00051282  0.12016974  0.25171570  1
  Pb  Pb211  1  -0.00319967  0.45023977  0.25009321  1
  Pb  Pb212  1  0.00002817  0.78659627  0.24341962  1
  Pb  Pb213  1  0.49484473  0.11798477  0.25295293  1
  Pb  Pb214  1  0.50027413  0.45493413  0.25658572  1
  Pb  Pb215  1  0.49763199  0.78712011  0.25441538  1
  C  C216  1  0.00084846  0.04600028  0.63282651  1
  C  C217  1  -0.00755231  0.37721348  0.63399984  1
  C  C218  1  -0.00143507  0.71392270  0.62815410  1
  C  C219  1  0.49587232  0.04386157  0.63050007  1
  C  C220  1  0.49837322  0.37921305  0.63082897  1
  C  C221  1  0.50925117  0.71451254  0.63330241  1
  C  C222  1  -0.00076005  0.28724716  0.13470241  1
  C  C223  1  -0.00176292  0.62005995  0.13088207  1
  C  C224  1  -0.00415574  0.95389701  0.12965572  1
  C  C225  1  0.49909057  0.28950937  0.12891767  1
  C  C226  1  0.50125856  0.62214893  0.13383355  1
  C  C227  1  0.49530429  0.95464249  0.13386903  1
  C  C228  1  -0.00152872  0.04461956  0.86583363  1
  C  C229  1  -0.00386518  0.37905561  0.86875892  1
  C  C230  1  -0.00324268  0.71194383  0.86363559  1
  C  C231  1  0.49983458  0.04609995  0.86582905  1
  C  C232  1  0.50433772  0.37955076  0.87301134  1
  C  C233  1  0.49634642  0.71349795  0.87015915  1
  C  C234  1  -0.00592611  0.28602397  0.36854004  1
  C  C235  1  -0.00248898  0.62229094  0.36918835  1
  C  C236  1  -0.00574100  0.95486049  0.36825097  1
  C  C237  1  0.49532542  0.28613190  0.36602762  1
  C  C238  1  0.49961285  0.62365082  0.36863002  1
  C  C239  1  0.49822077  0.95419681  0.36484733  1
  C  C240  1  0.25302361  0.21102778  0.63163448  1
  C  C241  1  0.25533665  0.54742006  0.63238394  1
  C  C242  1  0.25500374  0.87947248  0.63102445  1
  C  C243  1  0.75275626  0.21230852  0.63154489  1
  C  C244  1  0.74985711  0.54671219  0.63548857  1
  C  C245  1  0.75458773  0.87613713  0.62799341  1
  C  C246  1  0.24934908  0.12027953  0.13186049  1
  C  C247  1  0.24318982  0.45366506  0.13118144  1
  C  C248  1  0.25442477  0.78780836  0.13096598  1
  C  C249  1  0.74858130  0.12148394  0.13328328  1
  C  C250  1  0.74999448  0.45571050  0.12986115  1
  C  C251  1  0.75210636  0.78669098  0.13144126  1
  C  C252  1  0.25107752  0.21286101  0.86683077  1
  C  C253  1  0.25555402  0.54357998  0.86482503  1
  C  C254  1  0.25768792  0.88052797  0.86777329  1
  C  C255  1  0.75028222  0.21221083  0.86818812  1
  C  C256  1  0.75140936  0.54528292  0.86904078  1
  C  C257  1  0.75351372  0.87940942  0.86951216  1
  C  C258  1  0.24823677  0.12066547  0.36836525  1
  C  C259  1  0.25098561  0.45471760  0.36974861  1
  C  C260  1  0.25283258  0.78889056  0.36747948  1
  C  C261  1  0.75372355  0.11932064  0.37020507  1
  C  C262  1  0.75890189  0.45237331  0.36381445  1
  C  C263  1  0.74811665  0.78616997  0.37411208  1
  C  C264  1  0.71424314  0.08920301  0.46371482  1
  C  C265  1  0.96389073  0.59609965  0.46413573  1
  C  C266  1  0.72285775  0.57790700  0.96228513  1
  C  C267  1  0.79637193  0.09578834  0.04188161  1
  C  C268  1  0.70546070  0.24102218  0.95896673  1
  C  C269  1  0.79306514  0.75977245  0.03752425  1
  C  C270  1  0.70930510  0.43338661  0.45676443  1
  C  C271  1  0.01774299  0.74101303  0.95866003  1
  C  C272  1  0.46134342  0.07500372  0.95813210  1
  C  C273  1  0.81267836  0.90508782  0.54081019  1
  C  C274  1  0.94427209  0.26205581  0.04513787  1
  C  C275  1  0.73783930  0.90688795  0.96649739  1
  C  C276  1  0.31695397  0.43065474  0.45532594  1
  C  C277  1  0.72720103  0.24112588  0.53612283  1
  C  C278  1  0.78893606  0.75965379  0.46586844  1
  C  C279  1  0.71166993  0.76000026  0.03832353  1
  C  C280  1  0.28669030  0.57182314  0.95844445  1
  C  C281  1  0.52046646  0.40855285  0.96985829  1
  C  C282  1  0.21727190  0.23849660  0.53764889  1
  C  C283  1  0.70838817  0.75949493  0.46597774  1
  C  C284  1  0.43889173  0.59523670  0.45423227  1
  C  C285  1  0.71501637  0.09494973  0.03777062  1
  C  C286  1  0.01820395  0.92590779  0.03269002  1
  C  C287  1  0.53562884  0.59398069  0.04087105  1
  C  C288  1  0.28808240  0.57655530  0.53863294  1
  C  C289  1  0.06269898  0.73986989  0.54229283  1
  C  C290  1  0.22296212  0.42190150  0.03656191  1
  C  C291  1  0.44371730  0.74078918  0.95830781  1
  C  C292  1  0.04068140  0.40464437  0.54363848  1
  C  C293  1  0.79105549  0.43609367  0.46186593  1
  C  C294  1  0.22615476  0.24161703  0.96137179  1
  C  C295  1  0.52109110  0.92721414  0.03913834  1
  C  C296  1  0.73386030  0.57625515  0.54002504  1
  C  C297  1  0.02591437  0.26245271  0.03764497  1
  C  C298  1  0.31505767  0.90509262  0.54318491  1
  C  C299  1  0.23439710  0.90803671  0.53453735  1
  C  C300  1  0.98259296  0.74296638  0.53143050  1
  C  C301  1  0.23585168  0.76123683  0.03387023  1
  C  C302  1  0.44032929  0.40409029  0.95956551  1
  C  C303  1  0.02965106  0.59058615  0.03667975  1
  C  C304  1  0.94336239  0.25801259  0.45761768  1
  C  C305  1  0.53466280  0.07416928  0.53821137  1
  C  C306  1  0.96630125  0.07312637  0.95921731  1
  C  C307  1  0.28046936  0.91168442  0.96196841  1
  C  C308  1  0.27480443  0.76058568  0.46271948  1
  C  C309  1  0.02426247  0.92519601  0.46265041  1
  C  C310  1  0.29175931  0.09293965  0.03945643  1
  C  C311  1  0.93711788  0.92876454  0.04121001  1
  N  N312  1  0.22635441  0.08928614  0.46362673  1
  N  N313  1  0.30223968  0.09098075  0.45642825  1
  N  N314  1  0.30505736  0.23962996  0.95676873  1
  N  N315  1  0.52066782  0.74267961  0.96687698  1
  N  N316  1  0.21199595  0.09281420  0.03965657  1
  N  N317  1  0.44212572  0.92814893  0.04362494  1
  N  N318  1  0.44004750  0.40001885  0.54397099  1
  N  N319  1  0.68959198  0.42505103  0.04487481  1
  N  N320  1  0.20346219  0.90824342  0.95759047  1
  N  N321  1  0.53913123  0.07534806  0.95978405  1
  N  N322  1  0.51785275  0.59310821  0.46334325  1
  N  N323  1  0.93913528  0.73824685  0.95220342  1
  N  N324  1  0.04569167  0.07171227  0.95811264  1
  N  N325  1  0.02383190  0.07444759  0.53673661  1
  N  N326  1  0.73416053  0.90823834  0.53430541  1
  N  N327  1  0.95012402  0.59142184  0.04201367  1
  N  N328  1  0.96079470  0.40500461  0.54001286  1
  N  N329  1  0.79347194  0.09045671  0.46147344  1
  N  N330  1  0.81590024  0.90555945  0.95422217  1
  N  N331  1  0.80646778  0.23951891  0.54387516  1
  N  N332  1  0.52528579  0.92605958  0.46020976  1
  N  N333  1  0.78328494  0.24190202  0.96333619  1
  N  N334  1  0.80061753  0.57622100  0.95942345  1
  N  N335  1  0.94503019  0.92431913  0.45615337  1
  N  N336  1  0.81215548  0.57390839  0.54902982  1
  N  N337  1  0.44591308  0.26113697  0.45714568  1
  N  N338  1  0.04321209  0.59271795  0.45860888  1
  N  N339  1  0.45632068  0.59234117  0.04190769  1
  N  N340  1  0.54880228  0.26140122  0.04167809  1
  N  N341  1  0.29684617  0.24020207  0.54164005  1
  N  N342  1  0.05670609  0.40538783  0.95524638  1
  N  N343  1  0.76684503  0.42253202  0.03735475  1
  N  N344  1  0.23919262  0.42642606  0.46557510  1
  N  N345  1  0.02055166  0.25722407  0.46548927  1
  N  N346  1  0.20741436  0.57167869  0.95645315  1
  N  N347  1  0.52236163  0.25965197  0.46210634  1
  N  N348  1  0.97947312  0.40795057  0.96284257  1
  N  N349  1  0.94783208  0.07275617  0.54346634  1
  N  N350  1  0.44936574  0.92743372  0.45489195  1
  N  N351  1  0.51775818  0.40885151  0.53634926  1
  N  N352  1  0.47109343  0.25971976  0.03394202  1
  N  N353  1  0.21005065  0.57586713  0.53963241  1
  N  N354  1  0.31414708  0.76239006  0.04509200  1
  N  N355  1  0.46410067  0.74023150  0.54128923  1
  N  N356  1  0.29972942  0.42461334  0.04333317  1
  N  N357  1  0.45482708  0.07524909  0.54049385  1
  N  N358  1  0.19623742  0.76171965  0.45567828  1
  N  N359  1  0.54049074  0.74140893  0.53828427  1
  N  N360  1  0.05802295  0.05729008  0.59154483  1
  N  N361  1  0.06021832  0.38965672  0.60213510  1
  N  N362  1  0.07118658  0.72184928  0.60336328  1
  N  N363  1  0.56022449  0.05607099  0.59455349  1
  N  N364  1  0.55421166  0.38721951  0.58770756  1
  N  N365  1  0.56990177  0.72524473  0.59500445  1
  N  N366  1  0.44049764  0.27674348  0.08880260  1
  N  N367  1  0.43665544  0.60987800  0.10026958  1
  N  N368  1  0.42782148  0.94512891  0.10271151  1
  N  N369  1  0.92942748  0.27721843  0.10553431  1
  N  N370  1  0.93111542  0.61091738  0.09963782  1
  N  N371  1  0.92426062  0.94549134  0.10060079  1
  N  N372  1  0.43505002  0.05751986  0.90147718  1
  N  N373  1  0.43185818  0.38630659  0.89829012  1
  N  N374  1  0.42608272  0.72345871  0.89913805  1
  N  N375  1  0.93602839  0.05688461  0.90295475  1
  N  N376  1  0.94081259  0.39019460  0.91121337  1
  N  N377  1  0.92763987  0.72022052  0.89281076  1
  N  N378  1  0.05222024  0.27499371  0.40843441  1
  N  N379  1  0.06372089  0.60994644  0.40040811  1
  N  N380  1  0.05527907  0.94335653  0.40794144  1
  N  N381  1  0.55402622  0.27484408  0.40587990  1
  N  N382  1  0.55509305  0.61405270  0.41140068  1
  N  N383  1  0.55699146  0.94276754  0.40452184  1
  N  N384  1  0.31869151  0.22241061  0.59929666  1
  N  N385  1  0.31787032  0.55943140  0.59458404  1
  N  N386  1  0.32638009  0.88753646  0.60428188  1
  N  N387  1  0.82154871  0.22079325  0.60240295  1
  N  N388  1  0.82024494  0.55581926  0.60862255  1
  N  N389  1  0.82568163  0.88652879  0.59937407  1
  N  N390  1  0.18598401  0.10947443  0.09667420  1
  N  N391  1  0.18579134  0.43964642  0.08939027  1
  N  N392  1  0.19836590  0.77668303  0.08715977  1
  N  N393  1  0.68628573  0.11104168  0.09584895  1
  N  N394  1  0.67960584  0.44410940  0.10301579  1
  N  N395  1  0.68716888  0.77621175  0.09485645  1
  N  N396  1  0.19124762  0.22510619  0.90662655  1
  N  N397  1  0.18993364  0.55408635  0.89786459  1
  N  N398  1  0.18913352  0.88852841  0.89744514  1
  N  N399  1  0.68339436  0.22353035  0.90107430  1
  N  N400  1  0.69067468  0.55914709  0.90789969  1
  N  N401  1  0.69851092  0.89090212  0.91399454  1
  N  N402  1  0.31701981  0.11033732  0.39714692  1
  N  N403  1  0.32457700  0.44691984  0.39538734  1
  N  N404  1  0.31098239  0.77686692  0.40871933  1
  N  N405  1  0.81837678  0.10908111  0.40390755  1
  N  N406  1  0.82079012  0.44727033  0.40351413  1
  N  N407  1  0.81369666  0.77579375  0.40966408  1
  N  N408  1  0.42805859  0.27750657  0.39753319  1
  N  N409  1  0.42784944  0.61196269  0.39484453  1
  N  N410  1  0.43091914  0.94475245  0.39613171  1
  N  N411  1  0.92486733  0.27505417  0.39857157  1
  N  N412  1  0.93520857  0.61298524  0.40812458  1
  N  N413  1  0.92690968  0.94376067  0.39842709  1
  N  N414  1  0.06381319  0.05403880  0.89936929  1
  N  N415  1  0.06654778  0.38867904  0.89632714  1
  N  N416  1  0.05461979  0.72473840  0.90479920  1
  N  N417  1  0.56314456  0.05720640  0.90087525  1
  N  N418  1  0.55927297  0.39380497  0.91773939  1
  N  N419  1  0.55334672  0.72518251  0.91087527  1
  N  N420  1  0.05894121  0.27787123  0.09387134  1
  N  N421  1  0.05972216  0.60732707  0.09219139  1
  N  N422  1  0.05364527  0.94192281  0.08889271  1
  N  N423  1  0.56702294  0.28021403  0.09880559  1
  N  N424  1  0.56464672  0.61215162  0.09684908  1
  N  N425  1  0.55542091  0.94343850  0.09407568  1
  N  N426  1  0.43116564  0.05468647  0.59683576  1
  N  N427  1  0.42826148  0.39065271  0.60437929  1
  N  N428  1  0.44340392  0.72375971  0.60017544  1
  N  N429  1  0.93243898  0.05582814  0.60335400  1
  N  N430  1  0.93130562  0.38405236  0.59537919  1
  N  N431  1  0.94381819  0.72733877  0.58318870  1
  N  N432  1  0.19153967  0.10807917  0.40958611  1
  N  N433  1  0.19754185  0.44368909  0.41346749  1
  N  N434  1  0.18394461  0.77921344  0.39632556  1
  N  N435  1  0.68952729  0.10681528  0.40708497  1
  N  N436  1  0.69081787  0.44362335  0.39566868  1
  N  N437  1  0.68295404  0.77552073  0.41009762  1
  N  N438  1  0.31871520  0.22194126  0.89784546  1
  N  N439  1  0.31776310  0.55526975  0.90250313  1
  N  N440  1  0.31651479  0.89489230  0.90838723  1
  N  N441  1  0.81117079  0.22349683  0.90557818  1
  N  N442  1  0.81827994  0.55591522  0.89992447  1
  N  N443  1  0.82484041  0.88871371  0.89453659  1
  N  N444  1  0.31505776  0.11002794  0.09682278  1
  N  N445  1  0.31269085  0.44438960  0.10323504  1
  N  N446  1  0.32507729  0.77868316  0.10479253  1
  N  N447  1  0.81628862  0.11154072  0.09979599  1
  N  N448  1  0.80541657  0.44338995  0.08780749  1
  N  N449  1  0.81722326  0.77649417  0.09686538  1
  N  N450  1  0.18973691  0.22154577  0.59382603  1
  N  N451  1  0.19001299  0.55743453  0.59945841  1
  N  N452  1  0.19827123  0.89239443  0.58739916  1
  N  N453  1  0.69349881  0.22480113  0.59062706  1
  N  N454  1  0.69415708  0.55947046  0.59256433  1
  N  N455  1  0.69757247  0.88814626  0.58746354  1
  Cl  Cl456  1  0.24606581  0.05344983  0.62034548  1
  Cl  Cl457  1  0.24256783  0.38969911  0.60425391  1
  Cl  Cl458  1  0.26079193  0.72087205  0.61834705  1
  Cl  Cl459  1  0.74764576  0.05317117  0.61206486  1
  Cl  Cl460  1  0.74229409  0.39115919  0.61331066  1
  Cl  Cl461  1  0.75765479  0.72570477  0.61368862  1
  Cl  Cl462  1  0.24851019  0.27919041  0.11475125  1
  Cl  Cl463  1  0.24783792  0.61310422  0.11219072  1
  Cl  Cl464  1  0.24077159  0.94861743  0.11718563  1
  Cl  Cl465  1  0.74587915  0.28139563  0.12504217  1
  Cl  Cl466  1  0.74854127  0.61352169  0.12378580  1
  Cl  Cl467  1  0.73914938  0.94308872  0.11940919  1
  Cl  Cl468  1  0.24925655  0.05437051  0.88909732  1
  Cl  Cl469  1  0.24774840  0.38497727  0.87174162  1
  Cl  Cl470  1  0.24029290  0.72421800  0.88732305  1
  Cl  Cl471  1  0.74941895  0.05245745  0.88046593  1
  Cl  Cl472  1  0.75654153  0.39556139  0.89597147  1
  Cl  Cl473  1  0.73951220  0.72036084  0.88230848  1
  Cl  Cl474  1  0.24119651  0.27964665  0.38789897  1
  Cl  Cl475  1  0.24633716  0.61384227  0.37767684  1
  Cl  Cl476  1  0.24276658  0.94335893  0.38299688  1
  Cl  Cl477  1  0.73949688  0.27489491  0.39210375  1
  Cl  Cl478  1  0.74176591  0.61306106  0.39241469  1
  Cl  Cl479  1  0.74030476  0.94283807  0.39466010  1
  Cl  Cl480  1  0.00419918  0.22154145  0.62400335  1
  Cl  Cl481  1  0.00584761  0.55437123  0.61460204  1
  Cl  Cl482  1  0.01295717  0.88844298  0.60737370  1
  Cl  Cl483  1  0.50445831  0.22019565  0.61685363  1
  Cl  Cl484  1  0.50747971  0.55826563  0.60486621  1
  Cl  Cl485  1  0.51598981  0.89085414  0.62419547  1
  Cl  Cl486  1  0.00157508  0.11030938  0.11796156  1
  Cl  Cl487  1  -0.00964937  0.44078177  0.10486966  1
  Cl  Cl488  1  0.01319634  0.77500542  0.10855048  1
  Cl  Cl489  1  0.49891219  0.11678792  0.12260980  1
  Cl  Cl490  1  0.49727025  0.44980482  0.12691498  1
  Cl  Cl491  1  0.50573543  0.78365548  0.12287745  1
  Cl  Cl492  1  0.00171349  0.22341601  0.89047840  1
  Cl  Cl493  1  0.00314009  0.55362070  0.88545950  1
  Cl  Cl494  1  0.00640899  0.88494117  0.87530422  1
  Cl  Cl495  1  0.50294366  0.22104362  0.88174449  1
  Cl  Cl496  1  0.50578176  0.55404543  0.87998950  1
  Cl  Cl497  1  0.51005199  0.89158951  0.89194997  1
  Cl  Cl498  1  0.00327747  0.11293771  0.38377303  1
  Cl  Cl499  1  0.00912123  0.43671771  0.39293140  1
  Cl  Cl500  1  -0.00161041  0.78235823  0.37523596  1
  Cl  Cl501  1  0.50359038  0.10972803  0.38967411  1
  Cl  Cl502  1  0.50767268  0.43930011  0.39353977  1
  Cl  Cl503  1  0.49540815  0.77886173  0.38426152  1
  Cl  Cl504  1  0.36338837  0.14653058  0.75229499  1
  Cl  Cl505  1  0.35870379  0.47784130  0.74305910  1
  Cl  Cl506  1  0.36013860  0.81215699  0.74892675  1
  Cl  Cl507  1  0.85795103  0.14577189  0.74575993  1
  Cl  Cl508  1  0.86121987  0.47663875  0.74642296  1
  Cl  Cl509  1  0.86603004  0.81168724  0.75643714  1
  Cl  Cl510  1  0.14098897  0.18398747  0.24634214  1
  Cl  Cl511  1  0.13981834  0.51592799  0.24853213  1
  Cl  Cl512  1  0.14211334  0.84814619  0.25160971  1
  Cl  Cl513  1  0.64561485  0.18497222  0.25534164  1
  Cl  Cl514  1  0.64140552  0.51758535  0.25296902  1
  Cl  Cl515  1  0.64016532  0.84955607  0.25550450  1
  Cl  Cl516  1  0.14386560  0.14903888  0.75089445  1
  Cl  Cl517  1  0.13775900  0.48025273  0.74809990  1
  Cl  Cl518  1  0.14004622  0.81438524  0.74896627  1
  Cl  Cl519  1  0.64023418  0.14869438  0.74789519  1
  Cl  Cl520  1  0.64023248  0.48207541  0.75059648  1
  Cl  Cl521  1  0.64601932  0.81745559  0.74908650  1
  Cl  Cl522  1  0.36109401  0.18697460  0.25582839  1
  Cl  Cl523  1  0.36261735  0.52035200  0.25481156  1
  Cl  Cl524  1  0.36117207  0.85504450  0.24488588  1
  Cl  Cl525  1  0.86334316  0.18902799  0.24969183  1
  Cl  Cl526  1  0.86269891  0.52069684  0.24930142  1
  Cl  Cl527  1  0.86093512  0.85339821  0.25143895  1
  Cl  Cl528  1  0.10694544  0.31537321  0.75194127  1
  Cl  Cl529  1  0.10688069  0.64767244  0.74323610  1
  Cl  Cl530  1  0.10847363  0.98361376  0.75497526  1
  Cl  Cl531  1  0.60386379  0.31813274  0.75230465  1
  Cl  Cl532  1  0.60346415  0.64764028  0.75154780  1
  Cl  Cl533  1  0.60842452  0.98302418  0.75176695  1
  Cl  Cl534  1  0.38869942  0.02146236  0.25133942  1
  Cl  Cl535  1  0.38784468  0.35444239  0.25312328  1
  Cl  Cl536  1  0.38462957  0.68682412  0.24782919  1
  Cl  Cl537  1  0.88372902  0.02044759  0.24865421  1
  Cl  Cl538  1  0.88850920  0.35648072  0.25334074  1
  Cl  Cl539  1  0.89177713  0.68368747  0.24633244  1
  Cl  Cl540  1  0.38474921  0.31254458  0.74735463  1
  Cl  Cl541  1  0.38383828  0.64414730  0.75286726  1
  Cl  Cl542  1  0.38902759  0.97862766  0.74738798  1
  Cl  Cl543  1  0.88705311  0.31164594  0.74938606  1
  Cl  Cl544  1  0.88625262  0.64467477  0.74960545  1
  Cl  Cl545  1  0.88565135  0.97703321  0.74594319  1
  Cl  Cl546  1  0.10385182  0.01537269  0.25052148  1
  Cl  Cl547  1  0.10743732  0.35083643  0.25016226  1
  Cl  Cl548  1  0.10829144  0.68350936  0.25246338  1
  Cl  Cl549  1  0.61012907  0.01884265  0.25506712  1
  Cl  Cl550  1  0.60826141  0.35200846  0.25016110  1
  Cl  Cl551  1  0.60728112  0.68498679  0.25161286  1
