# generated using pymatgen
data_H8PbC4(N3Cl2)2
_symmetry_space_group_name_H-M   'P 1'
_cell_length_a   16.62964880
_cell_length_b   22.51440158
_cell_length_c   21.59464865
_cell_angle_alpha   90.00003656
_cell_angle_beta   90.01305027
_cell_angle_gamma   89.99718724
_symmetry_Int_Tables_number   1
_chemical_formula_structural   H8PbC4(N3Cl2)2
_chemical_formula_sum   'H192 Pb24 C96 N144 Cl96'
_cell_volume   8085.17857134
_cell_formula_units_Z   24
loop_
 _symmetry_equiv_pos_site_id
 _symmetry_equiv_pos_as_xyz
  1  'x, y, z'
loop_
 _atom_site_type_symbol
 _atom_site_label
 _atom_site_symmetry_multiplicity
 _atom_site_fract_x
 _atom_site_fract_y
 _atom_site_fract_z
 _atom_site_occupancy
  H  H0  1  -0.01450102  0.03123409  0.67907346  1
  H  H1  1  -0.01062396  0.35747234  0.67916751  1
  H  H2  1  0.00836882  0.69603837  0.67966243  1
  H  H3  1  0.50760137  0.02785178  0.67842667  1
  H  H4  1  0.49609872  0.36051383  0.68038792  1
  H  H5  1  0.50371281  0.69730786  0.67956230  1
  H  H6  1  0.01568114  0.30451644  0.17996766  1
  H  H7  1  0.00929828  0.63659852  0.18181699  1
  H  H8  1  0.01971809  0.96888093  0.17455775  1
  H  H9  1  0.48492809  0.30446101  0.17649486  1
  H  H10  1  0.48972640  0.63502903  0.17926382  1
  H  H11  1  0.48252280  0.97190137  0.17583442  1
  H  H12  1  -0.01050173  0.02753646  0.81926356  1
  H  H13  1  -0.00481319  0.36277979  0.82098163  1
  H  H14  1  -0.01082262  0.69834345  0.82096157  1
  H  H15  1  0.51976623  0.03333652  0.82554955  1
  H  H16  1  0.50984513  0.36400597  0.82190438  1
  H  H17  1  0.50183630  0.69468989  0.82050147  1
  H  H18  1  0.00584176  0.30169396  0.32572044  1
  H  H19  1  -0.00443288  0.63805613  0.32393424  1
  H  H20  1  0.00102386  0.97105648  0.31912326  1
  H  H21  1  0.48813585  0.30330556  0.31848358  1
  H  H22  1  0.50787111  0.63986633  0.32072246  1
  H  H23  1  0.50088125  0.96949711  0.31768915  1
  H  H24  1  0.25313392  0.19452644  0.67909664  1
  H  H25  1  0.24359751  0.52765204  0.67575524  1
  H  H26  1  0.24682765  0.86452835  0.67810702  1
  H  H27  1  0.75781316  0.19738513  0.67664036  1
  H  H28  1  0.75848358  0.53173521  0.68139756  1
  H  H29  1  0.74369916  0.86254142  0.68282927  1
  H  H30  1  0.23677897  0.13376704  0.18150513  1
  H  H31  1  0.25922682  0.47073415  0.17737522  1
  H  H32  1  0.26422693  0.80498271  0.17917873  1
  H  H33  1  0.75950248  0.13738627  0.17764277  1
  H  H34  1  0.74455101  0.47165425  0.17711435  1
  H  H35  1  0.73100884  0.80431777  0.17781834  1
  H  H36  1  0.24810895  0.19056302  0.82112659  1
  H  H37  1  0.23583565  0.52716933  0.82344437  1
  H  H38  1  0.25074556  0.86560314  0.81954038  1
  H  H39  1  0.75842967  0.19847787  0.82285669  1
  H  H40  1  0.76285592  0.53243627  0.81904922  1
  H  H41  1  0.73875289  0.86245618  0.82327076  1
  H  H42  1  0.26042567  0.13782258  0.32059174  1
  H  H43  1  0.25180073  0.46952879  0.32043625  1
  H  H44  1  0.24546170  0.80232710  0.32028950  1
  H  H45  1  0.73816745  0.13973316  0.32272356  1
  H  H46  1  0.75439292  0.46702640  0.32044281  1
  H  H47  1  0.74387085  0.80537525  0.32053635  1
  H  H48  1  0.12223065  0.04793739  0.62118231  1
  H  H49  1  0.12748365  0.38115316  0.62395055  1
  H  H50  1  0.11518325  0.72412383  0.59634353  1
  H  H51  1  0.61759963  0.05787676  0.59610530  1
  H  H52  1  0.62959263  0.38419851  0.61860915  1
  H  H53  1  0.61399980  0.72386703  0.59992941  1
  H  H54  1  0.38377858  0.27352527  0.09009279  1
  H  H55  1  0.37083050  0.60698959  0.10443931  1
  H  H56  1  0.37151261  0.94216329  0.09631930  1
  H  H57  1  0.87756077  0.28403113  0.12189307  1
  H  H58  1  0.87100380  0.61617206  0.12483121  1
  H  H59  1  0.87764418  0.95227302  0.12863607  1
  H  H60  1  0.37960824  0.04707918  0.87505036  1
  H  H61  1  0.37169474  0.38448283  0.87904491  1
  H  H62  1  0.37666839  0.72217100  0.88761854  1
  H  H63  1  0.87717125  0.05569872  0.89844050  1
  H  H64  1  0.87272153  0.38852606  0.89463634  1
  H  H65  1  0.87896099  0.72451186  0.90041221  1
  H  H66  1  0.12847444  0.28005488  0.39521603  1
  H  H67  1  0.12983034  0.61156924  0.38155385  1
  H  H68  1  0.12417307  0.94519203  0.39123277  1
  H  H69  1  0.62973854  0.28494614  0.36994714  1
  H  H70  1  0.62884234  0.61146168  0.39259603  1
  H  H71  1  0.62176353  0.94481408  0.39292310  1
  H  H72  1  0.36792965  0.22191581  0.60206204  1
  H  H73  1  0.37253843  0.55161175  0.60903943  1
  H  H74  1  0.37588886  0.88747697  0.61058009  1
  H  H75  1  0.87022704  0.22295139  0.59814388  1
  H  H76  1  0.86745880  0.55676582  0.60012609  1
  H  H77  1  0.87335508  0.88632727  0.61602068  1
  H  H78  1  0.12619658  0.10742423  0.09762956  1
  H  H79  1  0.12844808  0.44704530  0.11344005  1
  H  H80  1  0.12347059  0.78792714  0.12941831  1
  H  H81  1  0.62211453  0.11548609  0.11998982  1
  H  H82  1  0.63494918  0.44182781  0.09582400  1
  H  H83  1  0.63092389  0.77529407  0.08902719  1
  H  H84  1  0.12250668  0.21876459  0.88765183  1
  H  H85  1  0.13360042  0.55783312  0.90912905  1
  H  H86  1  0.12620802  0.88715075  0.89206009  1
  H  H87  1  0.62613157  0.21628877  0.88303524  1
  H  H88  1  0.62812864  0.55167375  0.87890054  1
  H  H89  1  0.62479344  0.89000111  0.90295534  1
  H  H90  1  0.37282204  0.10914462  0.40115696  1
  H  H91  1  0.36608060  0.44409389  0.39741706  1
  H  H92  1  0.38548919  0.78297406  0.37245198  1
  H  H93  1  0.87888958  0.12040667  0.37665382  1
  H  H94  1  0.85922971  0.44044061  0.40423665  1
  H  H95  1  0.87891246  0.78310632  0.37752234  1
  H  H96  1  0.38409375  0.27751798  0.40164965  1
  H  H97  1  0.38029746  0.61284612  0.38717408  1
  H  H98  1  0.37344267  0.94470493  0.38615215  1
  H  H99  1  0.87983113  0.28008543  0.39218193  1
  H  H100  1  0.88237458  0.60896368  0.40243748  1
  H  H101  1  0.87522394  0.94788961  0.38879790  1
  H  H102  1  0.12507045  0.04881202  0.88057932  1
  H  H103  1  0.12122944  0.38713702  0.89135717  1
  H  H104  1  0.12634427  0.71660346  0.87825124  1
  H  H105  1  0.62293121  0.05996832  0.91104651  1
  H  H106  1  0.61749338  0.39252624  0.90573644  1
  H  H107  1  0.62453740  0.71856583  0.89195553  1
  H  H108  1  0.12421253  0.27892273  0.09717530  1
  H  H109  1  0.11708366  0.60836784  0.09925524  1
  H  H110  1  0.11968560  0.94002828  0.08798714  1
  H  H111  1  0.62746488  0.28416448  0.12791799  1
  H  H112  1  0.61970052  0.61255590  0.11548894  1
  H  H113  1  0.61886885  0.95126809  0.11718532  1
  H  H114  1  0.37115256  0.05012655  0.62019192  1
  H  H115  1  0.38116331  0.38815343  0.60244360  1
  H  H116  1  0.36717146  0.71637752  0.62376874  1
  H  H117  1  0.87504810  0.05932323  0.60059451  1
  H  H118  1  0.88298580  0.38683192  0.59542547  1
  H  H119  1  0.86942580  0.71863445  0.62608923  1
  H  H120  1  0.12585877  0.11772164  0.38051062  1
  H  H121  1  0.11924824  0.44952640  0.37900488  1
  H  H122  1  0.13966472  0.77642616  0.40317654  1
  H  H123  1  0.63469649  0.10887985  0.40873130  1
  H  H124  1  0.61396683  0.45012740  0.37175003  1
  H  H125  1  0.63220851  0.77473685  0.39952200  1
  H  H126  1  0.37190386  0.21973650  0.89130562  1
  H  H127  1  0.37651893  0.54794265  0.87541124  1
  H  H128  1  0.37498712  0.88898378  0.89330931  1
  H  H129  1  0.87356835  0.22375566  0.90008383  1
  H  H130  1  0.87609757  0.55604058  0.89678387  1
  H  H131  1  0.87184505  0.88720731  0.88420424  1
  H  H132  1  0.37275724  0.11425553  0.12106951  1
  H  H133  1  0.37692297  0.44110538  0.10328046  1
  H  H134  1  0.36781175  0.77712404  0.09486813  1
  H  H135  1  0.86812286  0.10967904  0.09418296  1
  H  H136  1  0.88161545  0.44932815  0.12153968  1
  H  H137  1  0.87347271  0.78549272  0.12766807  1
  H  H138  1  0.11937654  0.21717915  0.61621580  1
  H  H139  1  0.12446969  0.55536653  0.60106161  1
  H  H140  1  0.12753366  0.88789372  0.60279513  1
  H  H141  1  0.62354515  0.21741172  0.62013156  1
  H  H142  1  0.62070771  0.54901778  0.62633248  1
  H  H143  1  0.62448670  0.88932497  0.60925101  1
  H  H144  1  0.21397353  0.58085399  1.00781402  1
  H  H145  1  0.88537858  0.91760457  1.01459333  1
  H  H146  1  0.94351264  0.08318872  1.00379798  1
  H  H147  1  0.32787858  0.58057124  0.50352616  1
  H  H148  1  0.58601534  0.58070551  0.00457016  1
  H  H149  1  0.62848488  0.42098364  0.48569886  1
  H  H150  1  0.65390233  0.24555380  0.99776646  1
  H  H151  1  0.92253113  0.91917905  0.49792834  1
  H  H152  1  0.93778877  0.09058579  0.49489284  1
  H  H153  1  0.13416045  0.75608738  0.01428188  1
  H  H154  1  0.33073808  0.91478519  0.50478542  1
  H  H155  1  0.94333093  0.75393107  1.00701595  1
  H  H156  1  0.45765293  0.24874423  0.50713785  1
  H  H157  1  0.44488421  0.41851661  0.49715058  1
  H  H158  1  0.31953748  0.24099493  0.99800524  1
  H  H159  1  0.64609605  0.24956156  0.50504450  1
  H  H160  1  0.68065326  0.92008212  0.50203770  1
  H  H161  1  0.81716041  0.58486582  1.00434149  1
  H  H162  1  0.69960937  0.75407331  0.50294599  1
  H  H163  1  0.43366228  0.77771643  0.97771400  1
  H  H164  1  0.39147021  0.07741902  -0.00911502  1
  H  H165  1  0.96004684  0.41217278  0.49536072  1
  H  H166  1  0.30356011  0.25311230  0.49597932  1
  H  H167  1  0.71543180  0.75222151  -0.00769508  1
  H  H168  1  0.29404373  0.75018390  -0.00889902  1
  H  H169  1  0.42513880  0.58119681  0.00137724  1
  H  H170  1  0.38524120  0.74739783  0.50875458  1
  H  H171  1  0.15418699  0.08534776  0.49235929  1
  H  H172  1  0.21110066  0.74866228  0.50845044  1
  H  H173  1  0.78823183  0.41286986  0.50818886  1
  H  H174  1  0.04565026  0.58136003  -0.00435332  1
  H  H175  1  0.95012257  0.57951024  0.50410091  1
  H  H176  1  0.54359482  0.08358342  0.49605016  1
  H  H177  1  0.46632876  0.24861610  -0.00812731  1
  H  H178  1  0.79350744  0.08575676  -0.00600554  1
  H  H179  1  0.80028719  0.58259873  0.49340632  1
  H  H180  1  0.16780859  0.25233792  0.99742784  1
  H  H181  1  0.05098124  0.25311241  -0.00784568  1
  H  H182  1  0.56575780  0.72817760  0.99782972  1
  H  H183  1  0.04022299  0.75091212  0.49602634  1
  H  H184  1  0.85502289  0.75293274  0.49068217  1
  H  H185  1  0.54165322  0.41835479  1.00530886  1
  H  H186  1  0.70667733  0.41454854  -0.00478101  1
  H  H187  1  0.14679677  0.41944406  0.49352085  1
  H  H188  1  0.71460526  0.08461349  0.50695164  1
  H  H189  1  0.63893391  0.57784464  0.51244311  1
  H  H190  1  0.69084219  0.92333881  1.00168524  1
  H  H191  1  0.54809239  0.75048642  0.49266463  1
  Pb  Pb192  1  0.24832897  0.04537747  0.74995863  1
  Pb  Pb193  1  0.24860746  0.38010747  0.74688508  1
  Pb  Pb194  1  0.25211171  0.71549413  0.74863284  1
  Pb  Pb195  1  0.74302438  0.05219607  0.75183924  1
  Pb  Pb196  1  0.75359937  0.38246678  0.75506125  1
  Pb  Pb197  1  0.74710174  0.71416399  0.74977301  1
  Pb  Pb198  1  0.24595700  0.28378747  0.24480288  1
  Pb  Pb199  1  0.24588990  0.61716741  0.24570962  1
  Pb  Pb200  1  0.25025333  0.95262609  0.24677366  1
  Pb  Pb201  1  0.75319020  0.28694506  0.25015002  1
  Pb  Pb202  1  0.74924110  0.61915392  0.25514385  1
  Pb  Pb203  1  0.74838399  0.95370533  0.25045606  1
  Pb  Pb204  1  -0.00032463  0.21266648  0.75298941  1
  Pb  Pb205  1  0.00433186  0.55078758  0.75034084  1
  Pb  Pb206  1  -0.00091527  0.88049971  0.74846654  1
  Pb  Pb207  1  0.49267038  0.21657377  0.75288909  1
  Pb  Pb208  1  0.49811837  0.54565524  0.75141565  1
  Pb  Pb209  1  0.49922191  0.88140503  0.75515157  1
  Pb  Pb210  1  -0.00165381  0.11827371  0.23958399  1
  Pb  Pb211  1  -0.00505057  0.45173399  0.26211481  1
  Pb  Pb212  1  0.00121599  0.78726977  0.26274659  1
  Pb  Pb213  1  0.50104936  0.12094358  0.26094067  1
  Pb  Pb214  1  0.49770648  0.45077979  0.24469486  1
  Pb  Pb215  1  0.50151120  0.78551586  0.23814309  1
  C  C216  1  -0.00603311  0.04599817  0.63178127  1
  C  C217  1  -0.00017475  0.37389840  0.63266001  1
  C  C218  1  -0.00219227  0.71143759  0.63275689  1
  C  C219  1  0.49928377  0.04399331  0.63159055  1
  C  C220  1  0.50258180  0.37724090  0.63351848  1
  C  C221  1  0.49442464  0.71204009  0.63215374  1
  C  C222  1  0.00571111  0.28905922  0.13302525  1
  C  C223  1  -0.00114577  0.62122721  0.13485423  1
  C  C224  1  0.00455483  0.95357001  0.12847806  1
  C  C225  1  0.49844606  0.28860567  0.13020053  1
  C  C226  1  0.49294516  0.61903846  0.13178539  1
  C  C227  1  0.49128371  0.95558671  0.12923700  1
  C  C228  1  -0.00260458  0.04318283  0.86637736  1
  C  C229  1  -0.00379766  0.37931651  0.86816625  1
  C  C230  1  -0.00216264  0.71298641  0.86832126  1
  C  C231  1  0.50641845  0.04685971  0.87255011  1
  C  C232  1  0.49986842  0.37957533  0.86884918  1
  C  C233  1  0.50100155  0.71145704  0.86764678  1
  C  C234  1  0.00477561  0.28730503  0.37351223  1
  C  C235  1  0.00232920  0.62069656  0.37039118  1
  C  C236  1  0.00017764  0.95496401  0.36643159  1
  C  C237  1  0.50055822  0.28876007  0.36543974  1
  C  C238  1  0.50544615  0.62210208  0.36714082  1
  C  C239  1  0.49882368  0.95374909  0.36517106  1
  C  C240  1  0.24655814  0.21073441  0.63204903  1
  C  C241  1  0.24711421  0.54430273  0.62870877  1
  C  C242  1  0.25052051  0.87966444  0.63051405  1
  C  C243  1  0.74971970  0.21258205  0.62942088  1
  C  C244  1  0.74831914  0.54612723  0.63400808  1
  C  C245  1  0.74740960  0.87923071  0.63574701  1
  C  C246  1  0.24487906  0.11882147  0.13414101  1
  C  C247  1  0.25475950  0.45329266  0.13093940  1
  C  C248  1  0.25127724  0.78975108  0.13244403  1
  C  C249  1  0.75030357  0.12193131  0.13057727  1
  C  C250  1  0.75344844  0.45564672  0.13037072  1
  C  C251  1  0.74465403  0.78936247  0.13122395  1
  C  C252  1  0.24806656  0.20816237  0.86797504  1
  C  C253  1  0.24851098  0.54294802  0.86988276  1
  C  C254  1  0.25094530  0.88018037  0.86747429  1
  C  C255  1  0.75193147  0.21288422  0.87043257  1
  C  C256  1  0.75596777  0.54677767  0.86663037  1
  C  C257  1  0.74471150  0.88020882  0.86968407  1
  C  C258  1  0.25325048  0.12171853  0.36757286  1
  C  C259  1  0.24481509  0.45493836  0.36790336  1
  C  C260  1  0.25686704  0.78798007  0.36742074  1
  C  C261  1  0.75014729  0.12385489  0.36928454  1
  C  C262  1  0.74187939  0.45300007  0.36763047  1
  C  C263  1  0.75162876  0.78943641  0.36773937  1
  C  C264  1  0.77570130  0.24160063  0.53415877  1
  C  C265  1  0.18563473  0.76515458  0.04686476  1
  C  C266  1  0.53954299  0.59097794  0.45994272  1
  C  C267  1  0.47714332  0.40727972  0.53951308  1
  C  C268  1  0.78177709  0.57364946  0.96366568  1
  C  C269  1  0.97512090  0.07159924  0.96131743  1
  C  C270  1  0.20550761  0.24045093  0.95834093  1
  C  C271  1  0.24076461  0.76046764  0.46514076  1
  C  C272  1  0.05245887  0.07161902  0.54383321  1
  C  C273  1  0.01660531  0.92243110  0.03196321  1
  C  C274  1  0.27150722  0.24081369  0.53806560  1
  C  C275  1  0.51676373  0.73938255  0.53531357  1
  C  C276  1  0.97159626  0.07646223  0.53539525  1
  C  C277  1  0.96255987  0.26050464  0.46489587  1
  C  C278  1  0.54144968  0.59075094  0.04144604  1
  C  C279  1  0.02333501  0.26209440  0.03683950  1
  C  C280  1  0.27334993  0.42764978  0.46345612  1
  C  C281  1  0.70081289  0.57159328  0.95584120  1
  C  C282  1  0.05833893  0.58678240  0.45704946  1
  C  C283  1  0.44179768  0.06973228  0.95934902  1
  C  C284  1  0.04312984  0.26067522  0.46591469  1
  C  C285  1  0.05660618  0.73872804  0.95597578  1
  C  C286  1  0.80850075  0.76122706  0.45503714  1
  C  C287  1  0.20194074  0.09486833  0.45651432  1
  C  C288  1  0.76953940  0.57200633  0.53647666  1
  C  C289  1  0.48611957  0.26072866  0.46349828  1
  C  C290  1  0.46991744  0.92377487  0.03505517  1
  C  C291  1  0.96203221  0.92880621  0.45908347  1
  C  C292  1  0.01616749  0.59300928  0.03908066  1
  C  C293  1  0.93684681  0.92613076  0.04463177  1
  C  C294  1  0.70017309  0.23749573  0.96197212  1
  C  C295  1  0.71657970  0.90850513  0.54243885  1
  C  C296  1  0.43534673  0.73725472  0.54373855  1
  C  C297  1  0.56585983  0.26372869  0.45042024  1
  C  C298  1  0.28408447  0.41986165  0.03882290  1
  C  C299  1  0.56653644  0.25820134  0.04807062  1
  C  C300  1  0.19219041  0.42913823  0.45849461  1
  C  C301  1  0.52199893  0.07391624  0.97007907  1
  C  C302  1  0.93570396  0.74108326  0.54758922  1
  C  C303  1  0.75846518  0.42569715  0.46526623  1
  C  C304  1  0.97611415  0.74160289  0.96545325  1
  C  C305  1  0.26623583  0.76168378  0.03502477  1
  C  C306  1  0.69459966  0.23988752  0.54007634  1
  C  C307  1  0.81315866  0.42476388  0.04415727  1
  C  C308  1  0.78129983  0.24038469  0.96577393  1
  C  C309  1  0.67798787  0.42931730  0.45383761  1
  C  C310  1  0.68829821  0.56975739  0.54574380  1
  C  C311  1  0.32118666  0.76317155  0.45384545  1
  N  N312  1  0.79593365  0.90773266  0.54460630  1
  N  N313  1  0.06098114  0.40404815  0.54818397  1
  N  N314  1  0.73824890  0.09277344  0.46314017  1
  N  N315  1  0.21381432  0.90575943  0.53611248  1
  N  N316  1  0.53269929  0.92512070  0.45924113  1
  N  N317  1  0.72134342  0.90928227  0.96296203  1
  N  N318  1  0.28058547  0.09173506  0.46365244  1
  N  N319  1  0.55570423  0.40713302  0.54524229  1
  N  N320  1  0.81307201  0.76298785  0.04832969  1
  N  N321  1  0.28517272  0.24060295  0.95862696  1
  N  N322  1  0.97987133  0.58727545  0.46318417  1
  N  N323  1  0.43915310  0.40704839  0.95489239  1
  N  N324  1  0.51639976  0.41026243  0.96226770  1
  N  N325  1  0.69043927  0.09502528  0.04398671  1
  N  N326  1  0.20665581  0.42184593  0.04065007  1
  N  N327  1  0.46170730  0.58937696  0.03887384  1
  N  N328  1  0.79899010  0.90924887  0.95751842  1
  N  N329  1  0.98409164  0.40577728  0.53938843  1
  N  N330  1  0.19253028  0.23950142  0.54293895  1
  N  N331  1  0.76765220  0.09272991  0.03670203  1
  N  N332  1  0.05384371  0.06960324  0.95549324  1
  N  N333  1  0.23720119  0.57454291  0.96364617  1
  N  N334  1  0.73499162  0.42341211  0.03663844  1
  N  N335  1  0.73656564  0.75868361  0.03698344  1
  N  N336  1  0.54057421  0.74394655  0.95764398  1
  N  N337  1  0.21195492  0.90512616  0.96150241  1
  N  N338  1  0.81503415  0.09705871  0.45365851  1
  N  N339  1  0.22338814  0.09114472  0.03771706  1
  N  N340  1  0.72941556  0.75805711  0.46149188  1
  N  N341  1  0.29882337  0.09278914  0.04541185  1
  N  N342  1  0.45849363  0.74027005  0.95833759  1
  N  N343  1  0.93779110  0.59526769  0.04738329  1
  N  N344  1  0.03647658  0.40878089  0.96044053  1
  N  N345  1  0.28803215  0.90590929  0.96171704  1
  N  N346  1  0.46159518  0.59112420  0.45937737  1
  N  N347  1  0.96032805  0.40906988  0.96137477  1
  N  N348  1  0.48936807  0.25527707  0.03587464  1
  N  N349  1  0.51751331  0.07500506  0.53862782  1
  N  N350  1  0.28887818  0.57325781  0.53951497  1
  N  N351  1  0.94511989  0.26170708  0.04588553  1
  N  N352  1  0.04123429  0.92751232  0.46019681  1
  N  N353  1  0.31411493  0.57073099  0.95376555  1
  N  N354  1  0.21084847  0.57411088  0.53526164  1
  N  N355  1  0.01356567  0.74283902  0.53841309  1
  N  N356  1  0.29173638  0.90559787  0.54026786  1
  N  N357  1  0.45581390  0.92501643  0.45696229  1
  N  N358  1  0.54705631  0.92653609  0.04050121  1
  N  N359  1  0.44021525  0.07287663  0.54538597  1
  N  N360  1  0.06516715  0.05352385  0.60219983  1
  N  N361  1  0.07027949  0.38588583  0.60652818  1
  N  N362  1  0.05285386  0.72185017  0.59005245  1
  N  N363  1  0.55536330  0.05550584  0.58986760  1
  N  N364  1  0.57046484  0.38802301  0.60364392  1
  N  N365  1  0.55232830  0.72356707  0.59071100  1
  N  N366  1  0.44620657  0.27726649  0.08563321  1
  N  N367  1  0.43197749  0.60844123  0.09410034  1
  N  N368  1  0.43313943  0.94097975  0.08817467  1
  N  N369  1  0.93594247  0.27842053  0.10549917  1
  N  N370  1  0.92886483  0.61266443  0.10711543  1
  N  N371  1  0.93106798  0.94547126  0.10551681  1
  N  N372  1  0.43383925  0.05300172  0.89765172  1
  N  N373  1  0.42941332  0.38972144  0.89605039  1
  N  N374  1  0.43708140  0.72911223  0.89886266  1
  N  N375  1  0.93882736  0.05587013  0.90698159  1
  N  N376  1  0.93369416  0.39077555  0.90430259  1
  N  N377  1  0.94031952  0.72505053  0.90933449  1
  N  N378  1  0.06929952  0.27675521  0.41021293  1
  N  N379  1  0.07246525  0.60693224  0.39942991  1
  N  N380  1  0.06314960  0.94381796  0.40223812  1
  N  N381  1  0.57424192  0.28026495  0.39116472  1
  N  N382  1  0.56849959  0.60908646  0.40403034  1
  N  N383  1  0.56032367  0.94257855  0.40233642  1
  N  N384  1  0.30633254  0.22343311  0.59240262  1
  N  N385  1  0.31243426  0.55399905  0.59539378  1
  N  N386  1  0.31581969  0.88929021  0.59712739  1
  N  N387  1  0.80890504  0.22515521  0.58790994  1
  N  N388  1  0.80567278  0.55728583  0.59182343  1
  N  N389  1  0.81321110  0.88993369  0.60307142  1
  N  N390  1  0.18821745  0.10761440  0.09253431  1
  N  N391  1  0.18826622  0.44272935  0.09932058  1
  N  N392  1  0.17836040  0.78213430  0.10750323  1
  N  N393  1  0.68019706  0.11140649  0.10293809  1
  N  N394  1  0.69695214  0.44448045  0.08880751  1
  N  N395  1  0.69325199  0.77755510  0.08613731  1
  N  N396  1  0.18231424  0.22210479  0.90166592  1
  N  N397  1  0.19582440  0.55481441  0.91400906  1
  N  N398  1  0.18719099  0.88887765  0.90332175  1
  N  N399  1  0.68324051  0.22059632  0.90113246  1
  N  N400  1  0.68575940  0.55575233  0.89711520  1
  N  N401  1  0.68666702  0.89284586  0.90934410  1
  N  N402  1  0.31106886  0.10872080  0.40763387  1
  N  N403  1  0.30484104  0.44312552  0.40883104  1
  N  N404  1  0.33015021  0.77952444  0.39414295  1
  N  N405  1  0.82173290  0.11481692  0.39496666  1
  N  N406  1  0.79695301  0.44092617  0.41106959  1
  N  N407  1  0.82225171  0.77895143  0.39624123  1
  N  N408  1  0.44615187  0.27683167  0.40901547  1
  N  N409  1  0.44066459  0.61086810  0.40029095  1
  N  N410  1  0.43386736  0.94272437  0.39877784  1
  N  N411  1  0.93888113  0.27659950  0.40845265  1
  N  N412  1  0.94417412  0.60990187  0.41063646  1
  N  N413  1  0.93516568  0.94512180  0.40170918  1
  N  N414  1  0.06589675  0.05187761  0.89640937  1
  N  N415  1  0.06031204  0.39064822  0.90260693  1
  N  N416  1  0.06950021  0.72175180  0.89718969  1
  N  N417  1  0.56101883  0.06021955  0.91779485  1
  N  N418  1  0.55509926  0.39131204  0.91126857  1
  N  N419  1  0.56394008  0.71676474  0.90470816  1
  N  N420  1  0.06245704  0.27813193  0.09021717  1
  N  N421  1  0.05512343  0.60891925  0.09229100  1
  N  N422  1  0.05747917  0.93910945  0.08239286  1
  N  N423  1  0.57240245  0.27746557  0.10679628  1
  N  N424  1  0.56072642  0.60841104  0.09943367  1
  N  N425  1  0.56025566  0.94671286  0.10054652  1
  N  N426  1  0.42940985  0.05497361  0.60384774  1
  N  N427  1  0.44291440  0.38934828  0.59353525  1
  N  N428  1  0.42349799  0.72035106  0.60414414  1
  N  N429  1  0.93623480  0.05991404  0.59146706  1
  N  N430  1  0.94526716  0.38505065  0.58954065  1
  N  N431  1  0.92543423  0.72266427  0.60632802  1
  N  N432  1  0.18388086  0.11277890  0.39764199  1
  N  N433  1  0.17574114  0.44599379  0.39788837  1
  N  N434  1  0.20164202  0.77618904  0.41030614  1
  N  N435  1  0.69707225  0.11124753  0.41297410  1
  N  N436  1  0.66917204  0.44595746  0.39336557  1
  N  N437  1  0.69424660  0.77875277  0.40866797  1
  N  N438  1  0.31119596  0.21704163  0.90397582  1
  N  N439  1  0.32022663  0.55312954  0.89468767  1
  N  N440  1  0.31379712  0.89095484  0.90333916  1
  N  N441  1  0.81247606  0.22564671  0.91079013  1
  N  N442  1  0.81518128  0.55798426  0.90666185  1
  N  N443  1  0.81311673  0.89120078  0.89955505  1
  N  N444  1  0.31387909  0.10933055  0.10508874  1
  N  N445  1  0.31640238  0.43871936  0.09308514  1
  N  N446  1  0.30595643  0.77677388  0.08880729  1
  N  N447  1  0.80599251  0.11122525  0.08817509  1
  N  N448  1  0.82488863  0.44417940  0.10231640  1
  N  N449  1  0.81733409  0.78006087  0.10753272  1
  N  N450  1  0.17881983  0.22079379  0.60143500  1
  N  N451  1  0.18543367  0.55699198  0.59157421  1
  N  N452  1  0.18859341  0.89002458  0.59277442  1
  N  N453  1  0.67997406  0.22206303  0.60073510  1
  N  N454  1  0.67698156  0.55405175  0.60664756  1
  N  N455  1  0.68532868  0.89135853  0.59807985  1
  Cl  Cl456  1  0.24709863  0.04948151  0.61865442  1
  Cl  Cl457  1  0.25843439  0.38835321  0.61366719  1
  Cl  Cl458  1  0.23573154  0.72182198  0.61443722  1
  Cl  Cl459  1  0.73859206  0.06253796  0.60385463  1
  Cl  Cl460  1  0.76271198  0.38811436  0.61984043  1
  Cl  Cl461  1  0.73735600  0.72871348  0.61268789  1
  Cl  Cl462  1  0.25926084  0.27209780  0.10083987  1
  Cl  Cl463  1  0.24257023  0.60269831  0.10400122  1
  Cl  Cl464  1  0.24557043  0.94179599  0.11554673  1
  Cl  Cl465  1  0.75256405  0.28698207  0.11832715  1
  Cl  Cl466  1  0.74357592  0.61380443  0.12354160  1
  Cl  Cl467  1  0.74261270  0.94658002  0.11487748  1
  Cl  Cl468  1  0.24854582  0.05380113  0.87631407  1
  Cl  Cl469  1  0.24392131  0.38231272  0.87896586  1
  Cl  Cl470  1  0.25560179  0.71608839  0.88265476  1
  Cl  Cl471  1  0.75187476  0.06013646  0.89244013  1
  Cl  Cl472  1  0.74022203  0.39287935  0.89675896  1
  Cl  Cl473  1  0.74603532  0.72913680  0.89243105  1
  Cl  Cl474  1  0.26047134  0.27805624  0.37906491  1
  Cl  Cl475  1  0.25685143  0.61068856  0.37801941  1
  Cl  Cl476  1  0.25027970  0.94280030  0.38222511  1
  Cl  Cl477  1  0.75717152  0.27880544  0.38053096  1
  Cl  Cl478  1  0.75824785  0.61140512  0.39061446  1
  Cl  Cl479  1  0.74568044  0.94670844  0.38531840  1
  Cl  Cl480  1  -0.00733733  0.21956644  0.62161571  1
  Cl  Cl481  1  -0.00599768  0.55816768  0.60676878  1
  Cl  Cl482  1  0.00105017  0.88431626  0.61476779  1
  Cl  Cl483  1  0.49024045  0.22058970  0.61996753  1
  Cl  Cl484  1  0.49235700  0.55053695  0.62137778  1
  Cl  Cl485  1  0.49884419  0.88871507  0.62353087  1
  Cl  Cl486  1  -0.00664062  0.10747989  0.10416398  1
  Cl  Cl487  1  0.00612136  0.45165754  0.13220981  1
  Cl  Cl488  1  -0.00310795  0.78535281  0.13301596  1
  Cl  Cl489  1  0.49740073  0.12007177  0.12932358  1
  Cl  Cl490  1  0.51161860  0.43976131  0.10315738  1
  Cl  Cl491  1  0.50321018  0.77325231  0.09788084  1
  Cl  Cl492  1  -0.00082589  0.22141221  0.88827675  1
  Cl  Cl493  1  0.01190866  0.56016643  0.88636748  1
  Cl  Cl494  1  0.00118179  0.88753219  0.88118462  1
  Cl  Cl495  1  0.49249735  0.22805103  0.89403215  1
  Cl  Cl496  1  0.50297560  0.55650422  0.88707336  1
  Cl  Cl497  1  0.50114823  0.88454657  0.89133958  1
  Cl  Cl498  1  0.00206612  0.11877294  0.37095186  1
  Cl  Cl499  1  -0.02091803  0.43890444  0.40098499  1
  Cl  Cl500  1  0.01367575  0.77133708  0.39960643  1
  Cl  Cl501  1  0.51221972  0.10746121  0.40040916  1
  Cl  Cl502  1  0.48405656  0.44315875  0.37808237  1
  Cl  Cl503  1  0.51567552  0.77323450  0.37288093  1
  Cl  Cl504  1  0.35797535  0.14771621  0.75152075  1
  Cl  Cl505  1  0.36090110  0.48017987  0.75897144  1
  Cl  Cl506  1  0.36182111  0.81115850  0.74676496  1
  Cl  Cl507  1  0.85750341  0.14995293  0.75058601  1
  Cl  Cl508  1  0.85685118  0.47965526  0.75074741  1
  Cl  Cl509  1  0.86108195  0.81264290  0.74960179  1
  Cl  Cl510  1  0.14243336  0.18804794  0.24605209  1
  Cl  Cl511  1  0.14406364  0.51998669  0.25520520  1
  Cl  Cl512  1  0.14151808  0.84952562  0.25139184  1
  Cl  Cl513  1  0.63929760  0.18843837  0.24867984  1
  Cl  Cl514  1  0.63543046  0.52067980  0.25622916  1
  Cl  Cl515  1  0.64116218  0.85093389  0.24964293  1
  Cl  Cl516  1  0.13855031  0.14688459  0.74547096  1
  Cl  Cl517  1  0.13993659  0.48307699  0.74296179  1
  Cl  Cl518  1  0.14091068  0.81608383  0.75297893  1
  Cl  Cl519  1  0.64045266  0.14638778  0.75050080  1
  Cl  Cl520  1  0.63667992  0.48038473  0.74981776  1
  Cl  Cl521  1  0.63951426  0.81651058  0.75592642  1
  Cl  Cl522  1  0.36177773  0.18534925  0.25022335  1
  Cl  Cl523  1  0.36346790  0.52012481  0.24412532  1
  Cl  Cl524  1  0.36482860  0.85250650  0.25286680  1
  Cl  Cl525  1  0.86060714  0.18392165  0.24854468  1
  Cl  Cl526  1  0.85898253  0.51743403  0.24809590  1
  Cl  Cl527  1  0.86279261  0.85372664  0.25340204  1
  Cl  Cl528  1  0.11076056  0.31403855  0.74589785  1
  Cl  Cl529  1  0.10274269  0.64823596  0.75148368  1
  Cl  Cl530  1  0.11027227  0.98147820  0.74759877  1
  Cl  Cl531  1  0.60709472  0.31421347  0.74657751  1
  Cl  Cl532  1  0.60778732  0.64826806  0.75202906  1
  Cl  Cl533  1  0.61048690  0.98258888  0.75382221  1
  Cl  Cl534  1  0.39037612  0.01982077  0.25214390  1
  Cl  Cl535  1  0.39479950  0.35229994  0.24391853  1
  Cl  Cl536  1  0.39270696  0.68627679  0.24829935  1
  Cl  Cl537  1  0.88669488  0.01944429  0.24423268  1
  Cl  Cl538  1  0.89361095  0.35155587  0.24749531  1
  Cl  Cl539  1  0.88744477  0.68772161  0.25126739  1
  Cl  Cl540  1  0.38920127  0.31345534  0.75659162  1
  Cl  Cl541  1  0.38706191  0.64680211  0.74972853  1
  Cl  Cl542  1  0.38866553  0.98255929  0.75346961  1
  Cl  Cl543  1  0.88968042  0.31536934  0.75416441  1
  Cl  Cl544  1  0.88119307  0.64481828  0.74321177  1
  Cl  Cl545  1  0.88788391  0.97981317  0.74839464  1
  Cl  Cl546  1  0.10722239  0.01552156  0.24909185  1
  Cl  Cl547  1  0.11130385  0.35259666  0.25661543  1
  Cl  Cl548  1  0.10916994  0.68407515  0.25353389  1
  Cl  Cl549  1  0.61115570  0.02032968  0.24355409  1
  Cl  Cl550  1  0.61666488  0.35496545  0.25340202  1
  Cl  Cl551  1  0.61270595  0.68492186  0.24267412  1
