# generated using pymatgen
data_H8PbC4(N3Cl2)2
_symmetry_space_group_name_H-M   'P 1'
_cell_length_a   16.61995313
_cell_length_b   22.50178768
_cell_length_c   21.58887917
_cell_angle_alpha   89.99936255
_cell_angle_beta   90.01208020
_cell_angle_gamma   90.00219360
_symmetry_Int_Tables_number   1
_chemical_formula_structural   H8PbC4(N3Cl2)2
_chemical_formula_sum   'H192 Pb24 C96 N144 Cl96'
_cell_volume   8073.77984096
_cell_formula_units_Z   24
loop_
 _symmetry_equiv_pos_site_id
 _symmetry_equiv_pos_as_xyz
  1  'x, y, z'
loop_
 _atom_site_type_symbol
 _atom_site_label
 _atom_site_symmetry_multiplicity
 _atom_site_fract_x
 _atom_site_fract_y
 _atom_site_fract_z
 _atom_site_occupancy
  H  H0  1  -0.00536349  0.03195242  0.68355732  1
  H  H1  1  -0.00026428  0.36363299  0.68058201  1
  H  H2  1  0.00355852  0.69895836  0.67821658  1
  H  H3  1  0.50214066  0.03168011  0.67848809  1
  H  H4  1  0.49737181  0.36484067  0.68373960  1
  H  H5  1  0.50506650  0.70004373  0.68251654  1
  H  H6  1  0.00169119  0.30033350  0.18110649  1
  H  H7  1  0.00441450  0.63468503  0.18160348  1
  H  H8  1  -0.00197201  0.96831720  0.18111046  1
  H  H9  1  0.49437497  0.30200181  0.17713116  1
  H  H10  1  0.50351191  0.63543597  0.17748004  1
  H  H11  1  0.50677840  0.96830595  0.17799450  1
  H  H12  1  -0.00358685  0.03124727  0.81729530  1
  H  H13  1  -0.00665324  0.36563957  0.82048618  1
  H  H14  1  -0.00437642  0.70068190  0.81723768  1
  H  H15  1  0.50606654  0.03019914  0.82091383  1
  H  H16  1  0.50050992  0.36588984  0.81982767  1
  H  H17  1  0.50194491  0.69815307  0.82183254  1
  H  H18  1  -0.00106569  0.30195634  0.32060751  1
  H  H19  1  -0.00300232  0.63488759  0.32088928  1
  H  H20  1  -0.00038990  0.96722196  0.31625041  1
  H  H21  1  0.50215608  0.30125518  0.31941054  1
  H  H22  1  0.50058496  0.63420118  0.31750559  1
  H  H23  1  0.50357800  0.96563993  0.32215300  1
  H  H24  1  0.24417607  0.19979650  0.67857627  1
  H  H25  1  0.25869715  0.53373664  0.67939647  1
  H  H26  1  0.24061702  0.86535894  0.67869339  1
  H  H27  1  0.74351746  0.19819067  0.68040997  1
  H  H28  1  0.73753133  0.53213620  0.68295276  1
  H  H29  1  0.76282001  0.86654986  0.68100274  1
  H  H30  1  0.25050856  0.13601027  0.18186827  1
  H  H31  1  0.25444108  0.46735323  0.17792442  1
  H  H32  1  0.24688525  0.80167558  0.17875359  1
  H  H33  1  0.75540215  0.13584799  0.17975392  1
  H  H34  1  0.75717255  0.46942346  0.18069876  1
  H  H35  1  0.75141302  0.79974751  0.18033692  1
  H  H36  1  0.24915037  0.19998697  0.81835463  1
  H  H37  1  0.24530782  0.53122712  0.82242010  1
  H  H38  1  0.24641176  0.86535827  0.82009003  1
  H  H39  1  0.75328637  0.19943240  0.82171152  1
  H  H40  1  0.74817836  0.53148216  0.82269079  1
  H  H41  1  0.74622577  0.86650906  0.82112194  1
  H  H42  1  0.24738664  0.13510190  0.31974755  1
  H  H43  1  0.24656904  0.46716328  0.31802856  1
  H  H44  1  0.24875386  0.80045770  0.31835175  1
  H  H45  1  0.75105535  0.13454007  0.31748959  1
  H  H46  1  0.74906440  0.46770705  0.31809760  1
  H  H47  1  0.74471302  0.79994733  0.32028477  1
  H  H48  1  0.12304265  0.05328658  0.61439081  1
  H  H49  1  0.12186622  0.38736465  0.60719602  1
  H  H50  1  0.11591682  0.72409709  0.59760873  1
  H  H51  1  0.62212361  0.05595845  0.60450002  1
  H  H52  1  0.62265589  0.38667518  0.61259371  1
  H  H53  1  0.61520237  0.72311244  0.60233184  1
  H  H54  1  0.38467305  0.27451836  0.09606283  1
  H  H55  1  0.36798765  0.61662969  0.11821806  1
  H  H56  1  0.37189573  0.94657046  0.11615124  1
  H  H57  1  0.87705239  0.27936456  0.10835169  1
  H  H58  1  0.86791268  0.61495577  0.12104376  1
  H  H59  1  0.87229548  0.94573510  0.11202809  1
  H  H60  1  0.37544009  0.05305586  0.88419727  1
  H  H61  1  0.37622631  0.38691885  0.89011619  1
  H  H62  1  0.37672378  0.72157423  0.89207558  1
  H  H63  1  0.87865728  0.05391026  0.89255694  1
  H  H64  1  0.88683572  0.38928791  0.90341782  1
  H  H65  1  0.87897006  0.72233248  0.89483686  1
  H  H66  1  0.12065824  0.27915773  0.39403352  1
  H  H67  1  0.12956463  0.61363185  0.38386431  1
  H  H68  1  0.12445449  0.94661257  0.38557111  1
  H  H69  1  0.61679810  0.27709507  0.39757451  1
  H  H70  1  0.62527972  0.61134371  0.38902180  1
  H  H71  1  0.62244188  0.94641053  0.39890037  1
  H  H72  1  0.37913871  0.21888935  0.61747697  1
  H  H73  1  0.36370289  0.55727854  0.59566353  1
  H  H74  1  0.37947068  0.88473168  0.62505419  1
  H  H75  1  0.87912643  0.21855604  0.62133175  1
  H  H76  1  0.87424718  0.55177232  0.62331928  1
  H  H77  1  0.87092901  0.89178775  0.59642388  1
  H  H78  1  0.12587255  0.11307317  0.10997418  1
  H  H79  1  0.11961559  0.44647943  0.11629108  1
  H  H80  1  0.12433497  0.77933238  0.10605727  1
  H  H81  1  0.62241198  0.11427368  0.11701931  1
  H  H82  1  0.62277115  0.44954812  0.11853331  1
  H  H83  1  0.61985962  0.78137719  0.11584670  1
  H  H84  1  0.11792628  0.21982471  0.88302669  1
  H  H85  1  0.13559740  0.55973352  0.90316721  1
  H  H86  1  0.13146606  0.88802736  0.89603365  1
  H  H87  1  0.61888661  0.21812620  0.88230005  1
  H  H88  1  0.62908100  0.55621778  0.89638106  1
  H  H89  1  0.62718945  0.88746502  0.89624779  1
  H  H90  1  0.37717734  0.11279812  0.38624588  1
  H  H91  1  0.37608402  0.44793391  0.38444922  1
  H  H92  1  0.37789882  0.78060177  0.38558786  1
  H  H93  1  0.87376514  0.11196750  0.39148769  1
  H  H94  1  0.87665136  0.44755095  0.38457041  1
  H  H95  1  0.88203088  0.78118623  0.37897144  1
  H  H96  1  0.36794536  0.28138176  0.38175972  1
  H  H97  1  0.37528428  0.61322188  0.38678040  1
  H  H98  1  0.37440355  0.94305970  0.38814560  1
  H  H99  1  0.87216750  0.27833840  0.39078467  1
  H  H100  1  0.88101074  0.61026598  0.39787564  1
  H  H101  1  0.87472824  0.94673324  0.38550031  1
  H  H102  1  0.12779175  0.05153867  0.87980774  1
  H  H103  1  0.13336760  0.38202844  0.87382513  1
  H  H104  1  0.12804034  0.71980268  0.88330710  1
  H  H105  1  0.62373265  0.05548796  0.89805704  1
  H  H106  1  0.62545166  0.38757747  0.88777895  1
  H  H107  1  0.62586522  0.72090476  0.89287648  1
  H  H108  1  0.12567419  0.27886860  0.10726263  1
  H  H109  1  0.11561542  0.61078042  0.10052227  1
  H  H110  1  0.12115801  0.94472830  0.10857927  1
  H  H111  1  0.63099080  0.28403721  0.11860523  1
  H  H112  1  0.61494293  0.60992459  0.09606440  1
  H  H113  1  0.61914349  0.94246649  0.09732205  1
  H  H114  1  0.37317945  0.05481763  0.61352764  1
  H  H115  1  0.37340834  0.38727767  0.61188733  1
  H  H116  1  0.36738425  0.71713896  0.62454074  1
  H  H117  1  0.87401562  0.05456465  0.60989496  1
  H  H118  1  0.87311939  0.38705283  0.61319531  1
  H  H119  1  0.86847467  0.71947119  0.61871869  1
  H  H120  1  0.12800825  0.11280257  0.39426982  1
  H  H121  1  0.12657433  0.44616925  0.39062596  1
  H  H122  1  0.12905762  0.77822962  0.39440828  1
  H  H123  1  0.62538209  0.11216417  0.38909217  1
  H  H124  1  0.62719709  0.44591056  0.38973032  1
  H  H125  1  0.63411707  0.77730498  0.40145874  1
  H  H126  1  0.36728491  0.22152904  0.89228212  1
  H  H127  1  0.38216776  0.54894571  0.88110774  1
  H  H128  1  0.38006905  0.88347843  0.88180842  1
  H  H129  1  0.86632230  0.22467796  0.90183512  1
  H  H130  1  0.87773580  0.55387724  0.88880091  1
  H  H131  1  0.87600855  0.88619355  0.88409024  1
  H  H132  1  0.37489658  0.11311953  0.11148772  1
  H  H133  1  0.36645726  0.44238819  0.09651216  1
  H  H134  1  0.37354460  0.77929587  0.10951260  1
  H  H135  1  0.87009432  0.11031982  0.10000651  1
  H  H136  1  0.86983780  0.44237244  0.10020205  1
  H  H137  1  0.86914774  0.77964792  0.10538363  1
  H  H138  1  0.13164792  0.22518029  0.59863959  1
  H  H139  1  0.11819043  0.54958297  0.62694047  1
  H  H140  1  0.13442123  0.89112435  0.59412037  1
  H  H141  1  0.63304212  0.22314579  0.59744732  1
  H  H142  1  0.62674566  0.55684110  0.60085973  1
  H  H143  1  0.62539417  0.88472365  0.62316690  1
  H  H144  1  0.92777772  0.08212659  0.50139692  1
  H  H145  1  0.80176403  0.08638179  -0.00252813  1
  H  H146  1  0.33965065  0.08705264  0.49283473  1
  H  H147  1  0.58251518  0.41721313  0.99968076  1
  H  H148  1  0.31270479  0.24852265  1.00364464  1
  H  H149  1  0.69734305  0.58059909  0.49466978  1
  H  H150  1  0.29190105  0.58290474  0.48977741  1
  H  H151  1  0.83743478  0.58395183  0.99495590  1
  H  H152  1  0.93424171  0.08131152  1.00222261  1
  H  H153  1  0.32806444  0.08441305  0.00214855  1
  H  H154  1  0.80052118  0.41359089  -0.00055372  1
  H  H155  1  0.94094588  0.74931944  1.00294119  1
  H  H156  1  0.79558268  0.91805803  0.49706419  1
  H  H157  1  0.56662820  0.08457817  0.50077608  1
  H  H158  1  0.35734270  0.58328726  0.98863904  1
  H  H159  1  0.67438531  0.41778065  0.49973764  1
  H  H160  1  0.70551838  0.24686973  0.49650633  1
  H  H161  1  0.10053908  0.58450105  0.49265688  1
  H  H162  1  0.54975900  0.74896592  0.49424189  1
  H  H163  1  0.20861174  0.91431648  0.49353744  1
  H  H164  1  0.56454148  0.90963495  0.49698146  1
  H  H165  1  0.07957575  0.92092896  0.49815252  1
  H  H166  1  0.60662496  0.25010605  0.01131671  1
  H  H167  1  0.18051172  0.08509885  0.50315966  1
  H  H168  1  0.20765751  0.57556024  1.00561211  1
  H  H169  1  0.70060214  0.75135574  0.50847418  1
  H  H170  1  0.84042241  0.41971028  0.49645644  1
  H  H171  1  0.45681425  0.26097269  -0.00626259  1
  H  H172  1  0.95740058  0.41407003  1.01006736  1
  H  H173  1  0.81342866  0.75338109  -0.00597730  1
  H  H174  1  0.41150469  0.92044654  0.49628183  1
  H  H175  1  0.34036074  0.74961472  0.49597098  1
  H  H176  1  0.14793158  0.41656274  0.00797842  1
  H  H177  1  0.84294767  0.91451270  0.99840235  1
  H  H178  1  0.18812391  0.91583915  1.00501664  1
  H  H179  1  0.17719285  0.41688808  0.50112986  1
  H  H180  1  0.42147933  0.41637590  0.50364736  1
  H  H181  1  0.42097878  0.58805875  0.49918678  1
  H  H182  1  0.09563545  0.08025067  0.99228090  1
  H  H183  1  0.40020929  0.25413562  0.48937155  1
  H  H184  1  0.93904126  0.58121144  0.50506448  1
  H  H185  1  0.92003418  0.25128253  0.49541247  1
  H  H186  1  0.04857841  0.58527632  -0.00526986  1
  H  H187  1  0.85759849  0.75352228  0.48868496  1
  H  H188  1  0.91982639  0.92158693  0.49831730  1
  H  H189  1  0.57448182  0.59033744  0.49624672  1
  H  H190  1  0.40104923  0.91685359  0.00936929  1
  H  H191  1  0.55624887  0.25116115  0.50570652  1
  Pb  Pb192  1  0.25253596  0.04683164  0.74628605  1
  Pb  Pb193  1  0.25249224  0.37967720  0.74644018  1
  Pb  Pb194  1  0.25176889  0.71381291  0.74824182  1
  Pb  Pb195  1  0.75450685  0.04799086  0.75426604  1
  Pb  Pb196  1  0.75565355  0.38153023  0.75490781  1
  Pb  Pb197  1  0.75144950  0.71343056  0.74905362  1
  Pb  Pb198  1  0.24561254  0.28496174  0.24720443  1
  Pb  Pb199  1  0.24950728  0.62042676  0.24332970  1
  Pb  Pb200  1  0.25019367  0.95359956  0.25230412  1
  Pb  Pb201  1  0.75228852  0.28607489  0.25618233  1
  Pb  Pb202  1  0.74685412  0.61986188  0.24870709  1
  Pb  Pb203  1  0.74663327  0.95099645  0.25112393  1
  Pb  Pb204  1  0.00308584  0.21359461  0.74746919  1
  Pb  Pb205  1  0.00416075  0.54743549  0.75532130  1
  Pb  Pb206  1  0.00273282  0.87921163  0.74341659  1
  Pb  Pb207  1  0.50480982  0.21418689  0.75115400  1
  Pb  Pb208  1  0.50208377  0.54687969  0.74109674  1
  Pb  Pb209  1  0.50334733  0.88083798  0.74824737  1
  Pb  Pb210  1  -0.00362772  0.11751112  0.24866782  1
  Pb  Pb211  1  -0.00111050  0.45462328  0.24848700  1
  Pb  Pb212  1  0.00083135  0.78676758  0.24656311  1
  Pb  Pb213  1  0.49977571  0.12049664  0.25437677  1
  Pb  Pb214  1  0.49792998  0.45072632  0.24806155  1
  Pb  Pb215  1  0.49886580  0.78686310  0.25376675  1
  C  C216  1  -0.00243387  0.04676980  0.63579801  1
  C  C217  1  -0.00161119  0.37917824  0.63327252  1
  C  C218  1  -0.00406165  0.71395668  0.63101864  1
  C  C219  1  0.49937152  0.04738999  0.63110920  1
  C  C220  1  0.49787303  0.37980228  0.63596051  1
  C  C221  1  0.49610641  0.71329850  0.63474143  1
  C  C222  1  0.00161501  0.28633660  0.13297336  1
  C  C223  1  -0.00438085  0.62027606  0.13406771  1
  C  C224  1  -0.00254065  0.95326286  0.13363844  1
  C  C225  1  0.50344060  0.28694025  0.12972109  1
  C  C226  1  0.49545895  0.62078806  0.13019658  1
  C  C227  1  0.49882955  0.95306139  0.13063215  1
  C  C228  1  0.00116900  0.04581029  0.86511388  1
  C  C229  1  0.00443629  0.37902306  0.86793324  1
  C  C230  1  0.00107579  0.71440553  0.86522384  1
  C  C231  1  0.50200187  0.04603389  0.86804026  1
  C  C232  1  0.50128774  0.38016098  0.86767926  1
  C  C233  1  0.50139872  0.71368008  0.86916556  1
  C  C234  1  -0.00329372  0.28685711  0.36825774  1
  C  C235  1  0.00301687  0.61973524  0.36858893  1
  C  C236  1  -0.00041097  0.95326829  0.36439153  1
  C  C237  1  0.49505989  0.28649242  0.36709266  1
  C  C238  1  0.50089413  0.61989868  0.36565981  1
  C  C239  1  0.50000266  0.95188809  0.37040872  1
  C  C240  1  0.25206633  0.21423350  0.63127428  1
  C  C241  1  0.24693267  0.54695994  0.63189502  1
  C  C242  1  0.25126311  0.87952153  0.63132330  1
  C  C243  1  0.75156440  0.21265006  0.63292165  1
  C  C244  1  0.74631965  0.54675733  0.63549270  1
  C  C245  1  0.75343534  0.88074138  0.63351977  1
  C  C246  1  0.25022305  0.12064064  0.13422765  1
  C  C247  1  0.24635005  0.45232739  0.13056893  1
  C  C248  1  0.24839773  0.78663837  0.13127654  1
  C  C249  1  0.74969648  0.12072303  0.13229242  1
  C  C250  1  0.75012327  0.45400913  0.13341108  1
  C  C251  1  0.74708068  0.78656349  0.13220749  1
  C  C252  1  0.24503671  0.21365162  0.86631320  1
  C  C253  1  0.25449305  0.54629538  0.86977348  1
  C  C254  1  0.25233870  0.87923413  0.86790793  1
  C  C255  1  0.74625548  0.21376455  0.86918750  1
  C  C256  1  0.75217122  0.54688100  0.87009649  1
  C  C257  1  0.75039180  0.88036754  0.86907124  1
  C  C258  1  0.25137310  0.11986561  0.36746968  1
  C  C259  1  0.24932815  0.45333859  0.36604382  1
  C  C260  1  0.25200899  0.78626024  0.36627684  1
  C  C261  1  0.75001230  0.11979572  0.36534190  1
  C  C262  1  0.75105730  0.45298382  0.36600463  1
  C  C263  1  0.75431626  0.78547363  0.36783870  1
  C  C264  1  0.21698498  0.09468646  0.46259475  1
  C  C265  1  0.69498060  0.23761276  0.95912493  1
  C  C266  1  0.97368535  0.59242105  0.46393595  1
  C  C267  1  0.77791458  0.76259859  0.03525071  1
  C  C268  1  0.04072478  0.93016089  0.45876909  1
  C  C269  1  0.22467694  0.90528484  0.96471937  1
  C  C270  1  0.29641036  0.42901781  0.45799501  1
  C  C271  1  0.43642438  0.73590162  0.54597221  1
  C  C272  1  0.18217133  0.56966297  0.54574620  1
  C  C273  1  0.94418460  0.74006413  0.54190560  1
  C  C274  1  0.96487160  0.07208919  0.54159678  1
  C  C275  1  0.28760895  0.09453453  0.04117959  1
  C  C276  1  0.01720915  0.59520901  0.03782373  1
  C  C277  1  0.52356377  0.26093903  0.46317965  1
  C  C278  1  0.79622522  0.42867278  0.45937304  1
  C  C279  1  0.53812648  0.74201771  0.96156529  1
  C  C280  1  0.71393720  0.42800313  0.46108607  1
  C  C281  1  0.73096617  0.76028519  0.46475420  1
  C  C282  1  0.27695272  0.23860418  0.96267075  1
  C  C283  1  0.30620724  0.90324270  0.95810963  1
  C  C284  1  0.97391372  0.73906125  0.96069651  1
  C  C285  1  0.05144799  0.07031360  0.95651128  1
  C  C286  1  0.21503590  0.42772820  0.46170587  1
  C  C287  1  0.95688498  0.40827509  0.54175981  1
  C  C288  1  0.45554979  0.07482767  0.95795038  1
  C  C289  1  0.72659659  0.57162455  0.53890193  1
  C  C290  1  0.98763084  0.40422981  0.96636693  1
  C  C291  1  0.26222968  0.57245061  0.53335171  1
  C  C292  1  0.22826787  0.24336061  0.53608377  1
  C  C293  1  0.79818076  0.90502159  0.96179438  1
  C  C294  1  0.96945998  0.07110768  0.96112667  1
  C  C295  1  0.21366365  0.75924424  0.03816303  1
  C  C296  1  0.71680940  0.57670171  0.96444482  1
  C  C297  1  0.44280879  0.59598388  0.04099187  1
  C  C298  1  0.71650773  0.90516593  0.96439946  1
  C  C299  1  0.31463519  0.90659684  0.54505132  1
  C  C300  1  0.06800575  0.40181156  0.95450401  1
  C  C301  1  0.46044640  0.40561717  0.96117476  1
  C  C302  1  0.69664392  0.76355236  0.04072799  1
  C  C303  1  0.95728319  0.92620002  0.04107801  1
  C  C304  1  0.45087783  0.07574443  0.53979999  1
  C  C305  1  0.54207916  0.40634214  0.96178490  1
  C  C306  1  0.45876160  0.59540123  0.45880259  1
  C  C307  1  0.51751995  0.73828703  0.53670765  1
  C  C308  1  0.46162010  0.40574807  0.54269264  1
  C  C309  1  0.29536660  0.76052929  0.45812391  1
  C  C310  1  0.19570342  0.23788425  0.95745969  1
  C  C311  1  0.95859761  0.93022939  0.45881462  1
  N  N312  1  0.80988854  0.76108858  0.45577000  1
  N  N313  1  0.46081054  0.74265309  0.96255139  1
  N  N314  1  0.19554399  0.42679459  0.04250660  1
  N  N315  1  0.93831349  0.59610368  0.04447564  1
  N  N316  1  0.48217889  0.25398829  0.03657324  1
  N  N317  1  0.76965760  0.90538599  0.53810232  1
  N  N318  1  0.31062160  0.56776857  0.95744353  1
  N  N319  1  0.54115707  0.40504458  0.54213861  1
  N  N320  1  0.05306708  0.59404846  0.45826950  1
  N  N321  1  0.51978400  0.59265731  0.03290570  1
  N  N322  1  0.81032046  0.23808219  0.54522994  1
  N  N323  1  0.55989580  0.26611188  0.04196088  1
  N  N324  1  0.44443169  0.26187941  0.45644252  1
  N  N325  1  0.27296283  0.42567767  0.03444873  1
  N  N326  1  0.69212248  0.90280901  0.54581014  1
  N  N327  1  0.05293311  0.73800387  0.95687891  1
  N  N328  1  0.69442902  0.42834366  0.04470163  1
  N  N329  1  0.77212281  0.24065477  0.96669060  1
  N  N330  1  0.45401996  0.92261564  0.45937645  1
  N  N331  1  0.20817325  0.09468891  0.04029672  1
  N  N332  1  0.03499429  0.92589180  0.03868232  1
  N  N333  1  0.80530917  0.57069733  0.54656300  1
  N  N334  1  0.77202564  0.42577704  0.03971208  1
  N  N335  1  0.77314960  0.09296704  0.03891621  1
  N  N336  1  0.29666348  0.09382142  0.45828806  1
  N  N337  1  0.23310860  0.58032485  0.96236117  1
  N  N338  1  0.53019628  0.07558511  0.53774967  1
  N  N339  1  0.79573154  0.57490313  0.96069445  1
  N  N340  1  0.69547524  0.09407132  0.04327519  1
  N  N341  1  0.04431975  0.07168880  0.54288020  1
  N  N342  1  0.03625223  0.26012161  0.46186595  1
  N  N343  1  0.44834270  0.92627813  0.04279729  1
  N  N344  1  0.95813659  0.26002639  0.45902478  1
  N  N345  1  0.29095066  0.75890124  0.03804498  1
  N  N346  1  0.03913515  0.26198889  0.03840952  1
  N  N347  1  0.78669760  0.09452184  0.45993307  1
  N  N348  1  0.02126649  0.74186915  0.53385037  1
  N  N349  1  0.52604525  0.92460185  0.03514917  1
  N  N350  1  0.96305949  0.26230626  0.03853405  1
  N  N351  1  0.53831814  0.59338266  0.45807865  1
  N  N352  1  0.30554689  0.24083268  0.54099600  1
  N  N353  1  0.70968705  0.09466513  0.45907306  1
  N  N354  1  0.73265000  0.24036321  0.53869412  1
  N  N355  1  0.21613893  0.76019598  0.46180289  1
  N  N356  1  0.03477467  0.40855461  0.53871065  1
  N  N357  1  0.53171182  0.93489090  0.46633957  1
  N  N358  1  0.53296668  0.07589546  0.96354699  1
  N  N359  1  0.23640631  0.90795658  0.53546279  1
  N  N360  1  0.06267357  0.05617939  0.60185281  1
  N  N361  1  0.06057600  0.39004949  0.59705498  1
  N  N362  1  0.05357767  0.72530769  0.59067185  1
  N  N363  1  0.56085414  0.05734063  0.59394764  1
  N  N364  1  0.56180857  0.38908685  0.60065507  1
  N  N365  1  0.55358257  0.72402852  0.59315350  1
  N  N366  1  0.44661463  0.27696671  0.08793662  1
  N  N367  1  0.42530356  0.61243616  0.10051599  1
  N  N368  1  0.43077562  0.94386038  0.10059493  1
  N  N369  1  0.93808458  0.27693694  0.09723971  1
  N  N370  1  0.92668407  0.61158847  0.10495957  1
  N  N371  1  0.93201002  0.94270407  0.09847684  1
  N  N372  1  0.43407985  0.05710156  0.90015291  1
  N  N373  1  0.43624770  0.39004281  0.90440939  1
  N  N374  1  0.43758375  0.72487048  0.90371224  1
  N  N375  1  0.93954534  0.05584973  0.90375492  1
  N  N376  1  0.94896597  0.38987345  0.91098193  1
  N  N377  1  0.94032421  0.72462910  0.90479487  1
  N  N378  1  0.05971405  0.27645640  0.40487560  1
  N  N379  1  0.07041422  0.61110354  0.39964285  1
  N  N380  1  0.06483162  0.94448061  0.39980803  1
  N  N381  1  0.55541281  0.27585597  0.40762291  1
  N  N382  1  0.56437566  0.61106805  0.40133915  1
  N  N383  1  0.56125169  0.94229644  0.40828230  1
  N  N384  1  0.32051913  0.22257077  0.60161108  1
  N  N385  1  0.30197814  0.55801188  0.58854575  1
  N  N386  1  0.32365375  0.88967858  0.60460738  1
  N  N387  1  0.82119437  0.22249701  0.60449563  1
  N  N388  1  0.81552574  0.55528122  0.60655148  1
  N  N389  1  0.80866994  0.89216656  0.59111060  1
  N  N390  1  0.18656700  0.11114768  0.09864423  1
  N  N391  1  0.17819080  0.44303304  0.10067827  1
  N  N392  1  0.18452445  0.77586114  0.09431160  1
  N  N393  1  0.68137906  0.11004757  0.10208584  1
  N  N394  1  0.68136468  0.44572192  0.10308480  1
  N  N395  1  0.67857352  0.77778598  0.09928014  1
  N  N396  1  0.17675088  0.22295560  0.89934460  1
  N  N397  1  0.19752536  0.55724939  0.91120627  1
  N  N398  1  0.19236725  0.89020786  0.90720694  1
  N  N399  1  0.67661055  0.22184954  0.89967145  1
  N  N400  1  0.68953646  0.55933990  0.90854870  1
  N  N401  1  0.68793136  0.89041367  0.90851403  1
  N  N402  1  0.31732653  0.10971708  0.39982356  1
  N  N403  1  0.31685764  0.44431049  0.40007349  1
  N  N404  1  0.31867448  0.77651982  0.39965764  1
  N  N405  1  0.81265458  0.10990344  0.40193588  1
  N  N406  1  0.81746743  0.44400988  0.39978399  1
  N  N407  1  0.82369292  0.77638911  0.39600163  1
  N  N408  1  0.42712745  0.27768791  0.39737743  1
  N  N409  1  0.43515083  0.61053185  0.40107500  1
  N  N410  1  0.43370894  0.94279287  0.40307780  1
  N  N411  1  0.93238401  0.27689972  0.40274761  1
  N  N412  1  0.94208084  0.60824407  0.40826257  1
  N  N413  1  0.93434204  0.94447139  0.39972921  1
  N  N414  1  0.06951540  0.05476524  0.89677993  1
  N  N415  1  0.07739147  0.38686527  0.89466920  1
  N  N416  1  0.06803667  0.72304908  0.89732546  1
  N  N417  1  0.56205412  0.05740586  0.90634237  1
  N  N418  1  0.56636670  0.39023858  0.90237025  1
  N  N419  1  0.56599977  0.72449644  0.90534239  1
  N  N420  1  0.06482143  0.27708301  0.09675248  1
  N  N421  1  0.05364484  0.60973085  0.09235033  1
  N  N422  1  0.06009503  0.94301264  0.09767582  1
  N  N423  1  0.57310541  0.27726058  0.10188444  1
  N  N424  1  0.55259420  0.60882162  0.08962228  1
  N  N425  1  0.55719885  0.94116903  0.09003364  1
  N  N426  1  0.43189300  0.05874594  0.59777362  1
  N  N427  1  0.43380352  0.39045225  0.60001193  1
  N  N428  1  0.42446295  0.72098398  0.60547137  1
  N  N429  1  0.93469867  0.05707539  0.59828213  1
  N  N430  1  0.93247904  0.39071370  0.59897567  1
  N  N431  1  0.92609080  0.72336579  0.60118669  1
  N  N432  1  0.18862381  0.11003540  0.40595029  1
  N  N433  1  0.18677579  0.44316261  0.40330946  1
  N  N434  1  0.19077418  0.77611472  0.40409189  1
  N  N435  1  0.68608179  0.11001875  0.40045433  1
  N  N436  1  0.68739330  0.44297048  0.40264874  1
  N  N437  1  0.69598853  0.77500646  0.41015448  1
  N  N438  1  0.30676565  0.22334561  0.90456835  1
  N  N439  1  0.32413294  0.55521170  0.89792299  1
  N  N440  1  0.32193686  0.88768296  0.89928679  1
  N  N441  1  0.80414454  0.22542274  0.90924965  1
  N  N442  1  0.81824380  0.55612547  0.90257292  1
  N  N443  1  0.81778650  0.88946490  0.90116498  1
  N  N444  1  0.31459946  0.10997915  0.09867113  1
  N  N445  1  0.30439717  0.44119369  0.08951895  1
  N  N446  1  0.31289915  0.77613148  0.09724846  1
  N  N447  1  0.80816567  0.11100437  0.09202383  1
  N  N448  1  0.80772823  0.44124368  0.09334465  1
  N  N449  1  0.80849609  0.77699778  0.09362053  1
  N  N450  1  0.19325745  0.22689612  0.59015046  1
  N  N451  1  0.17375831  0.55433403  0.60556284  1
  N  N452  1  0.19641161  0.88904627  0.58818905  1
  N  N453  1  0.69532515  0.22268259  0.59098095  1
  N  N454  1  0.68870276  0.55751069  0.59329289  1
  N  N455  1  0.68298958  0.88785395  0.60532861  1
  Cl  Cl456  1  0.24913481  0.05315244  0.61032898  1
  Cl  Cl457  1  0.24670816  0.38592801  0.61328085  1
  Cl  Cl458  1  0.24023802  0.72030657  0.61634102  1
  Cl  Cl459  1  0.74640198  0.05166730  0.62170605  1
  Cl  Cl460  1  0.74711579  0.38523475  0.62008343  1
  Cl  Cl461  1  0.74108414  0.72320006  0.61249768  1
  Cl  Cl462  1  0.25867844  0.27742042  0.11179677  1
  Cl  Cl463  1  0.23879153  0.60695916  0.10551084  1
  Cl  Cl464  1  0.24766460  0.94562878  0.11970133  1
  Cl  Cl465  1  0.75421064  0.28423846  0.12421380  1
  Cl  Cl466  1  0.74099504  0.61168343  0.11314766  1
  Cl  Cl467  1  0.74572828  0.94574534  0.11765220  1
  Cl  Cl468  1  0.25332239  0.05295260  0.87684136  1
  Cl  Cl469  1  0.25676817  0.38518962  0.87770007  1
  Cl  Cl470  1  0.25265033  0.71642073  0.87922658  1
  Cl  Cl471  1  0.75289590  0.05684037  0.89191164  1
  Cl  Cl472  1  0.76179756  0.39157135  0.89165464  1
  Cl  Cl473  1  0.75386382  0.71830892  0.88207288  1
  Cl  Cl474  1  0.24402634  0.28051468  0.38090964  1
  Cl  Cl475  1  0.25328112  0.61268250  0.37628927  1
  Cl  Cl476  1  0.24970405  0.94357477  0.39113541  1
  Cl  Cl477  1  0.74282519  0.27455184  0.39443678  1
  Cl  Cl478  1  0.74951263  0.61278477  0.38461484  1
  Cl  Cl479  1  0.74772568  0.94224218  0.39184324  1
  Cl  Cl480  1  0.00495147  0.22192922  0.61275138  1
  Cl  Cl481  1  -0.00491722  0.55284252  0.62192863  1
  Cl  Cl482  1  -0.00046720  0.89109851  0.60641397  1
  Cl  Cl483  1  0.51034035  0.22097575  0.61040313  1
  Cl  Cl484  1  0.49984719  0.55924679  0.60307973  1
  Cl  Cl485  1  0.50264295  0.89026042  0.61083294  1
  Cl  Cl486  1  -0.00579286  0.10920705  0.11322767  1
  Cl  Cl487  1  -0.00760878  0.44590115  0.11208654  1
  Cl  Cl488  1  -0.00426346  0.78018000  0.11310560  1
  Cl  Cl489  1  0.49798668  0.11789385  0.12376096  1
  Cl  Cl490  1  0.49281852  0.44480058  0.11435591  1
  Cl  Cl491  1  0.49610188  0.78254289  0.12369190  1
  Cl  Cl492  1  -0.00908763  0.21961166  0.87747804  1
  Cl  Cl493  1  0.01063683  0.55608025  0.89066965  1
  Cl  Cl494  1  0.00353303  0.88525116  0.87186626  1
  Cl  Cl495  1  0.49258809  0.22600452  0.88875990  1
  Cl  Cl496  1  0.50504772  0.55005614  0.87260644  1
  Cl  Cl497  1  0.50451120  0.88466836  0.87822084  1
  Cl  Cl498  1  -0.00143553  0.11349985  0.38233425  1
  Cl  Cl499  1  0.00078771  0.45089319  0.37632745  1
  Cl  Cl500  1  0.00546057  0.78168658  0.37823248  1
  Cl  Cl501  1  0.50216565  0.11056417  0.39306699  1
  Cl  Cl502  1  0.50080889  0.44924348  0.38084713  1
  Cl  Cl503  1  0.50924427  0.78147575  0.38916091  1
  Cl  Cl504  1  0.36073563  0.14448073  0.74437916  1
  Cl  Cl505  1  0.36130389  0.47854063  0.75120897  1
  Cl  Cl506  1  0.36113619  0.81009060  0.74534565  1
  Cl  Cl507  1  0.85978839  0.14388645  0.74722645  1
  Cl  Cl508  1  0.85878719  0.47660821  0.74906244  1
  Cl  Cl509  1  0.85977326  0.81129567  0.74908265  1
  Cl  Cl510  1  0.14255797  0.18894322  0.24890063  1
  Cl  Cl511  1  0.13572003  0.52233179  0.24527682  1
  Cl  Cl512  1  0.13680723  0.85544081  0.25193904  1
  Cl  Cl513  1  0.63547932  0.18884420  0.24840003  1
  Cl  Cl514  1  0.63816323  0.52248547  0.25034193  1
  Cl  Cl515  1  0.63843646  0.85495644  0.25063910  1
  Cl  Cl516  1  0.13705788  0.14379673  0.74979201  1
  Cl  Cl517  1  0.13794323  0.47811337  0.74915790  1
  Cl  Cl518  1  0.13854289  0.81155271  0.75056480  1
  Cl  Cl519  1  0.63585944  0.14488400  0.75198047  1
  Cl  Cl520  1  0.63775018  0.47840121  0.74963857  1
  Cl  Cl521  1  0.63733230  0.81194905  0.74584279  1
  Cl  Cl522  1  0.36399841  0.18866986  0.25564491  1
  Cl  Cl523  1  0.35936849  0.52199139  0.24886605  1
  Cl  Cl524  1  0.36258116  0.85571967  0.25205749  1
  Cl  Cl525  1  0.85956586  0.18968475  0.25125890  1
  Cl  Cl526  1  0.86172653  0.52215307  0.24827737  1
  Cl  Cl527  1  0.86220564  0.85578911  0.25492445  1
  Cl  Cl528  1  0.11298963  0.31028930  0.75368311  1
  Cl  Cl529  1  0.11080532  0.64282230  0.75043413  1
  Cl  Cl530  1  0.11371378  0.97891217  0.74682088  1
  Cl  Cl531  1  0.60843168  0.30980900  0.74898072  1
  Cl  Cl532  1  0.61084853  0.64475953  0.74823118  1
  Cl  Cl533  1  0.60810722  0.97624379  0.74800420  1
  Cl  Cl534  1  0.38636431  0.02121347  0.25375097  1
  Cl  Cl535  1  0.39149711  0.35634835  0.25320964  1
  Cl  Cl536  1  0.38682326  0.68767134  0.24940442  1
  Cl  Cl537  1  0.88810307  0.02324106  0.25167590  1
  Cl  Cl538  1  0.88621188  0.35533440  0.25250189  1
  Cl  Cl539  1  0.88750342  0.68865898  0.24983590  1
  Cl  Cl540  1  0.38718924  0.31093560  0.74913867  1
  Cl  Cl541  1  0.38604183  0.64435368  0.74869386  1
  Cl  Cl542  1  0.38686402  0.97753142  0.74725777  1
  Cl  Cl543  1  0.88708667  0.31105932  0.74546503  1
  Cl  Cl544  1  0.88578823  0.64364028  0.74648824  1
  Cl  Cl545  1  0.88820522  0.97814687  0.74920682  1
  Cl  Cl546  1  0.11380408  0.02268221  0.25011229  1
  Cl  Cl547  1  0.11157104  0.35533108  0.24859617  1
  Cl  Cl548  1  0.11198740  0.68829014  0.25229868  1
  Cl  Cl549  1  0.60958409  0.01968603  0.25170461  1
  Cl  Cl550  1  0.60877231  0.35695040  0.24689120  1
  Cl  Cl551  1  0.61240712  0.68870553  0.25086304  1
