# generated using pymatgen
data_H8PbC4(N3Cl2)2
_symmetry_space_group_name_H-M   'P 1'
_cell_length_a   16.63525104
_cell_length_b   22.52553903
_cell_length_c   21.59816958
_cell_angle_alpha   90.00133018
_cell_angle_beta   89.98268264
_cell_angle_gamma   89.99192477
_symmetry_Int_Tables_number   1
_chemical_formula_structural   H8PbC4(N3Cl2)2
_chemical_formula_sum   'H192 Pb24 C96 N144 Cl96'
_cell_volume   8093.22238187
_cell_formula_units_Z   24
loop_
 _symmetry_equiv_pos_site_id
 _symmetry_equiv_pos_as_xyz
  1  'x, y, z'
loop_
 _atom_site_type_symbol
 _atom_site_label
 _atom_site_symmetry_multiplicity
 _atom_site_fract_x
 _atom_site_fract_y
 _atom_site_fract_z
 _atom_site_occupancy
  H  H0  1  0.00161872  0.02624140  0.68374323  1
  H  H1  1  0.02733590  0.36854665  0.65923040  1
  H  H2  1  0.00889320  0.69509796  0.67759606  1
  H  H3  1  0.50336336  0.02630210  0.67463894  1
  H  H4  1  0.50726878  0.35912195  0.68241627  1
  H  H5  1  0.49683070  0.69090733  0.67490861  1
  H  H6  1  0.00802777  0.30275480  0.17205260  1
  H  H7  1  -0.01534532  0.63552272  0.17646785  1
  H  H8  1  -0.00666915  0.97377226  0.18092308  1
  H  H9  1  0.49386953  0.30769102  0.17802390  1
  H  H10  1  0.51543688  0.63472148  0.18038252  1
  H  H11  1  0.49596215  0.96792304  0.17480605  1
  H  H12  1  0.01553203  0.03451756  0.81740322  1
  H  H13  1  -0.00379423  0.36002808  0.82277906  1
  H  H14  1  0.01269941  0.69071730  0.82268931  1
  H  H15  1  0.48973643  0.03216736  0.81614326  1
  H  H16  1  0.49889302  0.36477954  0.82030610  1
  H  H17  1  0.48859410  0.70085542  0.82573759  1
  H  H18  1  -0.00631279  0.30697435  0.32204296  1
  H  H19  1  -0.00579075  0.64633649  0.32671174  1
  H  H20  1  -0.01016128  0.96595273  0.32765864  1
  H  H21  1  0.50608530  0.30715931  0.32709669  1
  H  H22  1  0.51838624  0.63863426  0.32541196  1
  H  H23  1  0.50059955  0.97668230  0.31799113  1
  H  H24  1  0.23271020  0.19347745  0.67606555  1
  H  H25  1  0.24159371  0.52823681  0.67677795  1
  H  H26  1  0.24987850  0.85889718  0.67443913  1
  H  H27  1  0.76783709  0.19435746  0.67838742  1
  H  H28  1  0.75937257  0.52738931  0.67417119  1
  H  H29  1  0.74498027  0.85788079  0.67901623  1
  H  H30  1  0.26201446  0.12875088  0.18461585  1
  H  H31  1  0.25690504  0.47156280  0.17648590  1
  H  H32  1  0.23492587  0.80270374  0.17566471  1
  H  H33  1  0.73629456  0.13565247  0.18157169  1
  H  H34  1  0.74274752  0.47058031  0.18057895  1
  H  H35  1  0.76896280  0.80134398  0.17488362  1
  H  H36  1  0.26518182  0.20111933  0.82049245  1
  H  H37  1  0.24503119  0.52816614  0.82741191  1
  H  H38  1  0.26213193  0.86237956  0.82075395  1
  H  H39  1  0.72982590  0.19664169  0.82790815  1
  H  H40  1  0.74979216  0.53278277  0.81487700  1
  H  H41  1  0.75228986  0.86093073  0.82576833  1
  H  H42  1  0.23556676  0.14676078  0.32789966  1
  H  H43  1  0.21947127  0.46718292  0.34098046  1
  H  H44  1  0.25832932  0.80694896  0.32210706  1
  H  H45  1  0.76615605  0.13744842  0.32354529  1
  H  H46  1  0.75573950  0.46885035  0.31862706  1
  H  H47  1  0.73238884  0.80213270  0.32440162  1
  H  H48  1  0.12625360  0.04904319  0.61448500  1
  H  H49  1  0.16440512  0.38731950  0.60429418  1
  H  H50  1  0.12618848  0.72615839  0.60417116  1
  H  H51  1  0.62466597  0.05649347  0.60387717  1
  H  H52  1  0.63576645  0.38686069  0.61422487  1
  H  H53  1  0.62319650  0.71738222  0.60650162  1
  H  H54  1  0.38718289  0.27954033  0.09308799  1
  H  H55  1  0.37319986  0.61687461  0.12780083  1
  H  H56  1  0.39229159  0.93715224  0.09000634  1
  H  H57  1  0.87776789  0.27626434  0.11063583  1
  H  H58  1  0.87838283  0.60780511  0.09236067  1
  H  H59  1  0.88535772  0.93944895  0.09972617  1
  H  H60  1  0.37096922  0.05153758  0.89237850  1
  H  H61  1  0.38148890  0.38863189  0.89788365  1
  H  H62  1  0.37908208  0.72547052  0.90609794  1
  H  H63  1  0.87434648  0.05290131  0.87160446  1
  H  H64  1  0.87919091  0.38805704  0.89627664  1
  H  H65  1  0.87410164  0.71880945  0.87291750  1
  H  H66  1  0.13287833  0.28313591  0.37431288  1
  H  H67  1  0.13009902  0.61605543  0.38136218  1
  H  H68  1  0.13271964  0.95245298  0.37386367  1
  H  H69  1  0.62556961  0.27613469  0.39829679  1
  H  H70  1  0.62652145  0.60871448  0.40683024  1
  H  H71  1  0.62824377  0.94808554  0.38531688  1
  H  H72  1  0.37294467  0.21401297  0.62173402  1
  H  H73  1  0.37156471  0.55337301  0.61314185  1
  H  H74  1  0.36269706  0.88907144  0.59854604  1
  H  H75  1  0.86390408  0.22947527  0.58968439  1
  H  H76  1  0.86408419  0.56074013  0.59013980  1
  H  H77  1  0.87066790  0.88374324  0.61019697  1
  H  H78  1  0.12855876  0.11323019  0.12361926  1
  H  H79  1  0.12050731  0.45154666  0.11906195  1
  H  H80  1  0.13779696  0.76969651  0.08782542  1
  H  H81  1  0.63048143  0.11402402  0.09665894  1
  H  H82  1  0.61694400  0.44492286  0.11235719  1
  H  H83  1  0.62581189  0.78258331  0.12528843  1
  H  H84  1  0.12070788  0.21536027  0.86861272  1
  H  H85  1  0.12749628  0.55974183  0.90134281  1
  H  H86  1  0.12105282  0.88271307  0.86931038  1
  H  H87  1  0.62873617  0.23026374  0.91288046  1
  H  H88  1  0.62505368  0.55338567  0.88441362  1
  H  H89  1  0.61405050  0.88117498  0.88194594  1
  H  H90  1  0.37534280  0.11876352  0.37541519  1
  H  H91  1  0.33424839  0.43971928  0.41610810  1
  H  H92  1  0.37684879  0.77841647  0.39821739  1
  H  H93  1  0.86965629  0.10646613  0.40826856  1
  H  H94  1  0.85953158  0.44266641  0.40175752  1
  H  H95  1  0.87216024  0.78715090  0.37471479  1
  H  H96  1  0.37756789  0.27885721  0.39054708  1
  H  H97  1  0.38009309  0.61660984  0.38200498  1
  H  H98  1  0.37926472  0.94949959  0.38877780  1
  H  H99  1  0.88761919  0.27559218  0.40534181  1
  H  H100  1  0.88400080  0.61196484  0.40687850  1
  H  H101  1  0.89099088  0.93779192  0.41491251  1
  H  H102  1  0.11927027  0.05761456  0.90308110  1
  H  H103  1  0.12775839  0.38257392  0.88405929  1
  H  H104  1  0.11931218  0.72372122  0.90452732  1
  H  H105  1  0.62039303  0.05534419  0.88103260  1
  H  H106  1  0.63011054  0.38455174  0.88508075  1
  H  H107  1  0.62600237  0.71792055  0.88195882  1
  H  H108  1  0.12436310  0.28232746  0.09346569  1
  H  H109  1  0.12323645  0.61477205  0.12039303  1
  H  H110  1  0.13040860  0.94953718  0.12835728  1
  H  H111  1  0.63228237  0.28199393  0.12365302  1
  H  H112  1  0.61744705  0.60667517  0.09481449  1
  H  H113  1  0.63631311  0.94859355  0.12416362  1
  H  H114  1  0.37617513  0.05297073  0.60778291  1
  H  H115  1  0.38727411  0.38812353  0.60863499  1
  H  H116  1  0.37441740  0.72353892  0.60698931  1
  H  H117  1  0.87671349  0.04824507  0.61464693  1
  H  H118  1  0.91804064  0.39720886  0.57953418  1
  H  H119  1  0.87775096  0.71808654  0.61302008  1
  H  H120  1  0.13146951  0.11020790  0.40977961  1
  H  H121  1  0.08651014  0.44593049  0.40103028  1
  H  H122  1  0.12849183  0.78304933  0.38869509  1
  H  H123  1  0.62523726  0.11562788  0.37363500  1
  H  H124  1  0.61498011  0.45387267  0.36977013  1
  H  H125  1  0.62821955  0.77264311  0.40848727  1
  H  H126  1  0.36094903  0.22888572  0.91253707  1
  H  H127  1  0.37504878  0.55309456  0.89300585  1
  H  H128  1  0.36381856  0.89255719  0.90683798  1
  H  H129  1  0.87174990  0.21881394  0.87669313  1
  H  H130  1  0.87439561  0.55302422  0.88465316  1
  H  H131  1  0.85957816  0.89074128  0.90854908  1
  H  H132  1  0.37691607  0.11354996  0.10517210  1
  H  H133  1  0.36673304  0.44133188  0.09540146  1
  H  H134  1  0.37913407  0.78423986  0.13034461  1
  H  H135  1  0.87562331  0.11743718  0.13020268  1
  H  H136  1  0.86591339  0.44443190  0.10875173  1
  H  H137  1  0.86735294  0.76972681  0.08578643  1
  H  H138  1  0.12917090  0.22833409  0.59141250  1
  H  H139  1  0.12346508  0.55844764  0.60101838  1
  H  H140  1  0.11542360  0.88084494  0.61833630  1
  H  H141  1  0.62313242  0.21264769  0.63419270  1
  H  H142  1  0.61950582  0.55095544  0.62091118  1
  H  H143  1  0.62142846  0.88366921  0.60779387  1
  H  H144  1  0.33268978  0.58573477  0.50345012  1
  H  H145  1  0.33336604  0.58304036  0.99822824  1
  H  H146  1  0.82912385  0.57256949  0.99843841  1
  H  H147  1  0.06673085  0.24274969  -0.00253946  1
  H  H148  1  0.27365771  0.25477878  1.00627802  1
  H  H149  1  0.28331662  0.91751529  1.00565117  1
  H  H150  1  0.95600505  0.58557710  -0.00804594  1
  H  H151  1  0.95899367  0.58241187  0.50597606  1
  H  H152  1  0.11017957  0.91979032  0.01330558  1
  H  H153  1  0.78040481  0.24946626  0.49332013  1
  H  H154  1  0.92072947  0.06884831  0.50158222  1
  H  H155  1  0.78404774  0.90729304  1.01019284  1
  H  H156  1  0.79063744  0.07937745  0.50651658  1
  H  H157  1  0.63831009  0.75133011  0.01496177  1
  H  H158  1  0.63669499  0.91366178  0.99212420  1
  H  H159  1  0.62877429  0.42470127  0.48413059  1
  H  H160  1  0.85966153  0.09027302  0.01448160  1
  H  H161  1  0.96293171  0.25041986  0.50503028  1
  H  H162  1  0.59364725  0.41405256  0.99593483  1
  H  H163  1  0.62770529  0.24397832  0.52031527  1
  H  H164  1  0.27905968  0.40759744  0.52384762  1
  H  H165  1  0.70257822  0.09193324  -0.00957077  1
  H  H166  1  0.41856436  0.24793520  0.49677921  1
  H  H167  1  0.98109953  0.42603834  0.47313940  1
  H  H168  1  0.04386821  0.75346037  1.00291191  1
  H  H169  1  0.58026547  0.07977782  0.98882745  1
  H  H170  1  0.22226550  0.74438220  -0.00816472  1
  H  H171  1  0.20997184  0.07985458  0.50716764  1
  H  H172  1  0.09883042  0.41653327  0.99474715  1
  H  H173  1  0.66875919  0.57612785  0.99688834  1
  H  H174  1  0.85821236  0.75529983  0.49017025  1
  H  H175  1  0.53949938  0.58027635  -0.00748524  1
  H  H176  1  0.46957673  0.91286208  -0.00969485  1
  H  H177  1  0.44108589  0.75135248  1.01310672  1
  H  H178  1  0.31761665  0.09880227  -0.00599903  1
  H  H179  1  0.15909765  0.09234882  0.00726548  1
  H  H180  1  0.08165740  0.07099397  0.50186003  1
  H  H181  1  0.78775234  0.41584237  0.50703773  1
  H  H182  1  0.95651097  0.91750125  -0.00123591  1
  H  H183  1  0.46387038  0.25085239  -0.00479181  1
  H  H184  1  0.78509305  0.58782621  0.49192665  1
  H  H185  1  0.43202144  0.91415648  0.49559263  1
  H  H186  1  0.42841957  0.07092647  1.00342002  1
  H  H187  1  0.13583738  0.91732950  0.49498803  1
  H  H188  1  0.04225260  0.08277829  1.00687626  1
  H  H189  1  0.91292565  0.25679058  0.00242007  1
  H  H190  1  0.93398839  0.42121396  1.00360547  1
  H  H191  1  0.67265736  0.91636479  0.50099046  1
  Pb  Pb192  1  0.24524894  0.04883288  0.75226210  1
  Pb  Pb193  1  0.24792309  0.38214755  0.75857129  1
  Pb  Pb194  1  0.24313491  0.71778893  0.75721349  1
  Pb  Pb195  1  0.74120366  0.05079407  0.74413129  1
  Pb  Pb196  1  0.74797896  0.38370348  0.74491971  1
  Pb  Pb197  1  0.74499976  0.71361637  0.74469303  1
  Pb  Pb198  1  0.25429917  0.28485726  0.23721328  1
  Pb  Pb199  1  0.25515595  0.61737236  0.25080913  1
  Pb  Pb200  1  0.25849520  0.95314738  0.23823490  1
  Pb  Pb201  1  0.75490343  0.28677632  0.26040677  1
  Pb  Pb202  1  0.75196288  0.61737167  0.24783132  1
  Pb  Pb203  1  0.75897338  0.94754689  0.25328495  1
  Pb  Pb204  1  -0.00825438  0.21899362  0.73915685  1
  Pb  Pb205  1  -0.00305706  0.54882500  0.74674413  1
  Pb  Pb206  1  -0.01310518  0.88324455  0.76152703  1
  Pb  Pb207  1  0.49298498  0.21708425  0.76213556  1
  Pb  Pb208  1  0.49297427  0.54966255  0.75391646  1
  Pb  Pb209  1  0.49473397  0.88135002  0.74938146  1
  Pb  Pb210  1  0.00402510  0.11803683  0.26147483  1
  Pb  Pb211  1  0.00072723  0.45186264  0.24462800  1
  Pb  Pb212  1  0.00788748  0.78242443  0.23758643  1
  Pb  Pb213  1  0.50633681  0.11993667  0.23643196  1
  Pb  Pb214  1  0.49509689  0.45190879  0.25020111  1
  Pb  Pb215  1  0.50229732  0.78517180  0.26028943  1
  C  C216  1  0.00145351  0.04105327  0.63588466  1
  C  C217  1  0.03673642  0.38397374  0.61205277  1
  C  C218  1  0.00399513  0.71241503  0.63114187  1
  C  C219  1  0.50116037  0.04442251  0.62833175  1
  C  C220  1  0.51061326  0.37646911  0.63555366  1
  C  C221  1  0.49829712  0.70975569  0.62891577  1
  C  C222  1  0.00352736  0.28663591  0.12466234  1
  C  C223  1  -0.00493749  0.62029726  0.12946222  1
  C  C224  1  0.00313113  0.95660077  0.13448147  1
  C  C225  1  0.50397313  0.29059697  0.13177193  1
  C  C226  1  0.50170874  0.61967253  0.13378919  1
  C  C227  1  0.50816168  0.95311837  0.12790343  1
  C  C228  1  0.00253598  0.04836482  0.86452579  1
  C  C229  1  0.00124165  0.37736445  0.86958335  1
  C  C230  1  0.00220063  0.70985971  0.86780119  1
  C  C231  1  0.49413940  0.04747763  0.86378359  1
  C  C232  1  0.50345694  0.37980367  0.86786772  1
  C  C233  1  0.49761846  0.71480343  0.87330199  1
  C  C234  1  0.00446331  0.29058181  0.36840935  1
  C  C235  1  0.00225214  0.62634769  0.37189517  1
  C  C236  1  0.00499016  0.95155950  0.37410135  1
  C  C237  1  0.50259703  0.28886262  0.37344926  1
  C  C238  1  0.50808908  0.62191918  0.37165143  1
  C  C239  1  0.50301750  0.95833207  0.36442287  1
  C  C240  1  0.24457029  0.21060539  0.62993862  1
  C  C241  1  0.24516877  0.54584182  0.63010840  1
  C  C242  1  0.24238401  0.87624148  0.62799287  1
  C  C243  1  0.75172820  0.21053603  0.63247893  1
  C  C244  1  0.74807611  0.54448884  0.62803222  1
  C  C245  1  0.74559512  0.87475489  0.63198740  1
  C  C246  1  0.25553716  0.11803270  0.13583647  1
  C  C247  1  0.24811677  0.45540319  0.12990295  1
  C  C248  1  0.25053525  0.78676463  0.12990622  1
  C  C249  1  0.74801541  0.12230372  0.13406386  1
  C  C250  1  0.74227580  0.45376790  0.13372721  1
  C  C251  1  0.75381720  0.78410824  0.12941289  1
  C  C252  1  0.24929052  0.21456568  0.86715230  1
  C  C253  1  0.24957466  0.54552491  0.87409910  1
  C  C254  1  0.24893775  0.87782788  0.86718443  1
  C  C255  1  0.74374273  0.21426274  0.87314125  1
  C  C256  1  0.74979973  0.54581104  0.86331833  1
  C  C257  1  0.74162026  0.87691419  0.87258432  1
  C  C258  1  0.24716933  0.12682761  0.37260399  1
  C  C259  1  0.21331514  0.45109054  0.38826692  1
  C  C260  1  0.25463494  0.79091785  0.36938635  1
  C  C261  1  0.75394408  0.12079936  0.36960572  1
  C  C262  1  0.74262615  0.45474481  0.36570204  1
  C  C263  1  0.74521575  0.78747075  0.37112120  1
  C  C264  1  0.53922701  0.25541447  0.46618681  1
  C  C265  1  0.04217998  0.06347791  0.54118390  1
  C  C266  1  0.96025095  0.06267508  0.54111033  1
  C  C267  1  0.55684065  0.73799700  0.96160496  1
  C  C268  1  0.93996533  0.74654081  0.95022639  1
  C  C269  1  0.79044826  0.56598547  0.95853304  1
  C  C270  1  0.09602861  0.41015145  0.52325559  1
  C  C271  1  0.26904532  0.90824423  0.53425283  1
  C  C272  1  0.19366269  0.42732213  0.04249220  1
  C  C273  1  0.73061437  0.09946785  0.03527260  1
  C  C274  1  0.18193990  0.90738783  0.95028588  1
  C  C275  1  0.07374552  0.92678952  0.45776450  1
  C  C276  1  0.46314438  0.74599886  0.53926236  1
  C  C277  1  0.75893174  0.42775567  0.46338906  1
  C  C278  1  0.05226688  0.40667393  0.95942653  1
  C  C279  1  0.51312639  0.59172355  0.03724678  1
  C  C280  1  0.32211468  0.75742270  0.04864016  1
  C  C281  1  0.68016117  0.23699441  0.55127363  1
  C  C282  1  0.20282351  0.10030623  0.04369493  1
  C  C283  1  0.28998055  0.57517880  0.54020138  1
  C  C284  1  0.53502863  0.07979925  0.53773217  1
  C  C285  1  0.18816713  0.90501923  0.53975480  1
  C  C286  1  0.80870329  0.76252894  0.45787021  1
  C  C287  1  1.01375615  0.41412298  0.51516346  1
  C  C288  1  0.71073415  0.90489739  0.54001964  1
  C  C289  1  0.99451242  0.92183550  0.47051621  1
  C  C290  1  0.68811876  0.08907245  0.45290016  1
  C  C291  1  0.28432406  0.10190757  0.03719893  1
  C  C292  1  0.97018269  0.40872767  0.96381414  1
  C  C293  1  0.52688637  0.58829061  0.46549791  1
  C  C294  1  0.06724457  0.25899392  0.45307201  1
  C  C295  1  0.54907306  0.40508935  0.95877320  1
  C  C296  1  0.73258687  0.25039998  0.96720193  1
  C  C297  1  0.46080232  0.06923649  0.95973967  1
  C  C298  1  0.24326165  0.42017129  0.48379180  1
  C  C299  1  0.16037346  0.42287497  0.47870511  1
  C  C300  1  0.70235845  0.42378419  0.04211490  1
  C  C301  1  0.31216913  0.08932910  0.45342280  1
  C  C302  1  0.47616790  0.74105610  0.97122990  1
  C  C303  1  0.81127795  0.09943839  0.04713164  1
  C  C304  1  0.03350280  0.74677025  0.53907857  1
  C  C305  1  0.01595220  0.07344956  0.96164802  1
  C  C306  1  0.70848617  0.56690308  0.95813546  1
  C  C307  1  0.72853636  0.75717554  0.46743411  1
  C  C308  1  0.57298349  0.92642507  0.04292700  1
  C  C309  1  0.06353660  0.92749976  0.04894455  1
  C  C310  1  0.67828428  0.43213856  0.45199179  1
  C  C311  1  0.46922956  0.92658985  0.45624949  1
  N  N312  1  0.23462764  0.08817599  0.46432054  1
  N  N313  1  0.20979393  0.76268110  0.46068728  1
  N  N314  1  0.75749731  0.24309473  0.53766832  1
  N  N315  1  0.98484149  0.92380947  0.04089735  1
  N  N316  1  0.25936345  0.91014699  0.96165501  1
  N  N317  1  0.30510227  0.23930401  0.54425259  1
  N  N318  1  0.68358074  0.89913161  0.95891911  1
  N  N319  1  0.46989771  0.40722136  0.96338437  1
  N  N320  1  0.55279313  0.40771105  0.54501044  1
  N  N321  1  0.76594874  0.75534561  0.03218836  1
  N  N322  1  0.80857252  0.24631731  0.95695307  1
  N  N323  1  0.95529936  0.25352578  0.03765965  1
  N  N324  1  0.93811346  0.07224997  0.95079013  1
  N  N325  1  0.46008287  0.25646240  0.46267652  1
  N  N326  1  0.54841352  0.92610684  0.45521798  1
  N  N327  1  0.98381595  0.58907977  0.46241555  1
  N  N328  1  0.48862255  0.25860131  0.03876698  1
  N  N329  1  0.05683852  0.59206864  0.04421937  1
  N  N330  1  0.77996280  0.42347495  0.03965199  1
  N  N331  1  0.17758434  0.23308779  0.95080983  1
  N  N332  1  0.54035349  0.74452500  0.53816779  1
  N  N333  1  0.21503298  0.57828350  0.96667432  1
  N  N334  1  0.68455521  0.57532871  0.54455859  1
  N  N335  1  0.43545272  0.59476834  0.04835630  1
  N  N336  1  0.69008022  0.75918875  0.04623987  1
  N  N337  1  0.95623828  0.74406565  0.54079859  1
  N  N338  1  0.76578349  0.08753190  0.46366184  1
  N  N339  1  0.98937988  0.25780260  0.46226093  1
  N  N340  1  0.21104162  0.57728714  0.53598221  1
  N  N341  1  0.29306270  0.57566716  0.96250835  1
  N  N342  1  0.56567357  0.25950104  0.04760064  1
  N  N343  1  0.22998456  0.24422180  0.53468565  1
  N  N344  1  0.28570370  0.76113000  0.46349642  1
  N  N345  1  0.78995245  0.90562601  0.54039154  1
  N  N346  1  0.03278259  0.26664340  0.02885528  1
  N  N347  1  0.49517281  0.92165266  0.03337333  1
  N  N348  1  0.27018040  0.42344663  0.03352681  1
  N  N349  1  0.53968306  0.07392344  0.95387433  1
  N  N350  1  0.24507983  0.75339476  0.03566258  1
  N  N351  1  0.45014164  0.59100145  0.45910646  1
  N  N352  1  0.47686057  0.40824340  0.54284021  1
  N  N353  1  0.76138499  0.57854745  0.53554740  1
  N  N354  1  0.01777849  0.74621412  0.96011353  1
  N  N355  1  0.76061049  0.91011249  0.96558159  1
  N  N356  1  0.06104820  0.58961953  0.45477897  1
  N  N357  1  0.97965230  0.58978572  0.03580832  1
  N  N358  1  0.25339096  0.23793005  0.96380918  1
  N  N359  1  0.45774939  0.07849402  0.53740986  1
  N  N360  1  0.06640637  0.05019640  0.60043508  1
  N  N361  1  0.10757902  0.39094559  0.58421534  1
  N  N362  1  0.06524388  0.72768503  0.59324982  1
  N  N363  1  0.56441804  0.05932810  0.59245801  1
  N  N364  1  0.57555004  0.38772248  0.60206676  1
  N  N365  1  0.56257574  0.72145260  0.59505364  1
  N  N366  1  0.44949662  0.27933633  0.08874527  1
  N  N367  1  0.43014384  0.61179945  0.10870589  1
  N  N368  1  0.45469065  0.94118237  0.08462827  1
  N  N369  1  0.93646135  0.27611783  0.09374373  1
  N  N370  1  0.94028793  0.60991150  0.08633763  1
  N  N371  1  0.94759550  0.94475522  0.09247922  1
  N  N372  1  0.43185488  0.05424192  0.90345675  1
  N  N373  1  0.44327432  0.39154361  0.90623193  1
  N  N374  1  0.44035654  0.72644943  0.91458497  1
  N  N375  1  0.93136865  0.05682315  0.89023660  1
  N  N376  1  0.93995172  0.39064318  0.90761674  1
  N  N377  1  0.93023962  0.72479725  0.89275728  1
  N  N378  1  0.07680728  0.27867577  0.39469810  1
  N  N379  1  0.07191332  0.61143321  0.39787547  1
  N  N380  1  0.07895376  0.94505959  0.39711637  1
  N  N381  1  0.56561548  0.27431424  0.41040796  1
  N  N382  1  0.56507852  0.60681078  0.41346607  1
  N  N383  1  0.56774670  0.94578998  0.39756204  1
  N  N384  1  0.31543662  0.21854123  0.60331968  1
  N  N385  1  0.31245896  0.55629291  0.59770456  1
  N  N386  1  0.30176701  0.89090882  0.58809956  1
  N  N387  1  0.80171830  0.22358324  0.58672748  1
  N  N388  1  0.80186553  0.55750921  0.58489469  1
  N  N389  1  0.80987234  0.88665239  0.59785252  1
  N  N390  1  0.18630163  0.11036239  0.10514100  1
  N  N391  1  0.17746664  0.44633177  0.10101789  1
  N  N392  1  0.19994088  0.77413925  0.08462738  1
  N  N393  1  0.69243511  0.11358686  0.08998710  1
  N  N394  1  0.67695817  0.44187421  0.09901742  1
  N  N395  1  0.68174133  0.77599160  0.10535166  1
  N  N396  1  0.17561919  0.21828934  0.89076449  1
  N  N397  1  0.18853349  0.56020796  0.91111300  1
  N  N398  1  0.17497463  0.88872809  0.89122889  1
  N  N399  1  0.69039542  0.23093189  0.91719898  1
  N  N400  1  0.68460126  0.55433817  0.89869709  1
  N  N401  1  0.67123217  0.88739622  0.89913767  1
  N  N402  1  0.32007956  0.11250182  0.39649653  1
  N  N403  1  0.27374662  0.43785200  0.42742846  1
  N  N404  1  0.31518681  0.77854614  0.40707522  1
  N  N405  1  0.80755516  0.10895889  0.41319148  1
  N  N406  1  0.79738168  0.44185907  0.40926356  1
  N  N407  1  0.81763685  0.78116104  0.39681178  1
  N  N408  1  0.43704145  0.27872371  0.40597291  1
  N  N409  1  0.43840351  0.61236447  0.39893169  1
  N  N410  1  0.43984452  0.94571767  0.40078390  1
  N  N411  1  0.94955197  0.27956636  0.41129397  1
  N  N412  1  0.94629712  0.61337337  0.41327769  1
  N  N413  1  0.95280413  0.93707506  0.41986291  1
  N  N414  1  0.05711971  0.05905806  0.90894486  1
  N  N415  1  0.06964510  0.38751316  0.90043782  1
  N  N416  1  0.05712964  0.72164651  0.91034525  1
  N  N417  1  0.56031285  0.06044336  0.89476468  1
  N  N418  1  0.57096225  0.38871994  0.90025519  1
  N  N419  1  0.56917756  0.72240692  0.90201290  1
  N  N420  1  0.06372297  0.27547691  0.08625218  1
  N  N421  1  0.06567876  0.60906907  0.10305435  1
  N  N422  1  0.07500147  0.94621143  0.10771670  1
  N  N423  1  0.57455789  0.27801349  0.10598280  1
  N  N424  1  0.55537786  0.60689823  0.08928842  1
  N  N425  1  0.58156235  0.94460469  0.10227170  1
  N  N426  1  0.43641386  0.05585419  0.59508767  1
  N  N427  1  0.44922573  0.38875409  0.59865095  1
  N  N428  1  0.43436881  0.72541837  0.59403504  1
  N  N429  1  0.93628203  0.04907947  0.60039494  1
  N  N430  1  0.97913634  0.39773882  0.57072814  1
  N  N431  1  0.93752272  0.72242366  0.59948305  1
  N  N432  1  0.19332295  0.11319058  0.41541254  1
  N  N433  1  0.14453743  0.44222824  0.41851401  1
  N  N434  1  0.18877792  0.78165290  0.40253882  1
  N  N435  1  0.68072879  0.10907164  0.39448990  1
  N  N436  1  0.66972801  0.44852177  0.39137192  1
  N  N437  1  0.69022756  0.77224666  0.41525180  1
  N  N438  1  0.29842214  0.22768375  0.91321784  1
  N  N439  1  0.31535090  0.55461713  0.90695571  1
  N  N440  1  0.30136539  0.88880686  0.91155658  1
  N  N441  1  0.81549761  0.22326832  0.89712021  1
  N  N442  1  0.81488984  0.55301118  0.89918981  1
  N  N443  1  0.79722904  0.88709442  0.91530269  1
  N  N444  1  0.31596201  0.11256641  0.09497153  1
  N  N445  1  0.30443848  0.44145026  0.08939321  1
  N  N446  1  0.32540205  0.77703457  0.10745461  1
  N  N447  1  0.82042779  0.11335889  0.10842379  1
  N  N448  1  0.80482518  0.44226548  0.09810321  1
  N  N449  1  0.80529424  0.77037539  0.08422393  1
  N  N450  1  0.19105553  0.22633378  0.58754923  1
  N  N451  1  0.18473414  0.55868602  0.59236014  1
  N  N452  1  0.17245259  0.88593559  0.59890825  1
  N  N453  1  0.67682557  0.21861924  0.61071103  1
  N  N454  1  0.67680335  0.55549755  0.60264464  1
  N  N455  1  0.68185278  0.88651864  0.59610299  1
  Cl  Cl456  1  0.24899146  0.05804538  0.61356661  1
  Cl  Cl457  1  0.27694539  0.38783644  0.62601945  1
  Cl  Cl458  1  0.24867425  0.72552949  0.62652417  1
  Cl  Cl459  1  0.75226572  0.05973655  0.60683659  1
  Cl  Cl460  1  0.77260981  0.39062732  0.61053299  1
  Cl  Cl461  1  0.75013681  0.71965005  0.61044157  1
  Cl  Cl462  1  0.26173681  0.27895912  0.09644799  1
  Cl  Cl463  1  0.24786434  0.61773843  0.11858690  1
  Cl  Cl464  1  0.27118758  0.93646274  0.09864916  1
  Cl  Cl465  1  0.75674168  0.27885313  0.12882323  1
  Cl  Cl466  1  0.75063461  0.60610546  0.11202489  1
  Cl  Cl467  1  0.76763147  0.92842085  0.10654675  1
  Cl  Cl468  1  0.24496057  0.05467353  0.88783966  1
  Cl  Cl469  1  0.25659615  0.38073633  0.88535636  1
  Cl  Cl470  1  0.24350220  0.72705001  0.89947555  1
  Cl  Cl471  1  0.74245943  0.05322087  0.87792213  1
  Cl  Cl472  1  0.75436179  0.38362546  0.87632687  1
  Cl  Cl473  1  0.74945608  0.71759561  0.87470930  1
  Cl  Cl474  1  0.25736927  0.27717583  0.36866780  1
  Cl  Cl475  1  0.25525173  0.61196632  0.38170426  1
  Cl  Cl476  1  0.25977592  0.95759281  0.36661625  1
  Cl  Cl477  1  0.76309908  0.26902219  0.39938305  1
  Cl  Cl478  1  0.76252859  0.60773360  0.39676387  1
  Cl  Cl479  1  0.75682747  0.94658222  0.38457477  1
  Cl  Cl480  1  -0.00957001  0.23280672  0.59859070  1
  Cl  Cl481  1  -0.01402547  0.56284172  0.60387076  1
  Cl  Cl482  1  -0.00846504  0.88163208  0.63125544  1
  Cl  Cl483  1  0.49579392  0.21596325  0.62876101  1
  Cl  Cl484  1  0.49495444  0.55594649  0.62374087  1
  Cl  Cl485  1  0.49206664  0.88784924  0.61725812  1
  Cl  Cl486  1  0.00461062  0.11358975  0.12697046  1
  Cl  Cl487  1  -0.00899736  0.44525830  0.11336248  1
  Cl  Cl488  1  0.00909118  0.77113772  0.09605041  1
  Cl  Cl489  1  0.50461882  0.10856946  0.09916979  1
  Cl  Cl490  1  0.49328469  0.44303901  0.11444417  1
  Cl  Cl491  1  0.50360745  0.78615828  0.12629516  1
  Cl  Cl492  1  -0.00353842  0.22428740  0.87345677  1
  Cl  Cl493  1  0.00061037  0.56368718  0.88512661  1
  Cl  Cl494  1  -0.02111615  0.89281194  0.90218817  1
  Cl  Cl495  1  0.48514434  0.22667158  0.90256460  1
  Cl  Cl496  1  0.49901879  0.55768992  0.88952675  1
  Cl  Cl497  1  0.48400345  0.89516236  0.89493938  1
  Cl  Cl498  1  0.00020337  0.10855780  0.39769129  1
  Cl  Cl499  1  -0.02869635  0.44781581  0.37735628  1
  Cl  Cl500  1  0.00790937  0.78074180  0.36807069  1
  Cl  Cl501  1  0.50104061  0.11927000  0.36647224  1
  Cl  Cl502  1  0.47240998  0.44702623  0.37560279  1
  Cl  Cl503  1  0.50125726  0.77431093  0.39193244  1
  Cl  Cl504  1  0.35687717  0.15030871  0.75118147  1
  Cl  Cl505  1  0.35430773  0.48582226  0.75792254  1
  Cl  Cl506  1  0.35568632  0.81797037  0.74989744  1
  Cl  Cl507  1  0.86056928  0.14739286  0.75483141  1
  Cl  Cl508  1  0.86227334  0.48304565  0.75433511  1
  Cl  Cl509  1  0.85034837  0.81783820  0.75238036  1
  Cl  Cl510  1  0.13893452  0.18669767  0.24579688  1
  Cl  Cl511  1  0.13674330  0.51995343  0.25281907  1
  Cl  Cl512  1  0.14059393  0.85596005  0.24081268  1
  Cl  Cl513  1  0.64160594  0.18748149  0.25404682  1
  Cl  Cl514  1  0.63219039  0.52275812  0.25634709  1
  Cl  Cl515  1  0.63618207  0.85524208  0.24530296  1
  Cl  Cl516  1  0.13552241  0.14646946  0.75285394  1
  Cl  Cl517  1  0.13619061  0.48104396  0.74851711  1
  Cl  Cl518  1  0.13247350  0.81054068  0.76320666  1
  Cl  Cl519  1  0.64074131  0.14713971  0.74984680  1
  Cl  Cl520  1  0.64003478  0.47852164  0.74168524  1
  Cl  Cl521  1  0.63013748  0.81271805  0.76062557  1
  Cl  Cl522  1  0.36194568  0.18167426  0.24713057  1
  Cl  Cl523  1  0.35675730  0.51783385  0.24244842  1
  Cl  Cl524  1  0.36203958  0.84986016  0.24723068  1
  Cl  Cl525  1  0.86281161  0.18278494  0.25014880  1
  Cl  Cl526  1  0.85554810  0.51302629  0.24726146  1
  Cl  Cl527  1  0.85597023  0.84741238  0.25252786  1
  Cl  Cl528  1  0.11468878  0.31292293  0.74602367  1
  Cl  Cl529  1  0.11126949  0.64714975  0.74817149  1
  Cl  Cl530  1  0.11134593  0.97607794  0.75170803  1
  Cl  Cl531  1  0.61689646  0.30997819  0.74900973  1
  Cl  Cl532  1  0.61136749  0.64580947  0.75528335  1
  Cl  Cl533  1  0.60916757  0.98042219  0.75671218  1
  Cl  Cl534  1  0.39823092  0.01723680  0.24064465  1
  Cl  Cl535  1  0.39340137  0.34662893  0.24623055  1
  Cl  Cl536  1  0.39125207  0.68442188  0.24680903  1
  Cl  Cl537  1  0.89455912  0.01592977  0.25070629  1
  Cl  Cl538  1  0.89793103  0.34590044  0.24642015  1
  Cl  Cl539  1  0.89000453  0.68421778  0.24986321  1
  Cl  Cl540  1  0.39710786  0.31647619  0.75262752  1
  Cl  Cl541  1  0.39343629  0.65027433  0.75465706  1
  Cl  Cl542  1  0.38872834  0.98525027  0.74576946  1
  Cl  Cl543  1  0.89854464  0.31685174  0.74582285  1
  Cl  Cl544  1  0.88706147  0.65023049  0.74941898  1
  Cl  Cl545  1  0.88970874  0.98216162  0.75562297  1
  Cl  Cl546  1  0.11869245  0.01939164  0.24557316  1
  Cl  Cl547  1  0.11557756  0.35302074  0.24860882  1
  Cl  Cl548  1  0.10842748  0.68655059  0.24393090  1
  Cl  Cl549  1  0.62192595  0.02169423  0.23793707  1
  Cl  Cl550  1  0.61633277  0.35506823  0.25225428  1
  Cl  Cl551  1  0.61606644  0.68657218  0.24874797  1
