# generated using pymatgen
data_H8PbC4(N3Cl2)2
_symmetry_space_group_name_H-M   'P 1'
_cell_length_a   16.62236414
_cell_length_b   22.51354356
_cell_length_c   21.59088938
_cell_angle_alpha   90.00025718
_cell_angle_beta   89.97229948
_cell_angle_gamma   90.00722110
_symmetry_Int_Tables_number   1
_chemical_formula_structural   H8PbC4(N3Cl2)2
_chemical_formula_sum   'H192 Pb24 C96 N144 Cl96'
_cell_volume   8079.92123407
_cell_formula_units_Z   24
loop_
 _symmetry_equiv_pos_site_id
 _symmetry_equiv_pos_as_xyz
  1  'x, y, z'
loop_
 _atom_site_type_symbol
 _atom_site_label
 _atom_site_symmetry_multiplicity
 _atom_site_fract_x
 _atom_site_fract_y
 _atom_site_fract_z
 _atom_site_occupancy
  H  H0  1  -0.00129042  0.02877992  0.67773785  1
  H  H1  1  0.01122834  0.36339307  0.67763082  1
  H  H2  1  0.00751069  0.69557798  0.67721151  1
  H  H3  1  0.49939781  0.02683220  0.67519701  1
  H  H4  1  0.48722568  0.36344962  0.67712562  1
  H  H5  1  0.49151943  0.69778880  0.67971431  1
  H  H6  1  0.01142368  0.30458156  0.18264428  1
  H  H7  1  0.01941671  0.63618345  0.17516949  1
  H  H8  1  -0.00052336  0.96772387  0.17600505  1
  H  H9  1  0.48928102  0.30655762  0.17548266  1
  H  H10  1  0.47876319  0.63567348  0.17592769  1
  H  H11  1  0.48974945  0.97099814  0.17747367  1
  H  H12  1  -0.00733727  0.02937212  0.82214784  1
  H  H13  1  -0.00708345  0.36620329  0.82066929  1
  H  H14  1  -0.00263651  0.69789232  0.82212760  1
  H  H15  1  0.50445999  0.03055284  0.82395563  1
  H  H16  1  0.50553981  0.36241540  0.82274464  1
  H  H17  1  0.50487932  0.69565097  0.81987676  1
  H  H18  1  0.00084070  0.30283647  0.32278367  1
  H  H19  1  0.00604503  0.63646697  0.32268007  1
  H  H20  1  0.00341216  0.97179944  0.32173951  1
  H  H21  1  0.49978765  0.30772409  0.32481428  1
  H  H22  1  0.49960088  0.63516587  0.31875558  1
  H  H23  1  0.50942870  0.97157152  0.32204335  1
  H  H24  1  0.26691942  0.20155139  0.67618409  1
  H  H25  1  0.25277347  0.52739751  0.67606062  1
  H  H26  1  0.26145678  0.86416970  0.67880184  1
  H  H27  1  0.74255589  0.19589078  0.67755858  1
  H  H28  1  0.74008180  0.53039980  0.67638194  1
  H  H29  1  0.73427174  0.86648513  0.67536965  1
  H  H30  1  0.23576287  0.13427564  0.18020112  1
  H  H31  1  0.25876302  0.46744570  0.17556068  1
  H  H32  1  0.24276241  0.80216686  0.17999782  1
  H  H33  1  0.76225524  0.13830178  0.17863464  1
  H  H34  1  0.74944494  0.46950470  0.17356424  1
  H  H35  1  0.75086973  0.80388327  0.18075084  1
  H  H36  1  0.24043402  0.19927315  0.81542885  1
  H  H37  1  0.25122139  0.52863257  0.82011610  1
  H  H38  1  0.26158520  0.86369532  0.82552321  1
  H  H39  1  0.76247348  0.19805488  0.82002278  1
  H  H40  1  0.74871939  0.52852820  0.82621505  1
  H  H41  1  0.73796289  0.86389093  0.81887975  1
  H  H42  1  0.25154803  0.13939520  0.32318191  1
  H  H43  1  0.24672349  0.47041849  0.32441935  1
  H  H44  1  0.25752279  0.80316693  0.32244630  1
  H  H45  1  0.75012217  0.13805100  0.32164799  1
  H  H46  1  0.74287273  0.46695900  0.31942733  1
  H  H47  1  0.75630905  0.80774683  0.32255679  1
  H  H48  1  0.12857182  0.05414456  0.61249919  1
  H  H49  1  0.12541764  0.38705750  0.59899135  1
  H  H50  1  0.13785439  0.71875898  0.61099620  1
  H  H51  1  0.62728596  0.05331348  0.60999751  1
  H  H52  1  0.62414424  0.38454954  0.61933403  1
  H  H53  1  0.63227032  0.71583607  0.62986503  1
  H  H54  1  0.38155299  0.27815860  0.09297137  1
  H  H55  1  0.38050390  0.60605410  0.08738390  1
  H  H56  1  0.38712549  0.93819359  0.09285961  1
  H  H57  1  0.87798643  0.28369722  0.11958533  1
  H  H58  1  0.87382614  0.61689240  0.13237529  1
  H  H59  1  0.88361326  0.94500680  0.09827613  1
  H  H60  1  0.37796791  0.05390198  0.89254741  1
  H  H61  1  0.37869640  0.38842721  0.89192470  1
  H  H62  1  0.37699660  0.71924294  0.88536337  1
  H  H63  1  0.88333509  0.05804406  0.90408812  1
  H  H64  1  0.88211931  0.39205513  0.90325260  1
  H  H65  1  0.87602521  0.72257179  0.89556413  1
  H  H66  1  0.11584087  0.27947490  0.39877833  1
  H  H67  1  0.11515403  0.60759269  0.40127092  1
  H  H68  1  0.12319694  0.94273771  0.39412165  1
  H  H69  1  0.61281988  0.27686050  0.40387659  1
  H  H70  1  0.61270498  0.61045368  0.40009790  1
  H  H71  1  0.62062957  0.94241842  0.40133924  1
  H  H72  1  0.37652198  0.22407798  0.59565987  1
  H  H73  1  0.38088906  0.55126694  0.60905601  1
  H  H74  1  0.38050641  0.88989808  0.60457521  1
  H  H75  1  0.88424249  0.21755355  0.62712901  1
  H  H76  1  0.87948548  0.55237470  0.62215779  1
  H  H77  1  0.87580596  0.88138632  0.62778199  1
  H  H78  1  0.12605459  0.10699509  0.09681588  1
  H  H79  1  0.12472119  0.44962867  0.11770825  1
  H  H80  1  0.12501680  0.77861004  0.10587815  1
  H  H81  1  0.62211444  0.11752572  0.12802969  1
  H  H82  1  0.62421456  0.44600473  0.10682162  1
  H  H83  1  0.62418873  0.77869981  0.11138384  1
  H  H84  1  0.12226070  0.21834170  0.89190770  1
  H  H85  1  0.12842279  0.55596533  0.88990286  1
  H  H86  1  0.11790651  0.88464898  0.87131417  1
  H  H87  1  0.62289403  0.21748593  0.87633980  1
  H  H88  1  0.62803300  0.55406151  0.89876993  1
  H  H89  1  0.61505998  0.88894317  0.89078590  1
  H  H90  1  0.36673314  0.11116028  0.40099110  1
  H  H91  1  0.37364514  0.44575857  0.39282978  1
  H  H92  1  0.36008249  0.77422174  0.40773990  1
  H  H93  1  0.87128437  0.10865834  0.39187971  1
  H  H94  1  0.87517475  0.44734671  0.38268029  1
  H  H95  1  0.86824558  0.77688389  0.40232495  1
  H  H96  1  0.36526862  0.28227305  0.38483802  1
  H  H97  1  0.36501288  0.61340792  0.38212896  1
  H  H98  1  0.37373990  0.94947964  0.38059076  1
  H  H99  1  0.86726750  0.28174599  0.38367516  1
  H  H100  1  0.86830811  0.61661965  0.37798289  1
  H  H101  1  0.87439482  0.94696051  0.38825765  1
  H  H102  1  0.12966237  0.05222206  0.87729696  1
  H  H103  1  0.12915599  0.38592192  0.87926482  1
  H  H104  1  0.12514069  0.72219657  0.88762812  1
  H  H105  1  0.62708056  0.05679792  0.89441095  1
  H  H106  1  0.62745578  0.38943220  0.89653739  1
  H  H107  1  0.62649472  0.72191633  0.89274646  1
  H  H108  1  0.12683958  0.27898064  0.10525864  1
  H  H109  1  0.11415789  0.60230329  0.08608836  1
  H  H110  1  0.13126397  0.94258475  0.11313463  1
  H  H111  1  0.62716817  0.28248429  0.12180370  1
  H  H112  1  0.62222810  0.61430987  0.13033352  1
  H  H113  1  0.63135481  0.95185456  0.12688383  1
  H  H114  1  0.37907740  0.05334228  0.60252114  1
  H  H115  1  0.37686840  0.39041148  0.59612821  1
  H  H116  1  0.38809719  0.72234883  0.59465641  1
  H  H117  1  0.87923151  0.05418624  0.60466725  1
  H  H118  1  0.87772560  0.38396080  0.61964991  1
  H  H119  1  0.89009014  0.72378515  0.60089210  1
  H  H120  1  0.11921302  0.11605657  0.38441791  1
  H  H121  1  0.12440026  0.44440395  0.39571502  1
  H  H122  1  0.11571961  0.78224221  0.37223956  1
  H  H123  1  0.62276789  0.11238639  0.38900798  1
  H  H124  1  0.62610150  0.44490889  0.39476039  1
  H  H125  1  0.62198577  0.78551861  0.38302439  1
  H  H126  1  0.37121004  0.21875114  0.87848152  1
  H  H127  1  0.37598392  0.54949187  0.89088158  1
  H  H128  1  0.36008346  0.89523640  0.91302907  1
  H  H129  1  0.86903737  0.22568374  0.90343872  1
  H  H130  1  0.87693314  0.55343258  0.89317077  1
  H  H131  1  0.86397999  0.88662989  0.88910303  1
  H  H132  1  0.37213760  0.11534509  0.11955667  1
  H  H133  1  0.37218487  0.44294435  0.09728912  1
  H  H134  1  0.37387604  0.78025490  0.11663064  1
  H  H135  1  0.86683933  0.10634277  0.09407773  1
  H  H136  1  0.87329302  0.44600908  0.10578481  1
  H  H137  1  0.87256713  0.77751538  0.10693364  1
  H  H138  1  0.13059379  0.21675029  0.62049361  1
  H  H139  1  0.13195854  0.55427001  0.60479756  1
  H  H140  1  0.13089822  0.88781952  0.61460524  1
  H  H141  1  0.63929730  0.22519450  0.59275916  1
  H  H142  1  0.63481634  0.55450522  0.59094983  1
  H  H143  1  0.63320375  0.89394866  0.58940120  1
  H  H144  1  0.95589487  0.08359918  1.00529757  1
  H  H145  1  0.17731671  0.74913130  -0.00346704  1
  H  H146  1  0.93073831  0.75280429  0.99905239  1
  H  H147  1  0.09165937  0.08383711  0.50698959  1
  H  H148  1  0.09775666  0.92074590  0.00351738  1
  H  H149  1  0.16923854  0.91364535  0.50706429  1
  H  H150  1  0.94749479  0.90496481  0.00138402  1
  H  H151  1  0.66346076  0.91545015  0.99973961  1
  H  H152  1  0.79122382  0.08529527  -0.00563100  1
  H  H153  1  0.90258285  0.41584131  0.50536462  1
  H  H154  1  0.33814921  0.58169592  0.50403931  1
  H  H155  1  0.79927858  0.75374022  0.50467986  1
  H  H156  1  0.67656592  0.58116397  1.00822107  1
  H  H157  1  0.31908465  0.55297092  0.99790113  1
  H  H158  1  0.46632095  0.91484601  -0.00670509  1
  H  H159  1  0.71478400  0.25474301  0.49074322  1
  H  H160  1  0.43615622  0.09851063  0.50836977  1
  H  H161  1  0.33607541  0.24235373  0.99366658  1
  H  H162  1  0.45611579  0.25314578  -0.00790116  1
  H  H163  1  0.91577707  0.27198383  0.00923274  1
  H  H164  1  0.42385192  0.08490262  0.99752693  1
  H  H165  1  0.14885077  0.41697599  0.00353238  1
  H  H166  1  0.17723476  0.23470227  1.00368612  1
  H  H167  1  0.32721458  0.91987093  0.49688358  1
  H  H168  1  0.10026047  0.74601013  0.50331500  1
  H  H169  1  0.46471299  0.58229119  -0.00938241  1
  H  H170  1  0.05947922  0.25033743  0.50704299  1
  H  H171  1  0.27636883  0.91847979  1.01093760  1
  H  H172  1  0.57422190  0.74991690  0.99613679  1
  H  H173  1  0.63652172  0.08654392  0.01454064  1
  H  H174  1  0.71087581  0.59283816  0.49686800  1
  H  H175  1  0.54267379  0.25069077  0.50559504  1
  H  H176  1  0.41372095  0.75141765  0.99553244  1
  H  H177  1  0.86631908  0.91139200  0.51183179  1
  H  H178  1  0.46050047  0.74958917  0.49070843  1
  H  H179  1  0.58361010  0.06962573  0.50334515  1
  H  H180  1  0.79389552  0.25668763  1.00605985  1
  H  H181  1  0.83836606  0.57919709  1.00057447  1
  H  H182  1  0.06627351  0.25829039  -0.00442877  1
  H  H183  1  0.02691772  0.57715214  -0.00905249  1
  H  H184  1  0.04906763  0.57542055  0.50728193  1
  H  H185  1  0.87219209  0.24806758  0.51546060  1
  H  H186  1  0.18601836  0.60258564  0.98424996  1
  H  H187  1  0.61977115  0.74524057  0.51599108  1
  H  H188  1  0.28259883  0.74591165  0.50594432  1
  H  H189  1  0.93167638  0.08349869  0.49571597  1
  H  H190  1  0.86084201  0.57771486  0.51106514  1
  H  H191  1  0.67970611  0.41681241  0.50354872  1
  Pb  Pb192  1  0.25257750  0.04755649  0.74716612  1
  Pb  Pb193  1  0.25326151  0.38050471  0.74778378  1
  Pb  Pb194  1  0.25292670  0.71304822  0.74459597  1
  Pb  Pb195  1  0.75215505  0.04688923  0.75655662  1
  Pb  Pb196  1  0.75238352  0.38083463  0.75492172  1
  Pb  Pb197  1  0.75552300  0.71466963  0.74817869  1
  Pb  Pb198  1  0.24763214  0.28674014  0.24404423  1
  Pb  Pb199  1  0.24681841  0.61931064  0.24175640  1
  Pb  Pb200  1  0.24314100  0.94909543  0.25178461  1
  Pb  Pb201  1  0.74475195  0.28482841  0.25246052  1
  Pb  Pb202  1  0.74144753  0.61693355  0.25747708  1
  Pb  Pb203  1  0.74944831  0.95460176  0.25076724  1
  Pb  Pb204  1  0.00134624  0.21379713  0.76226279  1
  Pb  Pb205  1  0.00290210  0.54595557  0.75537806  1
  Pb  Pb206  1  0.00185372  0.88067516  0.75449281  1
  Pb  Pb207  1  0.50257153  0.21404297  0.74358803  1
  Pb  Pb208  1  0.50384323  0.54773312  0.74973398  1
  Pb  Pb209  1  0.49870296  0.88245888  0.74979242  1
  Pb  Pb210  1  -0.00200424  0.11893580  0.24523138  1
  Pb  Pb211  1  -0.00226173  0.45350434  0.25190897  1
  Pb  Pb212  1  -0.00989053  0.78274500  0.24722319  1
  Pb  Pb213  1  0.49235828  0.11709989  0.25536221  1
  Pb  Pb214  1  0.49423763  0.45206920  0.25093130  1
  Pb  Pb215  1  0.49770914  0.78726642  0.24966347  1
  C  C216  1  0.00265255  0.04585537  0.63067441  1
  C  C217  1  0.00403025  0.37836237  0.63024056  1
  C  C218  1  0.01240257  0.71203146  0.63012334  1
  C  C219  1  0.50194788  0.04454625  0.62839714  1
  C  C220  1  0.49637692  0.37933194  0.63038443  1
  C  C221  1  0.50463080  0.71172051  0.63262131  1
  C  C222  1  0.00466875  0.29000290  0.13494220  1
  C  C223  1  0.00263656  0.62000938  0.12956793  1
  C  C224  1  0.00514295  0.95205809  0.12848448  1
  C  C225  1  0.49911597  0.29049861  0.12886206  1
  C  C226  1  0.49367568  0.62014579  0.12981540  1
  C  C227  1  0.50255750  0.95509340  0.13106099  1
  C  C228  1  0.00158707  0.04518733  0.86894664  1
  C  C229  1  0.00120844  0.38097332  0.86790527  1
  C  C230  1  -0.00085050  0.71417417  0.86933284  1
  C  C231  1  0.50267352  0.04718802  0.87104410  1
  C  C232  1  0.50399749  0.37933055  0.86981808  1
  C  C233  1  0.50318890  0.71288232  0.86690512  1
  C  C234  1  -0.00521627  0.28771959  0.37030528  1
  C  C235  1  -0.00334104  0.62031861  0.36943748  1
  C  C236  1  0.00006617  0.95421363  0.36818802  1
  C  C237  1  0.49308633  0.29011314  0.37129512  1
  C  C238  1  0.49241818  0.62037655  0.36632683  1
  C  C239  1  0.50083162  0.95511552  0.36855947  1
  C  C240  1  0.25769689  0.21420000  0.62837454  1
  C  C241  1  0.25566462  0.54404243  0.62905799  1
  C  C242  1  0.25721522  0.87953222  0.63110878  1
  C  C243  1  0.75623873  0.21204690  0.63117976  1
  C  C244  1  0.75173175  0.54565136  0.62933083  1
  C  C245  1  0.74888476  0.88052559  0.62871710  1
  C  C246  1  0.24442871  0.11922046  0.13288557  1
  C  C247  1  0.25105126  0.45283165  0.12811935  1
  C  C248  1  0.24687074  0.78672464  0.13254898  1
  C  C249  1  0.75049288  0.12213157  0.13199689  1
  C  C250  1  0.74892162  0.45322488  0.12612709  1
  C  C251  1  0.74921410  0.78733390  0.13355706  1
  C  C252  1  0.24479620  0.21207762  0.86381126  1
  C  C253  1  0.25200003  0.54469879  0.86759438  1
  C  C254  1  0.24649211  0.87981321  0.87150955  1
  C  C255  1  0.75112772  0.21325670  0.86693775  1
  C  C256  1  0.75176113  0.54475607  0.87364799  1
  C  C257  1  0.73902727  0.87946439  0.86634536  1
  C  C258  1  0.24602875  0.12312633  0.37008802  1
  C  C259  1  0.24843920  0.45408585  0.37144136  1
  C  C260  1  0.24456454  0.78731444  0.36886034  1
  C  C261  1  0.74773947  0.12044054  0.36808127  1
  C  C262  1  0.74774269  0.45322530  0.36736101  1
  C  C263  1  0.74904822  0.79085678  0.36922923  1
  C  C264  1  0.45712912  0.74169488  0.95787116  1
  C  C265  1  0.56969932  0.73549046  0.54692041  1
  C  C266  1  0.79919118  0.42860358  0.45821905  1
  C  C267  1  0.73538049  0.90834109  0.53125808  1
  C  C268  1  0.56470078  0.59138428  0.04775482  1
  C  C269  1  0.17660096  0.90893013  0.95329207  1
  C  C270  1  0.52289250  0.92158758  0.46215742  1
  C  C271  1  0.56908917  0.92676098  0.04715757  1
  C  C272  1  0.74176507  0.24238083  0.53497522  1
  C  C273  1  0.20001924  0.23627755  0.54032220  1
  C  C274  1  0.93642182  0.59266430  0.45604965  1
  C  C275  1  0.03314294  0.92150485  0.46063902  1
  C  C276  1  0.29706039  0.75997191  0.04196142  1
  C  C277  1  0.68627340  0.09439630  0.04766049  1
  C  C278  1  0.21554125  0.75928966  0.03660069  1
  C  C279  1  0.02222371  0.26089480  0.46672798  1
  C  C280  1  0.76664973  0.24353258  0.96231441  1
  C  C281  1  0.71760433  0.42724262  0.46388801  1
  C  C282  1  0.03474225  0.26463062  0.03916943  1
  C  C283  1  0.70792635  0.42402879  0.03560284  1
  C  C284  1  0.47576489  0.41130370  0.53623029  1
  C  C285  1  0.03173200  0.40599107  0.53469601  1
  C  C286  1  0.21220574  0.23080933  0.96128842  1
  C  C287  1  0.29082377  0.90843554  0.53707824  1
  C  C288  1  0.71552828  0.57206979  0.96785515  1
  C  C289  1  0.29398089  0.23272688  0.95649224  1
  C  C290  1  0.54314236  0.07638132  0.96446916  1
  C  C291  1  0.95044245  0.40560129  0.54007727  1
  C  C292  1  0.48926815  0.73795608  0.53442614  1
  C  C293  1  0.28041447  0.23874624  0.53211307  1
  C  C294  1  0.78822704  0.42402002  0.03506407  1
  C  C295  1  0.78218192  0.08692369  0.45972296  1
  C  C296  1  0.05503927  0.40648089  0.95650024  1
  C  C297  1  0.06170890  0.07625658  0.95501266  1
  C  C298  1  0.21802423  0.57511202  0.53555004  1
  C  C299  1  0.01706159  0.58908701  0.46563100  1
  C  C300  1  0.81530314  0.90413273  0.54297675  1
  C  C301  1  0.70366955  0.90570704  0.96005383  1
  C  C302  1  0.19679174  0.09555965  0.45992680  1
  C  C303  1  0.92895365  0.59184316  0.04939244  1
  C  C304  1  0.94053606  0.26229863  0.46055497  1
  C  C305  1  0.17858291  0.75889932  0.45285683  1
  C  C306  1  0.19668285  0.42640339  0.03811618  1
  C  C307  1  0.04635290  0.74403814  0.96066394  1
  C  C308  1  0.96826202  0.07401967  0.53651145  1
  C  C309  1  0.27797806  0.42439121  0.03263834  1
  C  C310  1  0.56068204  0.25858723  0.04369639  1
  C  C311  1  0.21371786  0.42311527  0.46335725  1
  N  N312  1  0.98352299  0.07650420  0.96310810  1
  N  N313  1  0.55296735  0.40914949  0.54217845  1
  N  N314  1  0.76477682  0.09032953  0.03735042  1
  N  N315  1  0.44559576  0.92426591  0.45704975  1
  N  N316  1  0.78446753  0.75757635  0.04016375  1
  N  N317  1  0.53694598  0.74345737  0.95893674  1
  N  N318  1  0.97658629  0.93155613  0.03289833  1
  N  N319  1  0.29694324  0.57337224  0.53842782  1
  N  N320  1  0.78293663  0.90605229  0.95978992  1
  N  N321  1  0.54676820  0.07823335  0.54066839  1
  N  N322  1  0.96710864  0.74345318  0.96211229  1
  N  N323  1  0.48752491  0.58943181  0.03443771  1
  N  N324  1  0.27410332  0.09323436  0.46623260  1
  N  N325  1  0.70431739  0.08805575  0.45980985  1
  N  N326  1  0.97840409  0.40858409  0.96572785  1
  N  N327  1  0.22314586  0.09150929  0.03624964  1
  N  N328  1  0.25374250  0.91217152  0.96635035  1
  N  N329  1  0.25632419  0.75586730  0.46370292  1
  N  N330  1  0.48272103  0.25877197  0.03459783  1
  N  N331  1  0.43757418  0.25819723  0.45772963  1
  N  N332  1  0.81183993  0.57533523  0.54577508  1
  N  N333  1  0.44160808  0.59509540  0.45675016  1
  N  N334  1  0.29096407  0.42342362  0.46377427  1
  N  N335  1  0.46381212  0.07564674  0.96269350  1
  N  N336  1  0.77085388  0.76183264  0.46287087  1
  N  N337  1  0.05441463  0.92214276  0.04100423  1
  N  N338  1  0.95540938  0.92315967  0.45953026  1
  N  N339  1  0.79522796  0.57270082  0.96443741  1
  N  N340  1  0.29337677  0.57140267  0.95918783  1
  N  N341  1  0.00559204  0.58680737  0.03498364  1
  N  N342  1  0.21173993  0.56810615  0.96027817  1
  N  N343  1  0.21119088  0.90847437  0.54173515  1
  N  N344  1  0.46717486  0.06838644  0.53471112  1
  N  N345  1  0.49143095  0.92261865  0.03661162  1
  N  N346  1  0.51781470  0.59365068  0.46252934  1
  N  N347  1  0.95529418  0.26567807  0.04492663  1
  N  N348  1  0.46280834  0.40967050  0.96149816  1
  N  N349  1  0.81977806  0.24002561  0.54745517  1
  N  N350  1  0.69352815  0.76418683  0.45708387  1
  N  N351  1  0.51518587  0.25685347  0.46304547  1
  N  N352  1  0.97902256  0.74022502  0.53575974  1
  N  N353  1  0.70744886  0.75806905  0.04160021  1
  N  N354  1  0.29914833  0.09408456  0.04355148  1
  N  N355  1  0.04789233  0.07561672  0.54113840  1
  N  N356  1  0.73505479  0.56755561  0.53230068  1
  N  N357  1  0.53889169  0.41043312  0.96269767  1
  N  N358  1  0.68837483  0.24029910  0.95334099  1
  N  N359  1  0.05689170  0.73795748  0.54013607  1
  N  N360  1  0.06853226  0.05792379  0.59901049  1
  N  N361  1  0.06400198  0.38965555  0.58891016  1
  N  N362  1  0.07842659  0.72042751  0.59721704  1
  N  N363  1  0.56770229  0.05280782  0.59498157  1
  N  N364  1  0.56571598  0.38917845  0.60243551  1
  N  N365  1  0.57770700  0.71940289  0.60768968  1
  N  N366  1  0.44352092  0.28051909  0.08634332  1
  N  N367  1  0.44271948  0.60985447  0.08409868  1
  N  N368  1  0.44929014  0.94296641  0.08745467  1
  N  N369  1  0.93715621  0.28536787  0.10318561  1
  N  N370  1  0.92708043  0.61112796  0.10839695  1
  N  N371  1  0.94527577  0.93999408  0.09002653  1
  N  N372  1  0.43845485  0.05753562  0.90508990  1
  N  N373  1  0.43948811  0.39041859  0.90400629  1
  N  N374  1  0.43618421  0.72390844  0.90023657  1
  N  N375  1  0.94533844  0.05521921  0.91103156  1
  N  N376  1  0.94449723  0.39236347  0.90903377  1
  N  N377  1  0.93715506  0.72447621  0.90603791  1
  N  N378  1  0.05472935  0.27671480  0.40939884  1
  N  N379  1  0.05364092  0.60666173  0.41033199  1
  N  N380  1  0.06238256  0.94016038  0.40531134  1
  N  N381  1  0.55080996  0.27832160  0.41166907  1
  N  N382  1  0.55054213  0.60904956  0.40664969  1
  N  N383  1  0.55905253  0.94022804  0.40937874  1
  N  N384  1  0.31561604  0.22536548  0.58578136  1
  N  N385  1  0.32088046  0.55394492  0.59590865  1
  N  N386  1  0.31966559  0.89111609  0.59286409  1
  N  N387  1  0.82788935  0.22063911  0.60639773  1
  N  N388  1  0.82266984  0.55338874  0.60271032  1
  N  N389  1  0.82206466  0.88722069  0.60461482  1
  N  N390  1  0.18797680  0.10712661  0.09137988  1
  N  N391  1  0.18154666  0.44412865  0.09883044  1
  N  N392  1  0.18551324  0.77585157  0.09447101  1
  N  N393  1  0.67763512  0.11228218  0.10694440  1
  N  N394  1  0.68308440  0.44152584  0.09121400  1
  N  N395  1  0.68472680  0.77622404  0.09944249  1
  N  N396  1  0.18282539  0.21858172  0.90321741  1
  N  N397  1  0.18900228  0.56167499  0.90050666  1
  N  N398  1  0.17190988  0.89041111  0.89387407  1
  N  N399  1  0.68057845  0.22181313  0.89406968  1
  N  N400  1  0.68844778  0.55578759  0.91102274  1
  N  N401  1  0.67526979  0.88993689  0.90278946  1
  N  N402  1  0.30488606  0.11109467  0.40903506  1
  N  N403  1  0.31297843  0.44313824  0.40521749  1
  N  N404  1  0.29768883  0.77520870  0.41239708  1
  N  N405  1  0.81095251  0.10649388  0.40445790  1
  N  N406  1  0.81671803  0.44406331  0.39971572  1
  N  N407  1  0.80637050  0.77913348  0.41000249  1
  N  N408  1  0.42427580  0.27741576  0.40001860  1
  N  N409  1  0.42456257  0.61180155  0.39712249  1
  N  N410  1  0.43193471  0.94537601  0.39720718  1
  N  N411  1  0.92488017  0.27829765  0.40139167  1
  N  N412  1  0.92463836  0.61128248  0.39744387  1
  N  N413  1  0.93463407  0.94343835  0.40103959  1
  N  N414  1  0.07311934  0.05762124  0.89649622  1
  N  N415  1  0.07161296  0.38998347  0.89718981  1
  N  N416  1  0.06628815  0.72634025  0.90315783  1
  N  N417  1  0.56726717  0.05935467  0.90742783  1
  N  N418  1  0.56612846  0.39167906  0.90604832  1
  N  N419  1  0.56517223  0.72457295  0.90316848  1
  N  N420  1  0.06553313  0.27745467  0.09534062  1
  N  N421  1  0.05210033  0.60708676  0.08358445  1
  N  N422  1  0.07272546  0.94361607  0.09713296  1
  N  N423  1  0.57098370  0.27755302  0.10217002  1
  N  N424  1  0.56826797  0.60947058  0.10713886  1
  N  N425  1  0.57615697  0.94556690  0.10607066  1
  N  N426  1  0.44005705  0.05936487  0.59321301  1
  N  N427  1  0.43854909  0.39304691  0.58873042  1
  N  N428  1  0.45019815  0.72310385  0.58837895  1
  N  N429  1  0.93980458  0.05651170  0.59251844  1
  N  N430  1  0.93483621  0.38832273  0.60093975  1
  N  N431  1  0.95192346  0.72444910  0.59179469  1
  N  N432  1  0.17734135  0.11316178  0.40126477  1
  N  N433  1  0.18470050  0.44159956  0.40785704  1
  N  N434  1  0.17106615  0.77726005  0.39355509  1
  N  N435  1  0.68292819  0.10943114  0.40152389  1
  N  N436  1  0.68688767  0.44292598  0.40611573  1
  N  N437  1  0.68016973  0.78133186  0.39877783  1
  N  N438  1  0.31282439  0.22106601  0.89574835  1
  N  N439  1  0.31563416  0.54775010  0.90409955  1
  N  N440  1  0.29760000  0.89074290  0.91692483  1
  N  N441  1  0.80686720  0.22677859  0.90973767  1
  N  N442  1  0.81706561  0.55447803  0.90689628  1
  N  N443  1  0.80312740  0.88969120  0.90105794  1
  N  N444  1  0.31336198  0.11069213  0.10360107  1
  N  N445  1  0.31079108  0.44014549  0.08680019  1
  N  N446  1  0.31547107  0.77621137  0.09996591  1
  N  N447  1  0.80444531  0.11061761  0.08848352  1
  N  N448  1  0.81402850  0.44154225  0.09044288  1
  N  N449  1  0.81125471  0.77554704  0.09702098  1
  N  N450  1  0.18656168  0.22151503  0.59932316  1
  N  N451  1  0.19215146  0.55721311  0.59180398  1
  N  N452  1  0.19069724  0.88874347  0.59904498  1
  N  N453  1  0.70189366  0.22533504  0.58685976  1
  N  N454  1  0.69691890  0.55913727  0.58692837  1
  N  N455  1  0.69521746  0.89395508  0.58286106  1
  Cl  Cl456  1  0.25391308  0.05054242  0.61418748  1
  Cl  Cl457  1  0.25055186  0.38561585  0.61592005  1
  Cl  Cl458  1  0.26486230  0.72291251  0.60131660  1
  Cl  Cl459  1  0.75069296  0.05556415  0.62480640  1
  Cl  Cl460  1  0.74915304  0.38490256  0.62346100  1
  Cl  Cl461  1  0.76949786  0.72507647  0.60722590  1
  Cl  Cl462  1  0.25501304  0.27581167  0.10797265  1
  Cl  Cl463  1  0.24835668  0.60422340  0.09845372  1
  Cl  Cl464  1  0.26330647  0.93610713  0.10549059  1
  Cl  Cl465  1  0.75581715  0.27745423  0.11830002  1
  Cl  Cl466  1  0.74809631  0.60938608  0.12430398  1
  Cl  Cl467  1  0.76179391  0.94945862  0.11671924  1
  Cl  Cl468  1  0.25651469  0.04821044  0.87861610  1
  Cl  Cl469  1  0.25540342  0.39035205  0.88260090  1
  Cl  Cl470  1  0.25010850  0.71523036  0.87702507  1
  Cl  Cl471  1  0.75904850  0.06205691  0.89666939  1
  Cl  Cl472  1  0.75521544  0.39121509  0.89004265  1
  Cl  Cl473  1  0.75090112  0.71778096  0.88026824  1
  Cl  Cl474  1  0.24083317  0.28306364  0.37572736  1
  Cl  Cl475  1  0.24151500  0.61225423  0.37738490  1
  Cl  Cl476  1  0.24445826  0.94271597  0.38668012  1
  Cl  Cl477  1  0.73497899  0.27412197  0.38799728  1
  Cl  Cl478  1  0.73579927  0.61449346  0.39595404  1
  Cl  Cl479  1  0.74594047  0.94617931  0.38421171  1
  Cl  Cl480  1  0.00690375  0.21621776  0.63081169  1
  Cl  Cl481  1  0.00809135  0.55475008  0.62288221  1
  Cl  Cl482  1  0.00980744  0.88814842  0.62407486  1
  Cl  Cl483  1  0.51528362  0.22470175  0.60334813  1
  Cl  Cl484  1  0.50873163  0.55156862  0.61798114  1
  Cl  Cl485  1  0.50727231  0.89341005  0.61793808  1
  Cl  Cl486  1  -0.00876896  0.10461352  0.10130337  1
  Cl  Cl487  1  -0.00353678  0.45249928  0.12426228  1
  Cl  Cl488  1  -0.00455882  0.77831916  0.10855817  1
  Cl  Cl489  1  0.49443943  0.11555637  0.11990931  1
  Cl  Cl490  1  0.49440645  0.45138052  0.11939180  1
  Cl  Cl491  1  0.50089065  0.77886374  0.11203401  1
  Cl  Cl492  1  -0.00598629  0.22427842  0.89856816  1
  Cl  Cl493  1  0.00581330  0.55876828  0.89613444  1
  Cl  Cl494  1  -0.01189529  0.88627793  0.89228897  1
  Cl  Cl495  1  0.49477892  0.22152036  0.88145840  1
  Cl  Cl496  1  0.49793537  0.56331758  0.89286748  1
  Cl  Cl497  1  0.48207913  0.89558660  0.89826363  1
  Cl  Cl498  1  -0.00500929  0.10679989  0.37947970  1
  Cl  Cl499  1  0.00083414  0.44427874  0.38506913  1
  Cl  Cl500  1  -0.01224546  0.77660172  0.38007146  1
  Cl  Cl501  1  0.49429883  0.10901945  0.39345872  1
  Cl  Cl502  1  0.49837371  0.44420905  0.38396610  1
  Cl  Cl503  1  0.48557643  0.77981585  0.38408235  1
  Cl  Cl504  1  0.36245459  0.14950624  0.74824621  1
  Cl  Cl505  1  0.36162224  0.48444552  0.75189819  1
  Cl  Cl506  1  0.35835630  0.81751661  0.75249216  1
  Cl  Cl507  1  0.86212876  0.14881545  0.74901372  1
  Cl  Cl508  1  0.86279609  0.48309325  0.74872173  1
  Cl  Cl509  1  0.86390911  0.81683594  0.74802743  1
  Cl  Cl510  1  0.13557260  0.18531061  0.24721583  1
  Cl  Cl511  1  0.13686123  0.51799647  0.24581578  1
  Cl  Cl512  1  0.13791144  0.85464538  0.25124583  1
  Cl  Cl513  1  0.64106413  0.18598954  0.24691141  1
  Cl  Cl514  1  0.64277513  0.51997624  0.24941486  1
  Cl  Cl515  1  0.63574618  0.85431949  0.25334262  1
  Cl  Cl516  1  0.13907241  0.14641978  0.74836698  1
  Cl  Cl517  1  0.14258911  0.48212264  0.75319097  1
  Cl  Cl518  1  0.13790260  0.81157837  0.75082916  1
  Cl  Cl519  1  0.64024482  0.14797025  0.75665151  1
  Cl  Cl520  1  0.64481165  0.48436728  0.75292163  1
  Cl  Cl521  1  0.64369221  0.81476540  0.74467672  1
  Cl  Cl522  1  0.35745760  0.18412495  0.25185969  1
  Cl  Cl523  1  0.35639818  0.51783497  0.25059400  1
  Cl  Cl524  1  0.35705937  0.85037946  0.24880326  1
  Cl  Cl525  1  0.86326415  0.18754565  0.24883169  1
  Cl  Cl526  1  0.86182635  0.52145695  0.25540198  1
  Cl  Cl527  1  0.85523114  0.85026922  0.25285193  1
  Cl  Cl528  1  0.11297970  0.31437649  0.75768973  1
  Cl  Cl529  1  0.11460488  0.64730110  0.75265543  1
  Cl  Cl530  1  0.11543893  0.97999656  0.75520603  1
  Cl  Cl531  1  0.61313008  0.31530769  0.74705793  1
  Cl  Cl532  1  0.61676160  0.64849056  0.74412596  1
  Cl  Cl533  1  0.61121908  0.98231529  0.75835528  1
  Cl  Cl534  1  0.39282168  0.01746619  0.25255400  1
  Cl  Cl535  1  0.39038800  0.34988269  0.25062546  1
  Cl  Cl536  1  0.38656954  0.68546848  0.24472434  1
  Cl  Cl537  1  0.89341899  0.01517310  0.24901675  1
  Cl  Cl538  1  0.88618416  0.35300827  0.25553539  1
  Cl  Cl539  1  0.89031434  0.68556938  0.24610130  1
  Cl  Cl540  1  0.39245085  0.31522270  0.75297537  1
  Cl  Cl541  1  0.39555266  0.65137465  0.75028035  1
  Cl  Cl542  1  0.39467470  0.98146140  0.74625423  1
  Cl  Cl543  1  0.89110233  0.31425578  0.74631092  1
  Cl  Cl544  1  0.89530449  0.64919435  0.75032424  1
  Cl  Cl545  1  0.89407916  0.98348438  0.75012077  1
  Cl  Cl546  1  0.11177713  0.01890179  0.24319701  1
  Cl  Cl547  1  0.10798787  0.35256244  0.24752868  1
  Cl  Cl548  1  0.10967351  0.68677101  0.25141862  1
  Cl  Cl549  1  0.61271548  0.02189376  0.24243369  1
  Cl  Cl550  1  0.61044660  0.35335514  0.24632545  1
  Cl  Cl551  1  0.60934713  0.68635882  0.24487727  1
