# generated using pymatgen
data_H8PbC4(N3Cl2)2
_symmetry_space_group_name_H-M   'P 1'
_cell_length_a   16.62821157
_cell_length_b   22.52142584
_cell_length_c   21.59948592
_cell_angle_alpha   90.00039188
_cell_angle_beta   89.99268343
_cell_angle_gamma   90.01218717
_symmetry_Int_Tables_number   1
_chemical_formula_structural   H8PbC4(N3Cl2)2
_chemical_formula_sum   'H192 Pb24 C96 N144 Cl96'
_cell_volume   8088.81356061
_cell_formula_units_Z   24
loop_
 _symmetry_equiv_pos_site_id
 _symmetry_equiv_pos_as_xyz
  1  'x, y, z'
loop_
 _atom_site_type_symbol
 _atom_site_label
 _atom_site_symmetry_multiplicity
 _atom_site_fract_x
 _atom_site_fract_y
 _atom_site_fract_z
 _atom_site_occupancy
  H  H0  1  -0.01226926  0.03231049  0.68049827  1
  H  H1  1  -0.00037826  0.36009604  0.67555833  1
  H  H2  1  -0.01170991  0.69399654  0.67476172  1
  H  H3  1  0.49771466  0.02537427  0.67882115  1
  H  H4  1  0.49656007  0.36296601  0.68350882  1
  H  H5  1  0.51020920  0.68835653  0.67093423  1
  H  H6  1  0.01711069  0.30184355  0.18189476  1
  H  H7  1  0.01296109  0.63353636  0.17409444  1
  H  H8  1  0.00126331  0.97059513  0.18405412  1
  H  H9  1  0.48396447  0.30336663  0.17674808  1
  H  H10  1  0.48215136  0.63439564  0.18174795  1
  H  H11  1  0.51517614  0.97710099  0.17823150  1
  H  H12  1  0.00963542  0.02844370  0.81668926  1
  H  H13  1  -0.00315426  0.36410474  0.82112133  1
  H  H14  1  -0.00916844  0.69157362  0.82081355  1
  H  H15  1  0.50372045  0.03007998  0.82162991  1
  H  H16  1  0.50213286  0.36182630  0.82046115  1
  H  H17  1  0.49288361  0.69686795  0.81842121  1
  H  H18  1  -0.00533000  0.30759589  0.32932845  1
  H  H19  1  -0.00161823  0.63821638  0.32076035  1
  H  H20  1  -0.00500505  0.97052513  0.32295761  1
  H  H21  1  0.51284432  0.30917464  0.32276279  1
  H  H22  1  0.50911325  0.64134917  0.31913323  1
  H  H23  1  0.49678511  0.96983646  0.32267980  1
  H  H24  1  0.27135849  0.19622986  0.67421977  1
  H  H25  1  0.24735980  0.53232649  0.68028933  1
  H  H26  1  0.24117931  0.86061541  0.67828532  1
  H  H27  1  0.73517885  0.19770243  0.67791282  1
  H  H28  1  0.74304429  0.53032727  0.66900186  1
  H  H29  1  0.75605364  0.86082952  0.67833712  1
  H  H30  1  0.24150092  0.13640511  0.18000525  1
  H  H31  1  0.25421582  0.46896937  0.17737908  1
  H  H32  1  0.25772229  0.80339870  0.18179182  1
  H  H33  1  0.75082289  0.13779019  0.17793990  1
  H  H34  1  0.75678346  0.47042904  0.17836083  1
  H  H35  1  0.75782825  0.80113276  0.18171368  1
  H  H36  1  0.24501634  0.19618518  0.82011689  1
  H  H37  1  0.26074790  0.52636146  0.82234157  1
  H  H38  1  0.24850173  0.86524805  0.81972417  1
  H  H39  1  0.74791538  0.19301652  0.82229161  1
  H  H40  1  0.73749074  0.53047478  0.82488071  1
  H  H41  1  0.74582750  0.86059643  0.82174534  1
  H  H42  1  0.25093549  0.14181128  0.31900373  1
  H  H43  1  0.25473118  0.47315956  0.32076439  1
  H  H44  1  0.24242024  0.80952772  0.32546933  1
  H  H45  1  0.75341804  0.13446812  0.31602301  1
  H  H46  1  0.76337934  0.46952399  0.32439407  1
  H  H47  1  0.74888212  0.80327678  0.32709621  1
  H  H48  1  0.12960760  0.04888099  0.63164452  1
  H  H49  1  0.12991977  0.38680734  0.61086378  1
  H  H50  1  0.12710080  0.71517599  0.61989046  1
  H  H51  1  0.63004680  0.05180062  0.61771842  1
  H  H52  1  0.62811981  0.38765827  0.61801120  1
  H  H53  1  0.62705587  0.72135029  0.59843591  1
  H  H54  1  0.38271663  0.27469085  0.09176244  1
  H  H55  1  0.37720053  0.60523312  0.09759329  1
  H  H56  1  0.37373243  0.95182889  0.12932466  1
  H  H57  1  0.87674008  0.28535618  0.13122983  1
  H  H58  1  0.87251432  0.61380523  0.12335587  1
  H  H59  1  0.87293997  0.94683469  0.11605424  1
  H  H60  1  0.37061077  0.05070954  0.88395960  1
  H  H61  1  0.37919901  0.38826175  0.89213122  1
  H  H62  1  0.38063345  0.72315927  0.89906846  1
  H  H63  1  0.87093900  0.05222725  0.87240254  1
  H  H64  1  0.88269530  0.39031643  0.90093152  1
  H  H65  1  0.88433353  0.72282028  0.90489985  1
  H  H66  1  0.12097542  0.28238901  0.39675389  1
  H  H67  1  0.11368128  0.61255528  0.39660022  1
  H  H68  1  0.13094792  0.94939856  0.38246512  1
  H  H69  1  0.61517432  0.27820678  0.40923715  1
  H  H70  1  0.61984929  0.61317711  0.40168660  1
  H  H71  1  0.63069089  0.94356959  0.38330900  1
  H  H72  1  0.37137520  0.22448491  0.58854636  1
  H  H73  1  0.38305511  0.55157069  0.62444056  1
  H  H74  1  0.36979813  0.88526858  0.61111292  1
  H  H75  1  0.88246640  0.21320840  0.63745521  1
  H  H76  1  0.88451577  0.54614937  0.62168160  1
  H  H77  1  0.86288579  0.88696450  0.59501246  1
  H  H78  1  0.13437513  0.10796510  0.09907861  1
  H  H79  1  0.11796965  0.44920115  0.11863875  1
  H  H80  1  0.11973059  0.78439516  0.12872531  1
  H  H81  1  0.62608956  0.11302824  0.10997845  1
  H  H82  1  0.62150882  0.44823678  0.11803074  1
  H  H83  1  0.61812689  0.78243173  0.12761021  1
  H  H84  1  0.12441299  0.21843304  0.89442533  1
  H  H85  1  0.12432232  0.55097975  0.87766296  1
  H  H86  1  0.12959722  0.88710118  0.89361445  1
  H  H87  1  0.62049510  0.21794256  0.88890370  1
  H  H88  1  0.62922197  0.55751172  0.90687418  1
  H  H89  1  0.63737320  0.89419801  0.90279687  1
  H  H90  1  0.36751704  0.11224930  0.39647565  1
  H  H91  1  0.36600752  0.44478042  0.40006879  1
  H  H92  1  0.36882735  0.77983676  0.39143564  1
  H  H93  1  0.86843165  0.11297579  0.39341239  1
  H  H94  1  0.86907761  0.44259851  0.40787125  1
  H  H95  1  0.87203613  0.77873326  0.39528835  1
  H  H96  1  0.37192840  0.28490773  0.37328865  1
  H  H97  1  0.37313661  0.61640856  0.37791134  1
  H  H98  1  0.38371749  0.94198332  0.40281897  1
  H  H99  1  0.87299027  0.27676147  0.39957588  1
  H  H100  1  0.86498234  0.61827479  0.38080443  1
  H  H101  1  0.88496756  0.93817689  0.40323725  1
  H  H102  1  0.11726188  0.05404454  0.89966609  1
  H  H103  1  0.13035802  0.38520902  0.88219319  1
  H  H104  1  0.12907194  0.71522498  0.87528441  1
  H  H105  1  0.61859627  0.05931163  0.89893977  1
  H  H106  1  0.62846698  0.38627092  0.88923447  1
  H  H107  1  0.62768154  0.71732221  0.87592184  1
  H  H108  1  0.12178259  0.27836511  0.09660002  1
  H  H109  1  0.11630585  0.60417022  0.08773356  1
  H  H110  1  0.12178933  0.94507756  0.11057162  1
  H  H111  1  0.62622697  0.28671405  0.12917187  1
  H  H112  1  0.62257076  0.61660338  0.12668948  1
  H  H113  1  0.61584243  0.94541753  0.09073930  1
  H  H114  1  0.38321912  0.05494112  0.60096845  1
  H  H115  1  0.37993200  0.38897008  0.60492714  1
  H  H116  1  0.37876027  0.71713605  0.61030615  1
  H  H117  1  0.88561440  0.05691008  0.59491577  1
  H  H118  1  0.88195742  0.39050384  0.60097254  1
  H  H119  1  0.88157475  0.72462644  0.59310946  1
  H  H120  1  0.11967390  0.11515063  0.38299627  1
  H  H121  1  0.11854557  0.44988064  0.37957285  1
  H  H122  1  0.12064365  0.77903715  0.39662645  1
  H  H123  1  0.62046815  0.11581605  0.37660652  1
  H  H124  1  0.62442661  0.45402043  0.37596781  1
  H  H125  1  0.62350976  0.77872758  0.39279626  1
  H  H126  1  0.37215687  0.22299945  0.88517374  1
  H  H127  1  0.37081312  0.55518053  0.90354244  1
  H  H128  1  0.37727381  0.88602421  0.88271064  1
  H  H129  1  0.86898255  0.22160408  0.89467143  1
  H  H130  1  0.87590506  0.55119018  0.88075677  1
  H  H131  1  0.88350670  0.88449888  0.87441043  1
  H  H132  1  0.38053346  0.11869163  0.12741159  1
  H  H133  1  0.36526637  0.44122048  0.09632462  1
  H  H134  1  0.36545381  0.77771352  0.09978069  1
  H  H135  1  0.87490531  0.11503859  0.10964731  1
  H  H136  1  0.86897509  0.44101558  0.10028617  1
  H  H137  1  0.86203905  0.77143559  0.09533885  1
  H  H138  1  0.12846080  0.21298858  0.62662561  1
  H  H139  1  0.13624431  0.55737081  0.60037290  1
  H  H140  1  0.12189618  0.88849336  0.60245262  1
  H  H141  1  0.64288606  0.22789494  0.58803246  1
  H  H142  1  0.64192220  0.56074969  0.58509637  1
  H  H143  1  0.61633339  0.88088887  0.62375732  1
  H  H144  1  0.58207090  0.41552688  0.99806448  1
  H  H145  1  0.29577123  0.25119640  0.48587515  1
  H  H146  1  0.05323452  0.58244348  0.50518067  1
  H  H147  1  0.72901392  0.25793774  0.48996648  1
  H  H148  1  0.04870156  0.25490103  -0.00839293  1
  H  H149  1  0.41666626  0.75245262  0.50550405  1
  H  H150  1  0.09928604  0.41729507  0.99329810  1
  H  H151  1  0.78249210  0.74861267  -0.00338396  1
  H  H152  1  0.53239867  0.92032040  -0.00593141  1
  H  H153  1  0.13774322  0.75640868  1.01402870  1
  H  H154  1  0.45882853  0.24364407  -0.01027099  1
  H  H155  1  0.44763595  0.74819864  1.00084216  1
  H  H156  1  0.60144889  0.74915094  0.98887312  1
  H  H157  1  0.85404332  0.57768252  0.99139007  1
  H  H158  1  0.31811071  0.27800768  0.97658489  1
  H  H159  1  0.64835357  0.08901563  0.48994452  1
  H  H160  1  0.06794146  0.91454348  0.00356057  1
  H  H161  1  0.80963614  0.08568115  0.50231010  1
  H  H162  1  0.88392109  0.58254556  0.50099661  1
  H  H163  1  0.11903916  0.07576365  0.51671371  1
  H  H164  1  0.86227392  0.91965402  0.98629070  1
  H  H165  1  0.63984618  0.42390063  0.49137821  1
  H  H166  1  0.44942032  0.08084757  0.49880293  1
  H  H167  1  0.63843478  0.90792661  0.51439972  1
  H  H168  1  0.53403542  0.25073966  0.50594886  1
  H  H169  1  0.29869297  0.41567832  0.50501314  1
  H  H170  1  0.29637376  0.75017728  -0.00597778  1
  H  H171  1  0.96047599  0.08403349  0.49126976  1
  H  H172  1  0.07986341  0.24583636  0.50012478  1
  H  H173  1  0.96225824  0.74838194  1.00389022  1
  H  H174  1  0.45317486  0.57590483  -0.00413695  1
  H  H175  1  0.20413396  0.07631497  -0.00543545  1
  H  H176  1  0.91831187  0.24983981  0.50485060  1
  H  H177  1  0.18649578  0.22823062  0.99923856  1
  H  H178  1  0.36458715  0.08750827  0.01312304  1
  H  H179  1  0.70831228  0.91855785  1.00321694  1
  H  H180  1  0.29858772  0.58110060  1.00486434  1
  H  H181  1  0.04511481  0.08347190  1.00293113  1
  H  H182  1  0.88992667  0.25707489  0.01665209  1
  H  H183  1  0.17396716  0.74962855  0.49911763  1
  H  H184  1  0.69698418  0.58494421  1.01160170  1
  H  H185  1  0.95772044  0.91157865  0.50422632  1
  H  H186  1  0.35984781  0.58091730  0.50948077  1
  H  H187  1  0.83106782  0.08539233  -0.00202866  1
  H  H188  1  0.08908848  0.41727498  0.50580370  1
  H  H189  1  0.79228009  0.91338319  0.49033287  1
  H  H190  1  0.61813168  0.25359127  0.01531684  1
  H  H191  1  0.34263719  0.91495509  -0.00331228  1
  Pb  Pb192  1  0.25786976  0.04989357  0.75281631  1
  Pb  Pb193  1  0.25980334  0.38492637  0.74646369  1
  Pb  Pb194  1  0.25788728  0.71358244  0.75047645  1
  Pb  Pb195  1  0.75560723  0.04935417  0.74521887  1
  Pb  Pb196  1  0.75868749  0.38231246  0.75179208  1
  Pb  Pb197  1  0.76029000  0.71747201  0.75052270  1
  Pb  Pb198  1  0.24515324  0.28636568  0.23771338  1
  Pb  Pb199  1  0.24123316  0.61643354  0.23988134  1
  Pb  Pb200  1  0.24572502  0.95337984  0.25072019  1
  Pb  Pb201  1  0.74611478  0.28676435  0.25805407  1
  Pb  Pb202  1  0.74293177  0.61861593  0.25294272  1
  Pb  Pb203  1  0.74352962  0.94949759  0.24671148  1
  Pb  Pb204  1  0.00900361  0.21736361  0.75612366  1
  Pb  Pb205  1  0.00607969  0.54791486  0.74557822  1
  Pb  Pb206  1  0.00861497  0.88264061  0.74183236  1
  Pb  Pb207  1  0.50689092  0.21663089  0.73982634  1
  Pb  Pb208  1  0.51161208  0.55065108  0.75534247  1
  Pb  Pb209  1  0.50491326  0.88179128  0.76001899  1
  Pb  Pb210  1  -0.00414137  0.11880261  0.24494286  1
  Pb  Pb211  1  -0.00755388  0.45182762  0.25205980  1
  Pb  Pb212  1  -0.00658206  0.78415406  0.24480138  1
  Pb  Pb213  1  0.49575943  0.11927875  0.25966996  1
  Pb  Pb214  1  0.49303336  0.45151050  0.24690781  1
  Pb  Pb215  1  0.48863209  0.78353951  0.24700276  1
  C  C216  1  0.00179779  0.04581126  0.63340181  1
  C  C217  1  0.00432104  0.37823376  0.62923713  1
  C  C218  1  -0.00059182  0.71092839  0.62875193  1
  C  C219  1  0.50342987  0.04287227  0.63230357  1
  C  C220  1  0.50142489  0.37886439  0.63623141  1
  C  C221  1  0.50490583  0.70786913  0.62528347  1
  C  C222  1  0.00467536  0.28822530  0.13456559  1
  C  C223  1  0.00078037  0.61758528  0.12785425  1
  C  C224  1  -0.00170646  0.95418730  0.13681570  1
  C  C225  1  0.49826607  0.28820897  0.13020249  1
  C  C226  1  0.49431651  0.61973731  0.13481385  1
  C  C227  1  0.50183038  0.95934038  0.13266898  1
  C  C228  1  -0.00114850  0.04431786  0.86341568  1
  C  C229  1  0.00330159  0.37974416  0.86832091  1
  C  C230  1  0.00133444  0.70877151  0.86698505  1
  C  C231  1  0.49765835  0.04629613  0.86851887  1
  C  C232  1  0.50329000  0.37899192  0.86733147  1
  C  C233  1  0.50037445  0.71231264  0.86579470  1
  C  C234  1  -0.00386107  0.28926579  0.37593477  1
  C  C235  1  -0.00742834  0.62271474  0.36811190  1
  C  C236  1  0.00335265  0.95411607  0.36971246  1
  C  C237  1  0.50030701  0.29175146  0.36853932  1
  C  C238  1  0.50082981  0.62423363  0.36567194  1
  C  C239  1  0.50385635  0.95324227  0.36959452  1
  C  C240  1  0.25700454  0.21053948  0.62759521  1
  C  C241  1  0.25654437  0.54677698  0.63298937  1
  C  C242  1  0.24407684  0.87757060  0.63137870  1
  C  C243  1  0.75379056  0.21259782  0.63234246  1
  C  C244  1  0.75724137  0.54557305  0.62266243  1
  C  C245  1  0.74439834  0.87608018  0.63138162  1
  C  C246  1  0.25279632  0.12159553  0.13290113  1
  C  C247  1  0.24596252  0.45345157  0.13047755  1
  C  C248  1  0.24693086  0.78897412  0.13448069  1
  C  C249  1  0.75107202  0.12207208  0.13054968  1
  C  C250  1  0.74873847  0.45387088  0.13182966  1
  C  C251  1  0.74611099  0.78681065  0.13468023  1
  C  C252  1  0.24723522  0.21223469  0.86759641  1
  C  C253  1  0.25222843  0.54251600  0.86902590  1
  C  C254  1  0.25263123  0.87938434  0.86753638  1
  C  C255  1  0.74612577  0.21022037  0.86895604  1
  C  C256  1  0.74813674  0.54565921  0.87202149  1
  C  C257  1  0.75544035  0.87821529  0.86809012  1
  C  C258  1  0.24609994  0.12427560  0.36566134  1
  C  C259  1  0.24600650  0.45733779  0.36779328  1
  C  C260  1  0.24351737  0.79079668  0.37162093  1
  C  C261  1  0.74698037  0.12062128  0.36394303  1
  C  C262  1  0.75134323  0.45565779  0.37149330  1
  C  C263  1  0.74802837  0.78703950  0.37437923  1
  C  C264  1  0.54196421  0.40597589  0.95950802  1
  C  C265  1  0.77554809  0.09603736  0.46074774  1
  C  C266  1  0.76970744  0.42855493  0.46860497  1
  C  C267  1  0.98816699  0.07184316  0.53508819  1
  C  C268  1  0.48577920  0.25776753  0.03319386  1
  C  C269  1  0.02055091  0.26394491  0.03600064  1
  C  C270  1  0.70936497  0.09435227  0.03809855  1
  C  C271  1  0.74407026  0.57596064  0.52679118  1
  C  C272  1  0.55686591  0.74037372  0.95316579  1
  C  C273  1  0.18566112  0.76513608  0.04709558  1
  C  C274  1  0.21790629  0.90488464  0.96250711  1
  C  C275  1  0.78655268  0.75799514  0.46591027  1
  C  C276  1  0.06848461  0.06817080  0.54791380  1
  C  C277  1  0.26730787  0.23857576  0.52929879  1
  C  C278  1  0.68919003  0.43207101  0.45914126  1
  C  C279  1  0.83050315  0.23747533  0.55294449  1
  C  C280  1  0.01598988  0.07242069  0.95916629  1
  C  C281  1  0.72706945  0.57381564  0.96840516  1
  C  C282  1  0.31270085  0.57243332  0.54362504  1
  C  C283  1  0.56612072  0.26203724  0.04619193  1
  C  C284  1  0.29938063  0.90489489  0.96017345  1
  C  C285  1  0.81543574  0.90992512  0.95250207  1
  C  C286  1  0.19280692  0.42722904  0.04204720  1
  C  C287  1  0.19288913  0.57448646  0.95499554  1
  C  C288  1  0.31479985  0.09597973  0.04619954  1
  C  C289  1  0.53773195  0.74558574  0.53352982  1
  C  C290  1  0.77241476  0.42048524  0.03836982  1
  C  C291  1  0.76379125  0.90341767  0.53454400  1
  C  C292  1  0.01987455  0.59395060  0.46354296  1
  C  C293  1  0.70416515  0.23950132  0.96018426  1
  C  C294  1  0.44887444  0.07469185  0.95771311  1
  C  C295  1  0.82369334  0.57138904  0.53836368  1
  C  C296  1  0.03070434  0.92611928  0.04339546  1
  C  C297  1  0.93997000  0.59038703  0.04280375  1
  C  C298  1  0.98196622  0.74457422  0.53444092  1
  C  C299  1  0.26745867  0.42805431  0.46260815  1
  C  C300  1  0.48064628  0.58977222  0.03935758  1
  C  C301  1  0.18742297  0.23364035  0.54354849  1
  C  C302  1  0.70604511  0.75804043  0.46501745  1
  C  C303  1  0.26657732  0.76213397  0.03711023  1
  C  C304  1  0.23166010  0.57464442  0.53695753  1
  C  C305  1  0.93991870  0.26568118  0.04816855  1
  C  C306  1  0.79076466  0.09507759  0.03634837  1
  C  C307  1  0.69385350  0.09768533  0.45477735  1
  C  C308  1  0.75254322  0.24347151  0.53482990  1
  C  C309  1  0.05282422  0.40750726  0.95736763  1
  C  C310  1  0.23365230  0.09120897  0.03664385  1
  C  C311  1  0.93837677  0.59594131  0.45699737  1
  N  N312  1  0.52260842  0.59264099  0.46050977  1
  N  N313  1  0.93771033  0.07235674  0.94998092  1
  N  N314  1  0.45886885  0.74316376  0.53851220  1
  N  N315  1  0.46267550  0.40738662  0.96080425  1
  N  N316  1  0.47898728  0.92250524  0.46431164  1
  N  N317  1  0.98609593  0.74208494  0.95970135  1
  N  N318  1  0.51090154  0.92684903  0.03907010  1
  N  N319  1  0.47241211  0.40800361  0.54151992  1
  N  N320  1  0.19894377  0.09294439  0.45485760  1
  N  N321  1  0.01588060  0.58707243  0.03023265  1
  N  N322  1  0.05878771  0.74117149  0.54166283  1
  N  N323  1  0.55504367  0.92282985  0.45774021  1
  N  N324  1  0.06151142  0.92516908  0.45630548  1
  N  N325  1  0.75869864  0.75711470  0.04042688  1
  N  N326  1  0.97398940  0.40943270  0.96394977  1
  N  N327  1  0.27488621  0.09238316  0.45941867  1
  N  N328  1  0.43433748  0.26142356  0.45123680  1
  N  N329  1  0.06301007  0.73962238  0.95101654  1
  N  N330  1  0.47919792  0.07515989  0.54034836  1
  N  N331  1  0.21064476  0.75744074  0.46142173  1
  N  N332  1  0.97007883  0.40900030  0.53600349  1
  N  N333  1  0.26947512  0.42407054  0.03344438  1
  N  N334  1  0.27109910  0.57443219  0.96277894  1
  N  N335  1  0.51116955  0.25880005  0.46170513  1
  N  N336  1  0.03776158  0.26423037  0.46772196  1
  N  N337  1  0.18859104  0.42998573  0.45616536  1
  N  N338  1  0.29255572  0.24068301  0.95760201  1
  N  N339  1  0.28806578  0.90971493  0.54114456  1
  N  N340  1  0.95146967  0.92692267  0.04469208  1
  N  N341  1  0.43456546  0.92866915  0.05093212  1
  N  N342  1  0.68200596  0.76204515  0.04942211  1
  N  N343  1  0.21055238  0.24395651  0.95860482  1
  N  N344  1  0.78171202  0.24116933  0.96326350  1
  N  N345  1  0.28937648  0.75849119  0.46140504  1
  N  N346  1  0.95970305  0.25358437  0.46514441  1
  N  N347  1  0.69527031  0.42323184  0.04274557  1
  N  N348  1  0.52594356  0.07775857  0.96403387  1
  N  N349  1  0.54844695  0.40767056  0.54613243  1
  N  N350  1  0.47779610  0.74340585  0.95956746  1
  N  N351  1  0.21189970  0.91069250  0.53857709  1
  N  N352  1  0.55878354  0.59430738  0.04863435  1
  N  N353  1  0.04815159  0.40786123  0.54077761  1
  N  N354  1  0.80571894  0.57161400  0.95859415  1
  N  N355  1  0.73662530  0.91341140  0.96092489  1
  N  N356  1  0.68554217  0.90222874  0.54570606  1
  N  N357  1  0.55703250  0.07353860  0.54471521  1
  N  N358  1  0.44718510  0.59369759  0.45288154  1
  N  N359  1  0.98411936  0.92121480  0.46202269  1
  N  N360  1  0.07527501  0.05248173  0.60891054  1
  N  N361  1  0.07031408  0.38850250  0.59694025  1
  N  N362  1  0.06956788  0.72000296  0.60198207  1
  N  N363  1  0.57134122  0.05589274  0.60281475  1
  N  N364  1  0.56804603  0.38996671  0.60463720  1
  N  N365  1  0.56638841  0.72419870  0.58733493  1
  N  N366  1  0.44468175  0.27428114  0.08592448  1
  N  N367  1  0.43951618  0.60571564  0.09159743  1
  N  N368  1  0.42966269  0.94686435  0.10963828  1
  N  N369  1  0.93183814  0.28047491  0.10931297  1
  N  N370  1  0.92808155  0.60828757  0.10249892  1
  N  N371  1  0.93283548  0.94397614  0.10366716  1
  N  N372  1  0.42875332  0.05597971  0.89981432  1
  N  N373  1  0.44043101  0.39092377  0.90298152  1
  N  N374  1  0.44305741  0.72353993  0.90644857  1
  N  N375  1  0.92879506  0.05497516  0.89019878  1
  N  N376  1  0.94481499  0.39175792  0.90814140  1
  N  N377  1  0.94703193  0.72079795  0.90994875  1
  N  N378  1  0.06076091  0.27894297  0.41007221  1
  N  N379  1  0.05263241  0.61066484  0.40715626  1
  N  N380  1  0.07291480  0.94434880  0.39831229  1
  N  N381  1  0.55282931  0.27927226  0.41270962  1
  N  N382  1  0.55736758  0.61198611  0.40693775  1
  N  N383  1  0.57195943  0.94224927  0.39922010  1
  N  N384  1  0.30958778  0.22388042  0.58305212  1
  N  N385  1  0.32679001  0.55518263  0.60448847  1
  N  N386  1  0.30954858  0.88930358  0.59860879  1
  N  N387  1  0.83029180  0.21900404  0.61215726  1
  N  N388  1  0.83063411  0.55273533  0.59873182  1
  N  N389  1  0.80065915  0.88798680  0.58799625  1
  N  N390  1  0.19630376  0.10768381  0.09076238  1
  N  N391  1  0.17569817  0.44450354  0.10104639  1
  N  N392  1  0.17490951  0.78161294  0.10752720  1
  N  N393  1  0.68564793  0.11046505  0.09479720  1
  N  N394  1  0.68038999  0.44438309  0.10240232  1
  N  N395  1  0.67450589  0.77893859  0.10853706  1
  N  N396  1  0.18549672  0.21713443  0.90593105  1
  N  N397  1  0.18105638  0.55542280  0.89676136  1
  N  N398  1  0.19004436  0.88958195  0.90666723  1
  N  N399  1  0.68001747  0.22135879  0.90300847  1
  N  N400  1  0.69091120  0.55837618  0.91455396  1
  N  N401  1  0.69972554  0.89054908  0.90985987  1
  N  N402  1  0.30555241  0.11193143  0.40433162  1
  N  N403  1  0.30396364  0.44451975  0.40887785  1
  N  N404  1  0.30871539  0.77763819  0.40461243  1
  N  N405  1  0.80726603  0.11024493  0.40376774  1
  N  N406  1  0.80715726  0.44270050  0.41581766  1
  N  N407  1  0.81270715  0.77539106  0.41048250  1
  N  N408  1  0.42840820  0.28005136  0.39262872  1
  N  N409  1  0.43187296  0.61240142  0.39393382  1
  N  N410  1  0.44588369  0.94122313  0.40984042  1
  N  N411  1  0.93354198  0.27579185  0.41111498  1
  N  N412  1  0.92286931  0.61348143  0.39813848  1
  N  N413  1  0.94681837  0.94102315  0.41065605  1
  N  N414  1  0.05499905  0.05533086  0.90646457  1
  N  N415  1  0.07207925  0.38978028  0.89869680  1
  N  N416  1  0.07209217  0.72081510  0.89268853  1
  N  N417  1  0.55655540  0.05965882  0.90702304  1
  N  N418  1  0.56847515  0.38906791  0.90225838  1
  N  N419  1  0.57115194  0.72267397  0.89452425  1
  N  N420  1  0.05972251  0.27788863  0.09038952  1
  N  N421  1  0.05396445  0.60473032  0.08451828  1
  N  N422  1  0.06075079  0.94252016  0.09951877  1
  N  N423  1  0.57186040  0.28055701  0.10653778  1
  N  N424  1  0.56527508  0.61261465  0.10801870  1
  N  N425  1  0.55317263  0.94781858  0.08752202  1
  N  N426  1  0.44511155  0.05362084  0.59231048  1
  N  N427  1  0.44178969  0.38994072  0.59722515  1
  N  N428  1  0.43791292  0.71899742  0.59466994  1
  N  N429  1  0.94785935  0.05777380  0.58887296  1
  N  N430  1  0.94334499  0.39132214  0.59148106  1
  N  N431  1  0.94331165  0.72627482  0.58631609  1
  N  N432  1  0.17939584  0.11259959  0.39697608  1
  N  N433  1  0.17696213  0.44846335  0.39662531  1
  N  N434  1  0.18157872  0.77879886  0.40788164  1
  N  N435  1  0.67775838  0.11284198  0.39457638  1
  N  N436  1  0.67935542  0.44891938  0.39766013  1
  N  N437  1  0.68211906  0.77540192  0.40903156  1
  N  N438  1  0.31214844  0.22950954  0.89783716  1
  N  N439  1  0.30881799  0.55270656  0.91072565  1
  N  N440  1  0.31971840  0.88892063  0.89989730  1
  N  N441  1  0.80798543  0.22237957  0.90500439  1
  N  N442  1  0.81818258  0.55344237  0.89953295  1
  N  N443  1  0.82713110  0.88978603  0.89442812  1
  N  N444  1  0.32481854  0.11469490  0.10621086  1
  N  N445  1  0.30295982  0.44072095  0.09000356  1
  N  N446  1  0.30337428  0.77709201  0.09196990  1
  N  N447  1  0.81570045  0.11227158  0.09533607  1
  N  N448  1  0.80759938  0.43900284  0.09151785  1
  N  N449  1  0.79929537  0.77486345  0.09088298  1
  N  N450  1  0.18263566  0.21709842  0.60314439  1
  N  N451  1  0.19807021  0.55909563  0.59077600  1
  N  N452  1  0.18304954  0.89075160  0.59437732  1
  N  N453  1  0.70543437  0.22740480  0.58557697  1
  N  N454  1  0.70385595  0.56046094  0.57800013  1
  N  N455  1  0.67384165  0.88476722  0.60498742  1
  Cl  Cl456  1  0.26428757  0.05790890  0.62272303  1
  Cl  Cl457  1  0.25558760  0.38988734  0.61015528  1
  Cl  Cl458  1  0.25447178  0.72053448  0.61754347  1
  Cl  Cl459  1  0.76094938  0.05365842  0.60996493  1
  Cl  Cl460  1  0.75625679  0.39134543  0.61717946  1
  Cl  Cl461  1  0.75370924  0.72151946  0.61915165  1
  Cl  Cl462  1  0.25020323  0.27399975  0.10061478  1
  Cl  Cl463  1  0.25157226  0.60343959  0.10036775  1
  Cl  Cl464  1  0.24439404  0.94652009  0.11833057  1
  Cl  Cl465  1  0.75134835  0.28452696  0.13143578  1
  Cl  Cl466  1  0.74806997  0.61126502  0.11846921  1
  Cl  Cl467  1  0.73646439  0.93974659  0.10312504  1
  Cl  Cl468  1  0.23982799  0.05465363  0.88800382  1
  Cl  Cl469  1  0.25641759  0.38123691  0.87808235  1
  Cl  Cl470  1  0.26013801  0.71654818  0.88633702  1
  Cl  Cl471  1  0.74078896  0.05637964  0.87747508  1
  Cl  Cl472  1  0.75674586  0.38882733  0.88412486  1
  Cl  Cl473  1  0.76604511  0.72764784  0.90111175  1
  Cl  Cl474  1  0.24180714  0.28235780  0.37215877  1
  Cl  Cl475  1  0.24228215  0.61645027  0.37112176  1
  Cl  Cl476  1  0.26098007  0.94397833  0.38078601  1
  Cl  Cl477  1  0.74210798  0.27967198  0.39428385  1
  Cl  Cl478  1  0.73946259  0.61494852  0.38580837  1
  Cl  Cl479  1  0.76249729  0.93660064  0.38380205  1
  Cl  Cl480  1  0.00610719  0.22506801  0.62302820  1
  Cl  Cl481  1  0.01705041  0.55571874  0.61182573  1
  Cl  Cl482  1  -0.01312300  0.88952449  0.60233428  1
  Cl  Cl483  1  0.51354783  0.22696322  0.59894578  1
  Cl  Cl484  1  0.51948461  0.55961488  0.62446648  1
  Cl  Cl485  1  0.49229240  0.87861982  0.62875265  1
  Cl  Cl486  1  0.01018922  0.10802641  0.11117838  1
  Cl  Cl487  1  -0.00718432  0.44684661  0.12151094  1
  Cl  Cl488  1  -0.02068091  0.76782818  0.10029828  1
  Cl  Cl489  1  0.50594774  0.11367864  0.13273635  1
  Cl  Cl490  1  0.49186246  0.44347274  0.11331905  1
  Cl  Cl491  1  0.48621172  0.77558648  0.10699476  1
  Cl  Cl492  1  0.00110937  0.22347199  0.89047078  1
  Cl  Cl493  1  -0.00092464  0.55342953  0.87325571  1
  Cl  Cl494  1  0.00890389  0.88566025  0.87552448  1
  Cl  Cl495  1  0.49478165  0.21938460  0.87533830  1
  Cl  Cl496  1  0.49671179  0.55915601  0.89256423  1
  Cl  Cl497  1  0.51758441  0.89814455  0.90052633  1
  Cl  Cl498  1  -0.00783123  0.11642300  0.38059924  1
  Cl  Cl499  1  -0.00770456  0.43882601  0.38526454  1
  Cl  Cl500  1  -0.00117955  0.77833649  0.37707642  1
  Cl  Cl501  1  0.48830077  0.10788040  0.39666653  1
  Cl  Cl502  1  0.48804706  0.44421679  0.37755219  1
  Cl  Cl503  1  0.49270495  0.77648409  0.38100584  1
  Cl  Cl504  1  0.35612437  0.15025496  0.75587174  1
  Cl  Cl505  1  0.36127191  0.48228796  0.74860183  1
  Cl  Cl506  1  0.36790244  0.81474563  0.76413250  1
  Cl  Cl507  1  0.86292102  0.14665218  0.75212143  1
  Cl  Cl508  1  0.86469416  0.48433523  0.74702245  1
  Cl  Cl509  1  0.85816356  0.81506965  0.75074150  1
  Cl  Cl510  1  0.13533783  0.18460483  0.24621442  1
  Cl  Cl511  1  0.13426916  0.52039821  0.25093002  1
  Cl  Cl512  1  0.12850474  0.85449238  0.24454712  1
  Cl  Cl513  1  0.63449283  0.18576184  0.25613978  1
  Cl  Cl514  1  0.63147694  0.51867616  0.24848896  1
  Cl  Cl515  1  0.63670736  0.85453425  0.25104701  1
  Cl  Cl516  1  0.13745915  0.14463033  0.74203617  1
  Cl  Cl517  1  0.14125320  0.48049619  0.75158080  1
  Cl  Cl518  1  0.14432287  0.81396301  0.75182043  1
  Cl  Cl519  1  0.63959116  0.14717420  0.74362313  1
  Cl  Cl520  1  0.64596224  0.48236207  0.75187244  1
  Cl  Cl521  1  0.63958747  0.81240948  0.75500474  1
  Cl  Cl522  1  0.35813272  0.18579476  0.25033057  1
  Cl  Cl523  1  0.35494080  0.51731753  0.24570389  1
  Cl  Cl524  1  0.35301538  0.84986563  0.24915334  1
  Cl  Cl525  1  0.85550402  0.18417874  0.24822590  1
  Cl  Cl526  1  0.85415039  0.51766110  0.25316271  1
  Cl  Cl527  1  0.85828828  0.85145232  0.24649144  1
  Cl  Cl528  1  0.11505528  0.31163968  0.75075202  1
  Cl  Cl529  1  0.11794145  0.64858596  0.75090371  1
  Cl  Cl530  1  0.11042230  0.97910396  0.74267863  1
  Cl  Cl531  1  0.61086087  0.31248544  0.74798224  1
  Cl  Cl532  1  0.61402291  0.64752052  0.76284854  1
  Cl  Cl533  1  0.61401807  0.98110074  0.74011805  1
  Cl  Cl534  1  0.38781551  0.01731066  0.24533629  1
  Cl  Cl535  1  0.38630601  0.34794212  0.25024640  1
  Cl  Cl536  1  0.39081141  0.68447278  0.25298604  1
  Cl  Cl537  1  0.88682816  0.01658499  0.24440064  1
  Cl  Cl538  1  0.89038231  0.34694050  0.25282168  1
  Cl  Cl539  1  0.88485353  0.68201149  0.24525739  1
  Cl  Cl540  1  0.39259409  0.31527808  0.75255356  1
  Cl  Cl541  1  0.39581597  0.64888355  0.74191937  1
  Cl  Cl542  1  0.39271601  0.98195407  0.75904371  1
  Cl  Cl543  1  0.89533802  0.31627717  0.74760974  1
  Cl  Cl544  1  0.89402784  0.64866518  0.74946094  1
  Cl  Cl545  1  0.88845492  0.97812393  0.75565793  1
  Cl  Cl546  1  0.10877725  0.02017102  0.26256156  1
  Cl  Cl547  1  0.10896446  0.35413762  0.25306478  1
  Cl  Cl548  1  0.10868783  0.68684314  0.23836580  1
  Cl  Cl549  1  0.61232659  0.02092833  0.26124575  1
  Cl  Cl550  1  0.60846241  0.35284113  0.24685706  1
  Cl  Cl551  1  0.61358033  0.69190950  0.23594819  1
