# generated using pymatgen
data_H8PbC4(N3Cl2)2
_symmetry_space_group_name_H-M   'P 1'
_cell_length_a   16.61974342
_cell_length_b   22.49747292
_cell_length_c   21.58676053
_cell_angle_alpha   90.00097336
_cell_angle_beta   90.00376064
_cell_angle_gamma   90.00184495
_symmetry_Int_Tables_number   1
_chemical_formula_structural   H8PbC4(N3Cl2)2
_chemical_formula_sum   'H192 Pb24 C96 N144 Cl96'
_cell_volume   8071.33782034
_cell_formula_units_Z   24
loop_
 _symmetry_equiv_pos_site_id
 _symmetry_equiv_pos_as_xyz
  1  'x, y, z'
loop_
 _atom_site_type_symbol
 _atom_site_label
 _atom_site_symmetry_multiplicity
 _atom_site_fract_x
 _atom_site_fract_y
 _atom_site_fract_z
 _atom_site_occupancy
  H  H0  1  0.00283671  0.03335476  0.68060999  1
  H  H1  1  0.00213732  0.36510176  0.68303252  1
  H  H2  1  0.00198984  0.69923517  0.68198134  1
  H  H3  1  0.50161963  0.03228465  0.68092495  1
  H  H4  1  0.49286937  0.36574979  0.68362370  1
  H  H5  1  0.50192684  0.70026997  0.68229194  1
  H  H6  1  -0.00267183  0.29983254  0.18174186  1
  H  H7  1  0.00204987  0.63214793  0.18169520  1
  H  H8  1  -0.00076948  0.96729043  0.17932788  1
  H  H9  1  0.50175145  0.30060521  0.17943526  1
  H  H10  1  0.49922369  0.63382399  0.18344140  1
  H  H11  1  0.50496119  0.96716475  0.18119542  1
  H  H12  1  0.00116846  0.03303648  0.81771764  1
  H  H13  1  -0.00562079  0.36629856  0.81765858  1
  H  H14  1  -0.00296322  0.70007946  0.81859894  1
  H  H15  1  0.49368640  0.03294351  0.82062848  1
  H  H16  1  0.50542491  0.36674334  0.82115085  1
  H  H17  1  0.49614716  0.69899901  0.81791019  1
  H  H18  1  0.00616688  0.29913260  0.32004785  1
  H  H19  1  -0.00517188  0.63397984  0.31711513  1
  H  H20  1  -0.00357783  0.96709069  0.31955220  1
  H  H21  1  0.50113191  0.29966148  0.31762699  1
  H  H22  1  0.50596195  0.63447651  0.31869026  1
  H  H23  1  0.50147998  0.96516690  0.32133701  1
  H  H24  1  0.24608368  0.19957471  0.68110250  1
  H  H25  1  0.25139910  0.53317118  0.68203472  1
  H  H26  1  0.25137188  0.86663166  0.68138950  1
  H  H27  1  0.75001174  0.19948950  0.67973899  1
  H  H28  1  0.74765872  0.53417057  0.68316564  1
  H  H29  1  0.75217729  0.86608848  0.68165926  1
  H  H30  1  0.24943796  0.13181370  0.17874010  1
  H  H31  1  0.24860542  0.46706821  0.17945236  1
  H  H32  1  0.25367835  0.80061968  0.18232930  1
  H  H33  1  0.74759690  0.13303329  0.18112041  1
  H  H34  1  0.75243432  0.46716507  0.18250836  1
  H  H35  1  0.75211729  0.80050197  0.18204911  1
  H  H36  1  0.24713425  0.19921176  0.82090425  1
  H  H37  1  0.24695690  0.53291234  0.81797125  1
  H  H38  1  0.25219686  0.86726302  0.81876187  1
  H  H39  1  0.75588954  0.19947851  0.81894942  1
  H  H40  1  0.75300214  0.53358762  0.81882293  1
  H  H41  1  0.74383191  0.86730132  0.81990660  1
  H  H42  1  0.24881604  0.13309610  0.31910741  1
  H  H43  1  0.24708219  0.46643470  0.31685852  1
  H  H44  1  0.24589223  0.80098130  0.31807041  1
  H  H45  1  0.75106259  0.13389590  0.31800601  1
  H  H46  1  0.75429510  0.46742058  0.31758566  1
  H  H47  1  0.75543158  0.79950677  0.32059015  1
  H  H48  1  0.12275198  0.05614336  0.60447094  1
  H  H49  1  0.12566675  0.38585974  0.61152485  1
  H  H50  1  0.12034872  0.72124397  0.60583261  1
  H  H51  1  0.62505171  0.05427212  0.60739701  1
  H  H52  1  0.62759829  0.38493372  0.62043424  1
  H  H53  1  0.62313949  0.72065289  0.61081579  1
  H  H54  1  0.37538094  0.27846334  0.11144489  1
  H  H55  1  0.37407079  0.61179986  0.11078313  1
  H  H56  1  0.37524559  0.94865944  0.11319708  1
  H  H57  1  0.87977998  0.27655885  0.10383003  1
  H  H58  1  0.87030179  0.61429558  0.11761442  1
  H  H59  1  0.87557896  0.94525232  0.10742945  1
  H  H60  1  0.37718210  0.05653701  0.89772071  1
  H  H61  1  0.37446505  0.38603035  0.88601151  1
  H  H62  1  0.37962395  0.72262149  0.89680856  1
  H  H63  1  0.87597088  0.05315167  0.88879143  1
  H  H64  1  0.87941550  0.39008598  0.89554162  1
  H  H65  1  0.88052206  0.72115053  0.89607496  1
  H  H66  1  0.12222088  0.27651673  0.39776568  1
  H  H67  1  0.12340051  0.61279219  0.38635673  1
  H  H68  1  0.12831875  0.94838277  0.38271462  1
  H  H69  1  0.62353465  0.27961529  0.38853282  1
  H  H70  1  0.61981972  0.61151845  0.39968483  1
  H  H71  1  0.62558534  0.94507162  0.39058639  1
  H  H72  1  0.37316829  0.21897041  0.61494987  1
  H  H73  1  0.37718118  0.55524489  0.61099426  1
  H  H74  1  0.37336879  0.88736503  0.60645319  1
  H  H75  1  0.87611602  0.22017114  0.60998628  1
  H  H76  1  0.87804609  0.55297250  0.61556753  1
  H  H77  1  0.87114182  0.88797376  0.60556772  1
  H  H78  1  0.12575548  0.11283900  0.10876292  1
  H  H79  1  0.12605633  0.44453896  0.10672093  1
  H  H80  1  0.12012759  0.78083515  0.11851212  1
  H  H81  1  0.62252496  0.11231111  0.10892513  1
  H  H82  1  0.62304114  0.44597023  0.11392571  1
  H  H83  1  0.62197145  0.78235174  0.11642395  1
  H  H84  1  0.12522574  0.22083446  0.89396431  1
  H  H85  1  0.12821741  0.55582161  0.89436008  1
  H  H86  1  0.12410709  0.88755847  0.88734355  1
  H  H87  1  0.62112719  0.21821976  0.88010627  1
  H  H88  1  0.62815041  0.55222564  0.88728620  1
  H  H89  1  0.62753878  0.89033245  0.89746315  1
  H  H90  1  0.37531440  0.11224507  0.39035900  1
  H  H91  1  0.37538058  0.44633692  0.38593828  1
  H  H92  1  0.37812176  0.78317653  0.38160140  1
  H  H93  1  0.87486268  0.11293505  0.38968491  1
  H  H94  1  0.87113974  0.44292483  0.39522176  1
  H  H95  1  0.87334733  0.77867150  0.39463343  1
  H  H96  1  0.37392811  0.27984888  0.38628825  1
  H  H97  1  0.37266238  0.61503813  0.38139628  1
  H  H98  1  0.37683396  0.94665329  0.38997778  1
  H  H99  1  0.87388563  0.27987632  0.38446003  1
  H  H100  1  0.87507484  0.61291425  0.39472926  1
  H  H101  1  0.87952701  0.94325062  0.39722373  1
  H  H102  1  0.12560975  0.05463811  0.89054237  1
  H  H103  1  0.12768427  0.38486955  0.88162599  1
  H  H104  1  0.12975448  0.71965250  0.88280131  1
  H  H105  1  0.62576610  0.05168375  0.88566087  1
  H  H106  1  0.62282163  0.39010595  0.89721578  1
  H  H107  1  0.62702019  0.71901894  0.88313783  1
  H  H108  1  0.12896698  0.28051335  0.11838243  1
  H  H109  1  0.11941334  0.61118624  0.10672531  1
  H  H110  1  0.12497481  0.94719174  0.10964483  1
  H  H111  1  0.62441503  0.27801138  0.10622504  1
  H  H112  1  0.62250928  0.61260329  0.10941418  1
  H  H113  1  0.62402783  0.94467415  0.10581101  1
  H  H114  1  0.37629892  0.05312774  0.60983639  1
  H  H115  1  0.37952021  0.38794354  0.60351853  1
  H  H116  1  0.37372609  0.71942850  0.61455663  1
  H  H117  1  0.87404441  0.05430885  0.61441821  1
  H  H118  1  0.87560013  0.38731302  0.61310205  1
  H  H119  1  0.87115370  0.71970669  0.61495474  1
  H  H120  1  0.12631966  0.11326283  0.39335494  1
  H  H121  1  0.12533458  0.44503833  0.38981556  1
  H  H122  1  0.12875123  0.77761173  0.39564077  1
  H  H123  1  0.62569165  0.11264590  0.38929965  1
  H  H124  1  0.62255061  0.44749127  0.38015201  1
  H  H125  1  0.62514544  0.78242245  0.38455796  1
  H  H126  1  0.37419391  0.21984492  0.88973266  1
  H  H127  1  0.37781841  0.55104411  0.88256296  1
  H  H128  1  0.37374742  0.88858257  0.89187995  1
  H  H129  1  0.86781843  0.22388287  0.90122357  1
  H  H130  1  0.87758287  0.55438475  0.89001704  1
  H  H131  1  0.87600619  0.88632045  0.88444015  1
  H  H132  1  0.37458890  0.11293320  0.11051811  1
  H  H133  1  0.37523062  0.44539184  0.11140273  1
  H  H134  1  0.36842939  0.77840743  0.10378571  1
  H  H135  1  0.87132578  0.11211863  0.10888844  1
  H  H136  1  0.87226745  0.44672089  0.10695479  1
  H  H137  1  0.87128495  0.77763108  0.10586039  1
  H  H138  1  0.12401435  0.21991346  0.60812109  1
  H  H139  1  0.12735913  0.55383337  0.61148165  1
  H  H140  1  0.12421896  0.88880261  0.61274993  1
  H  H141  1  0.62667603  0.22156134  0.60864760  1
  H  H142  1  0.62902116  0.55589867  0.60705156  1
  H  H143  1  0.62154574  0.88539222  0.61336625  1
  H  H144  1  0.32563173  0.08438337  0.49476214  1
  H  H145  1  0.81380193  0.75331794  0.00120464  1
  H  H146  1  0.34262640  0.58045191  0.99442982  1
  H  H147  1  0.30619813  0.75113979  -0.00321692  1
  H  H148  1  0.16709603  0.91723725  0.50305461  1
  H  H149  1  0.92495416  0.40447749  0.50493096  1
  H  H150  1  0.94246750  0.41818130  1.00272876  1
  H  H151  1  0.65533609  0.41790753  0.49242421  1
  H  H152  1  0.81194374  0.91240996  0.49640270  1
  H  H153  1  0.79727695  0.24652300  1.00274920  1
  H  H154  1  0.18946758  0.75375443  0.49987274  1
  H  H155  1  0.06073173  0.74672333  0.49700989  1
  H  H156  1  0.17854890  0.42056845  0.50193001  1
  H  H157  1  0.18657707  0.57829495  0.99934832  1
  H  H158  1  0.34823182  0.75446119  0.49378501  1
  H  H159  1  0.44501906  0.74808257  0.99986291  1
  H  H160  1  0.32454697  0.91837482  1.00058565  1
  H  H161  1  0.65824893  0.75346462  0.00494066  1
  H  H162  1  0.06247161  0.58520331  -0.00489159  1
  H  H163  1  0.41091284  0.41560419  0.99283825  1
  H  H164  1  0.67235592  0.08306143  0.00533938  1
  H  H165  1  0.44586546  0.41133542  0.49559315  1
  H  H166  1  0.07442973  0.40907079  0.49862620  1
  H  H167  1  0.09452707  0.74780762  0.99005149  1
  H  H168  1  0.16492020  0.91700295  0.99257598  1
  H  H169  1  0.68784551  0.58447799  0.49912211  1
  H  H170  1  0.81494723  0.42238204  -0.00249720  1
  H  H171  1  0.57622331  0.75077666  0.50024398  1
  H  H172  1  0.83093041  0.24768270  0.50439976  1
  H  H173  1  0.57389709  0.24923173  0.00274879  1
  H  H174  1  0.94022553  0.25222535  -0.00023957  1
  H  H175  1  0.92463505  0.91758281  0.00291588  1
  H  H176  1  0.32963186  0.41587562  0.49146156  1
  H  H177  1  0.93937277  0.74508009  1.00560848  1
  H  H178  1  0.92449614  0.08060012  0.99813576  1
  H  H179  1  0.17269511  0.58204490  0.50125045  1
  H  H180  1  0.33132702  0.58440167  0.50689189  1
  H  H181  1  0.57791100  0.25177112  0.50000773  1
  H  H182  1  0.80839000  0.42777635  0.50124029  1
  H  H183  1  0.33144678  0.24626534  0.99569076  1
  H  H184  1  0.82678907  0.08446881  0.49867176  1
  H  H185  1  0.94246818  0.91720008  0.50108381  1
  H  H186  1  0.67144294  0.58012516  1.00021937  1
  H  H187  1  0.57188713  0.07985985  0.50312289  1
  H  H188  1  0.09657435  0.25083033  0.00616689  1
  H  H189  1  0.17656664  0.41566941  0.00287361  1
  H  H190  1  0.55169960  0.58716144  0.50178193  1
  H  H191  1  0.33533668  0.24768217  0.50178072  1
  Pb  Pb192  1  0.25219772  0.04742497  0.74792051  1
  Pb  Pb193  1  0.25198660  0.38111529  0.74783644  1
  Pb  Pb194  1  0.25070818  0.71636628  0.74786331  1
  Pb  Pb195  1  0.74784728  0.04712157  0.75112906  1
  Pb  Pb196  1  0.75240456  0.38058895  0.75024843  1
  Pb  Pb197  1  0.75248910  0.71597178  0.75486108  1
  Pb  Pb198  1  0.24926979  0.28347492  0.24902251  1
  Pb  Pb199  1  0.24939951  0.61850319  0.24670116  1
  Pb  Pb200  1  0.24901701  0.95340258  0.24660919  1
  Pb  Pb201  1  0.75061443  0.28315377  0.24862313  1
  Pb  Pb202  1  0.74475201  0.61979414  0.25383204  1
  Pb  Pb203  1  0.75107257  0.95276881  0.25102977  1
  Pb  Pb204  1  -0.00025514  0.21219763  0.75442530  1
  Pb  Pb205  1  0.00148807  0.54836243  0.75190311  1
  Pb  Pb206  1  -0.00137707  0.88373699  0.74761705  1
  Pb  Pb207  1  0.49981041  0.21313057  0.75145149  1
  Pb  Pb208  1  0.50382775  0.54805179  0.74515587  1
  Pb  Pb209  1  0.50164102  0.88176923  0.75190325  1
  Pb  Pb210  1  -0.00052388  0.11801359  0.25029164  1
  Pb  Pb211  1  -0.00384210  0.45127740  0.25101892  1
  Pb  Pb212  1  -0.00208897  0.78569319  0.25009630  1
  Pb  Pb213  1  0.50042688  0.11676105  0.25204376  1
  Pb  Pb214  1  0.49874950  0.45050247  0.24764869  1
  Pb  Pb215  1  0.49872568  0.78886931  0.24560355  1
  C  C216  1  0.00012777  0.04787357  0.63297137  1
  C  C217  1  0.00069507  0.37929740  0.63491898  1
  C  C218  1  -0.00239965  0.71375779  0.63422174  1
  C  C219  1  0.50140308  0.04650660  0.63294913  1
  C  C220  1  0.50033587  0.37993190  0.63589251  1
  C  C221  1  0.49990844  0.71358864  0.63413448  1
  C  C222  1  0.00173744  0.28600773  0.13358599  1
  C  C223  1  -0.00251605  0.61908495  0.13356589  1
  C  C224  1  -0.00048981  0.95283284  0.13143179  1
  C  C225  1  0.50105804  0.28575402  0.13169064  1
  C  C226  1  0.49850196  0.61963084  0.13542848  1
  C  C227  1  0.50110733  0.95332873  0.13335395  1
  C  C228  1  0.00102054  0.04733203  0.86565615  1
  C  C229  1  0.00084462  0.38051907  0.86540793  1
  C  C230  1  0.00311669  0.71438007  0.86649321  1
  C  C231  1  0.49918115  0.04719364  0.86823701  1
  C  C232  1  0.50055279  0.38105317  0.86890033  1
  C  C233  1  0.50069033  0.71336791  0.86570187  1
  C  C234  1  0.00043140  0.28519821  0.36773483  1
  C  C235  1  -0.00232457  0.61988579  0.36508699  1
  C  C236  1  0.00110468  0.95301392  0.36741513  1
  C  C237  1  0.50003096  0.28607740  0.36574229  1
  C  C238  1  0.49972888  0.62021060  0.36643483  1
  C  C239  1  0.50132981  0.95210280  0.36961940  1
  C  C240  1  0.24832846  0.21330046  0.63309329  1
  C  C241  1  0.25250877  0.54802345  0.63410757  1
  C  C242  1  0.24966983  0.88091274  0.63345995  1
  C  C243  1  0.75138469  0.21402355  0.63191756  1
  C  C244  1  0.75171803  0.54777243  0.63513382  1
  C  C245  1  0.74813152  0.88000214  0.63362405  1
  C  C246  1  0.24992221  0.11862641  0.13036016  1
  C  C247  1  0.24949543  0.45229524  0.13167786  1
  C  C248  1  0.24695400  0.78621999  0.13460347  1
  C  C249  1  0.74678467  0.11855188  0.13322888  1
  C  C250  1  0.74905654  0.45297691  0.13456000  1
  C  C251  1  0.74867761  0.78658196  0.13389516  1
  C  C252  1  0.24917042  0.21344712  0.86885906  1
  C  C253  1  0.25065699  0.54677488  0.86614115  1
  C  C254  1  0.24956238  0.88147683  0.86688813  1
  C  C255  1  0.74864013  0.21336223  0.86674244  1
  C  C256  1  0.75242050  0.54728353  0.86687101  1
  C  C257  1  0.74946570  0.88132083  0.86755452  1
  C  C258  1  0.25056454  0.11927398  0.36720640  1
  C  C259  1  0.24974933  0.45205650  0.36491076  1
  C  C260  1  0.25065119  0.78671337  0.36605714  1
  C  C261  1  0.75040404  0.11951318  0.36589958  1
  C  C262  1  0.74968744  0.45336920  0.36559900  1
  C  C263  1  0.75129397  0.78640671  0.36868288  1
  C  C264  1  0.30010099  0.57135540  0.95723744  1
  C  C265  1  0.21064593  0.23934571  0.96390742  1
  C  C266  1  0.97245303  0.73756659  0.96279176  1
  C  C267  1  0.05405003  0.92755081  0.45820687  1
  C  C268  1  0.02785632  0.59494516  0.03668324  1
  C  C269  1  0.29484638  0.42588824  0.03864987  1
  C  C270  1  0.04345822  0.92675279  0.03790703  1
  C  C271  1  0.30232516  0.76312376  0.45685081  1
  C  C272  1  0.47082732  0.07529720  0.96283173  1
  C  C273  1  0.78395192  0.76137610  0.46324517  1
  C  C274  1  0.04029521  0.40489961  0.54137192  1
  C  C275  1  0.72228888  0.57258831  0.54020081  1
  C  C276  1  0.70302267  0.76266578  0.45980212  1
  C  C277  1  0.70010455  0.76249374  0.04239176  1
  C  C278  1  0.05277922  0.26102304  0.04305311  1
  C  C279  1  0.46057127  0.92914792  0.46243891  1
  C  C280  1  0.77993529  0.42999223  0.03935126  1
  C  C281  1  0.21052657  0.23859796  0.53872928  1
  C  C282  1  0.77786903  0.90357596  0.53848750  1
  C  C283  1  0.29221470  0.23831953  0.53947201  1
  C  C284  1  0.53737102  0.26148216  0.46119913  1
  C  C285  1  0.47666877  0.40337907  0.53946118  1
  C  C286  1  0.45571752  0.26170851  0.45873607  1
  C  C287  1  0.27272240  0.76123593  0.03892296  1
  C  C288  1  0.95630529  0.07387228  0.54142024  1
  C  C289  1  0.53246154  0.92607102  0.03915006  1
  C  C290  1  0.69825539  0.42743048  0.45561955  1
  C  C291  1  0.71172435  0.57117149  0.96167713  1
  C  C292  1  0.72156361  0.90864243  0.96241015  1
  C  C293  1  0.53347360  0.40923104  0.96441335  1
  C  C294  1  0.21239105  0.42918069  0.45983299  1
  C  C295  1  0.54115809  0.92867178  0.46255945  1
  C  C296  1  0.29132314  0.09515768  0.03785576  1
  C  C297  1  0.97549346  0.40654127  0.96082877  1
  C  C298  1  0.02828247  0.25841970  0.46289069  1
  C  C299  1  0.28652090  0.90719366  0.96125289  1
  C  C300  1  0.45398559  0.73828365  0.54169856  1
  C  C301  1  0.02671934  0.73826138  0.53908193  1
  C  C302  1  0.94639658  0.59624060  0.04215906  1
  C  C303  1  0.79336435  0.57161757  0.96082810  1
  C  C304  1  0.78688657  0.09438497  0.45939409  1
  C  C305  1  0.45584340  0.25795515  0.03902083  1
  C  C306  1  0.21201415  0.57243399  0.54030998  1
  C  C307  1  0.96352150  0.07150595  0.95891372  1
  C  C308  1  0.21072015  0.09524525  0.03726826  1
  C  C309  1  0.20913354  0.90640991  0.54102772  1
  C  C310  1  0.53577421  0.73939434  0.53887897  1
  C  C311  1  0.71092356  0.24081060  0.53769376  1
  N  N312  1  0.52240904  0.59465527  0.46076111  1
  N  N313  1  0.19356567  0.76212652  0.04343644  1
  N  N314  1  0.94763670  0.73876138  0.54226925  1
  N  N315  1  0.45907971  0.59507451  0.04128950  1
  N  N316  1  0.77958847  0.75967752  0.04011178  1
  N  N317  1  0.96488987  0.59457326  0.46053555  1
  N  N318  1  0.03371729  0.07429747  0.53696044  1
  N  N319  1  0.55283634  0.73787317  0.95611820  1
  N  N320  1  0.45488486  0.92725049  0.04028223  1
  N  N321  1  0.53522978  0.25854604  0.03838961  1
  N  N322  1  0.45458090  0.40718080  0.95947165  1
  N  N323  1  0.28844154  0.09703305  0.45934903  1
  N  N324  1  0.70727347  0.09442316  0.45989176  1
  N  N325  1  0.55545437  0.40308244  0.54535869  1
  N  N326  1  0.05469644  0.40421462  0.95651672  1
  N  N327  1  0.45723274  0.07034701  0.53970612  1
  N  N328  1  0.97320950  0.25991316  0.03911375  1
  N  N329  1  0.22274307  0.75984242  0.46043835  1
  N  N330  1  0.44447008  0.59686153  0.45615419  1
  N  N331  1  0.53560308  0.07098136  0.54042847  1
  N  N332  1  0.69869239  0.90352111  0.54132525  1
  N  N333  1  0.71025109  0.09532700  0.04085912  1
  N  N334  1  0.69122612  0.23743833  0.95547918  1
  N  N335  1  0.05177696  0.73741468  0.95697490  1
  N  N336  1  0.29183594  0.57140729  0.54100137  1
  N  N337  1  0.22047111  0.57394978  0.96000891  1
  N  N338  1  0.54849021  0.07368557  0.96025936  1
  N  N339  1  0.95059979  0.26002314  0.46015249  1
  N  N340  1  0.80137209  0.57075322  0.54253926  1
  N  N341  1  0.53587723  0.59506819  0.04077335  1
  N  N342  1  0.70080113  0.42925838  0.04178118  1
  N  N343  1  0.28854678  0.90544545  0.53826157  1
  N  N344  1  0.78876898  0.09490834  0.03926358  1
  N  N345  1  0.04144513  0.59472804  0.45795699  1
  N  N346  1  0.79022327  0.23961585  0.53926936  1
  N  N347  1  0.76908856  0.23986796  0.96102721  1
  N  N348  1  0.97490160  0.92596795  0.46181720  1
  N  N349  1  0.20677245  0.90574885  0.95887990  1
  N  N350  1  0.96067139  0.40733980  0.54336204  1
  N  N351  1  0.28975087  0.23897713  0.96105660  1
  N  N352  1  0.79926463  0.90673034  0.95977260  1
  N  N353  1  0.77790173  0.42564823  0.45998818  1
  N  N354  1  0.04286672  0.07238604  0.95982786  1
  N  N355  1  0.29176612  0.43120517  0.45779296  1
  N  N356  1  0.21542014  0.42599486  0.03818868  1
  N  N357  1  0.47498206  0.73940216  0.95941028  1
  N  N358  1  0.96400603  0.92623101  0.03831877  1
  N  N359  1  0.21035521  0.09613497  0.46156085  1
  N  N360  1  0.06126639  0.05795263  0.59530698  1
  N  N361  1  0.06560793  0.38927074  0.59849724  1
  N  N362  1  0.05917601  0.72361527  0.59535380  1
  N  N363  1  0.56399016  0.05618782  0.59656743  1
  N  N364  1  0.56848550  0.38841232  0.60560425  1
  N  N365  1  0.56301817  0.72362612  0.59754245  1
  N  N366  1  0.43486966  0.27474444  0.09668935  1
  N  N367  1  0.43482352  0.61032169  0.09980994  1
  N  N368  1  0.43530247  0.94470473  0.10037532  1
  N  N369  1  0.94168301  0.27689946  0.09450320  1
  N  N370  1  0.92875536  0.61065104  0.10079736  1
  N  N371  1  0.93640233  0.94249995  0.09601613  1
  N  N372  1  0.43826823  0.05928215  0.90772687  1
  N  N373  1  0.43382248  0.38974950  0.90058230  1
  N  N374  1  0.44144174  0.72341972  0.90512625  1
  N  N375  1  0.93621606  0.05650437  0.90136648  1
  N  N376  1  0.94097108  0.39189470  0.90536559  1
  N  N377  1  0.94187295  0.72335681  0.90660032  1
  N  N378  1  0.06112670  0.27396500  0.40771100  1
  N  N379  1  0.06292814  0.61016366  0.39874978  1
  N  N380  1  0.07018665  0.94386361  0.39964389  1
  N  N381  1  0.56368901  0.27682794  0.40202392  1
  N  N382  1  0.55770182  0.61041762  0.40705860  1
  N  N383  1  0.56650801  0.94234550  0.40591594  1
  N  N384  1  0.31440569  0.22270264  0.59948131  1
  N  N385  1  0.31650586  0.55760891  0.59921649  1
  N  N386  1  0.31190555  0.88985071  0.59623922  1
  N  N387  1  0.81568336  0.22306474  0.59740107  1
  N  N388  1  0.81792787  0.55604953  0.60204730  1
  N  N389  1  0.80994207  0.88973901  0.59493494  1
  N  N390  1  0.18496784  0.10939065  0.09371754  1
  N  N391  1  0.18690573  0.44229078  0.09561507  1
  N  N392  1  0.17934880  0.77743642  0.10368665  1
  N  N393  1  0.68340169  0.10841845  0.09784853  1
  N  N394  1  0.68339807  0.44361201  0.10115285  1
  N  N395  1  0.68063476  0.77823754  0.10089618  1
  N  N396  1  0.18518569  0.22381847  0.90659988  1
  N  N397  1  0.18998619  0.55665898  0.90432035  1
  N  N398  1  0.18438054  0.89045983  0.90056099  1
  N  N399  1  0.67947853  0.22258460  0.89611066  1
  N  N400  1  0.68745368  0.55604109  0.90197441  1
  N  N401  1  0.68868797  0.89301715  0.90730372  1
  N  N402  1  0.31468935  0.10971631  0.40202742  1
  N  N403  1  0.31478345  0.44259631  0.39853706  1
  N  N404  1  0.31949126  0.77890920  0.39798913  1
  N  N405  1  0.81453029  0.10954864  0.40202323  1
  N  N406  1  0.80955872  0.44552675  0.40508553  1
  N  N407  1  0.81335797  0.77579152  0.40761100  1
  N  N408  1  0.43350580  0.27649996  0.40104712  1
  N  N409  1  0.43128935  0.61142221  0.39700032  1
  N  N410  1  0.43588715  0.94321416  0.40575377  1
  N  N411  1  0.93336650  0.27666031  0.39918142  1
  N  N412  1  0.93642299  0.61017489  0.40312873  1
  N  N413  1  0.94140204  0.94259694  0.40619543  1
  N  N414  1  0.06447816  0.05742802  0.90141580  1
  N  N415  1  0.06836483  0.38837859  0.89668944  1
  N  N416  1  0.07043661  0.72394925  0.89746035  1
  N  N417  1  0.56612189  0.05583759  0.89981097  1
  N  N418  1  0.56228682  0.39277534  0.90852398  1
  N  N419  1  0.56814130  0.72247589  0.89730369  1
  N  N420  1  0.07048742  0.27672433  0.10189126  1
  N  N421  1  0.05884769  0.60931914  0.09487334  1
  N  N422  1  0.06532779  0.94308982  0.09556178  1
  N  N423  1  0.56367618  0.27613309  0.09551111  1
  N  N424  1  0.56133159  0.61011244  0.09894202  1
  N  N425  1  0.56333748  0.94181697  0.09495521  1
  N  N426  1  0.43680847  0.05546869  0.59769263  1
  N  N427  1  0.44120604  0.38975614  0.59478781  1
  N  N428  1  0.43288029  0.72261752  0.59950680  1
  N  N429  1  0.93305901  0.05779745  0.59937522  1
  N  N430  1  0.93638081  0.38799767  0.60032076  1
  N  N431  1  0.93132104  0.72345715  0.60158520  1
  N  N432  1  0.18726520  0.11083012  0.40413459  1
  N  N433  1  0.18563105  0.44321695  0.40255749  1
  N  N434  1  0.19077149  0.77567350  0.40470432  1
  N  N435  1  0.68646987  0.11011972  0.40108866  1
  N  N436  1  0.68081167  0.44288226  0.39681580  1
  N  N437  1  0.68349027  0.77796647  0.40176260  1
  N  N438  1  0.31395898  0.22260876  0.90272706  1
  N  N439  1  0.31893496  0.55563513  0.89864120  1
  N  N440  1  0.31321164  0.89166614  0.90424375  1
  N  N441  1  0.80563956  0.22297139  0.90815772  1
  N  N442  1  0.81761987  0.55728266  0.90350596  1
  N  N443  1  0.81654361  0.88962925  0.89911500  1
  N  N444  1  0.31560931  0.10927211  0.09472375  1
  N  N445  1  0.31577418  0.44212078  0.09656489  1
  N  N446  1  0.30679405  0.77584466  0.09440423  1
  N  N447  1  0.81059492  0.10957990  0.09712106  1
  N  N448  1  0.81134320  0.44393981  0.09613303  1
  N  N449  1  0.80958724  0.77604427  0.09610693  1
  N  N450  1  0.18433272  0.22345194  0.59526061  1
  N  N451  1  0.18749494  0.55745208  0.59797378  1
  N  N452  1  0.18392828  0.89114576  0.59917336  1
  N  N453  1  0.68680570  0.22492102  0.59500515  1
  N  N454  1  0.69005230  0.55806111  0.59651624  1
  N  N455  1  0.68201069  0.88870790  0.60051559  1
  Cl  Cl456  1  0.25176472  0.05545637  0.61280268  1
  Cl  Cl457  1  0.25368511  0.38935555  0.60940090  1
  Cl  Cl458  1  0.24436053  0.72178909  0.60889836  1
  Cl  Cl459  1  0.74833787  0.05418013  0.61741268  1
  Cl  Cl460  1  0.75530176  0.38819413  0.60713410  1
  Cl  Cl461  1  0.74737065  0.71698561  0.62445556  1
  Cl  Cl462  1  0.25406876  0.28074088  0.11324314  1
  Cl  Cl463  1  0.24791073  0.60873434  0.10833272  1
  Cl  Cl464  1  0.24858776  0.94622136  0.11075682  1
  Cl  Cl465  1  0.75616051  0.27511674  0.10613319  1
  Cl  Cl466  1  0.74484314  0.61601770  0.11992222  1
  Cl  Cl467  1  0.75096545  0.94747838  0.11809909  1
  Cl  Cl468  1  0.25100223  0.05107740  0.87982397  1
  Cl  Cl469  1  0.25117489  0.38553920  0.88415994  1
  Cl  Cl470  1  0.25726106  0.71992605  0.88521164  1
  Cl  Cl471  1  0.75022686  0.05277787  0.88494344  1
  Cl  Cl472  1  0.75420438  0.38680024  0.88341162  1
  Cl  Cl473  1  0.75660198  0.72341240  0.89337115  1
  Cl  Cl474  1  0.24854997  0.28264405  0.38145103  1
  Cl  Cl475  1  0.24787880  0.61254362  0.38686449  1
  Cl  Cl476  1  0.25077150  0.94812304  0.37791142  1
  Cl  Cl477  1  0.75028235  0.28022537  0.38271576  1
  Cl  Cl478  1  0.74351600  0.61303166  0.38897947  1
  Cl  Cl479  1  0.75759778  0.94506146  0.38525380  1
  Cl  Cl480  1  -0.00109393  0.21818582  0.62234744  1
  Cl  Cl481  1  0.00357024  0.54844559  0.62187093  1
  Cl  Cl482  1  -0.00487500  0.89014001  0.61096739  1
  Cl  Cl483  1  0.50321518  0.21798647  0.62034808  1
  Cl  Cl484  1  0.50340789  0.55674113  0.60653812  1
  Cl  Cl485  1  0.49701119  0.88454609  0.61957019  1
  Cl  Cl486  1  -0.00503575  0.11521309  0.11652297  1
  Cl  Cl487  1  -0.00175803  0.44611377  0.11638894  1
  Cl  Cl488  1  -0.00629006  0.77936528  0.10997468  1
  Cl  Cl489  1  0.50133431  0.11758856  0.12010501  1
  Cl  Cl490  1  0.49784830  0.44363271  0.11438683  1
  Cl  Cl491  1  0.49159498  0.77857081  0.10843718  1
  Cl  Cl492  1  -0.00838165  0.22520615  0.89646189  1
  Cl  Cl493  1  0.00518752  0.55395120  0.88675479  1
  Cl  Cl494  1  0.00049883  0.88629808  0.88457676  1
  Cl  Cl495  1  0.49748095  0.22127631  0.88793932  1
  Cl  Cl496  1  0.50104243  0.54801349  0.87573901  1
  Cl  Cl497  1  0.50040147  0.88459544  0.88378246  1
  Cl  Cl498  1  0.00149290  0.11543560  0.38157787  1
  Cl  Cl499  1  -0.00444001  0.44005668  0.39217972  1
  Cl  Cl500  1  0.00593927  0.78274234  0.38391014  1
  Cl  Cl501  1  0.50007768  0.11204098  0.38793781  1
  Cl  Cl502  1  0.49621311  0.44739662  0.38385486  1
  Cl  Cl503  1  0.50122157  0.78191154  0.37732915  1
  Cl  Cl504  1  0.36293424  0.14343686  0.74944273  1
  Cl  Cl505  1  0.35959611  0.47554541  0.75003082  1
  Cl  Cl506  1  0.35995806  0.80850051  0.74956256  1
  Cl  Cl507  1  0.86338271  0.14375953  0.74945208  1
  Cl  Cl508  1  0.86241194  0.47573243  0.74829433  1
  Cl  Cl509  1  0.86255544  0.80818249  0.75274890  1
  Cl  Cl510  1  0.13887770  0.19112572  0.24789138  1
  Cl  Cl511  1  0.14049412  0.52396530  0.25048649  1
  Cl  Cl512  1  0.13715715  0.85762839  0.24764734  1
  Cl  Cl513  1  0.63930763  0.19162858  0.25045465  1
  Cl  Cl514  1  0.63779880  0.52364724  0.25098582  1
  Cl  Cl515  1  0.63671158  0.85568068  0.24906704  1
  Cl  Cl516  1  0.13576699  0.14390649  0.75114364  1
  Cl  Cl517  1  0.13893500  0.47533748  0.75017166  1
  Cl  Cl518  1  0.13943467  0.80827001  0.75295825  1
  Cl  Cl519  1  0.63830844  0.14358917  0.75236588  1
  Cl  Cl520  1  0.63686120  0.47544519  0.74866369  1
  Cl  Cl521  1  0.63794252  0.80862183  0.75061005  1
  Cl  Cl522  1  0.36093913  0.19180687  0.25025660  1
  Cl  Cl523  1  0.36104139  0.52422228  0.25143583  1
  Cl  Cl524  1  0.36078538  0.85633887  0.25034608  1
  Cl  Cl525  1  0.86091016  0.19171793  0.24829578  1
  Cl  Cl526  1  0.86343169  0.52332086  0.25005431  1
  Cl  Cl527  1  0.86428686  0.85672603  0.24959670  1
  Cl  Cl528  1  0.11268794  0.31007410  0.75198678  1
  Cl  Cl529  1  0.11284237  0.64195519  0.75255870  1
  Cl  Cl530  1  0.11236785  0.97511784  0.75039573  1
  Cl  Cl531  1  0.61364319  0.30960199  0.75008365  1
  Cl  Cl532  1  0.61013048  0.64186212  0.75265427  1
  Cl  Cl533  1  0.61271378  0.97586406  0.75077121  1
  Cl  Cl534  1  0.38842267  0.02394066  0.24958684  1
  Cl  Cl535  1  0.38786120  0.35789698  0.25021493  1
  Cl  Cl536  1  0.38581857  0.68928999  0.25220664  1
  Cl  Cl537  1  0.88756543  0.02439154  0.24884950  1
  Cl  Cl538  1  0.88876723  0.35814841  0.25175810  1
  Cl  Cl539  1  0.88904392  0.69135967  0.24664758  1
  Cl  Cl540  1  0.38804634  0.31012971  0.75289855  1
  Cl  Cl541  1  0.38640559  0.64241781  0.74752625  1
  Cl  Cl542  1  0.38651278  0.97645888  0.74896582  1
  Cl  Cl543  1  0.88673292  0.31027062  0.74833052  1
  Cl  Cl544  1  0.88910925  0.64177087  0.74984763  1
  Cl  Cl545  1  0.88875537  0.97497730  0.75035591  1
  Cl  Cl546  1  0.11151801  0.02328997  0.25008488  1
  Cl  Cl547  1  0.11312777  0.35740832  0.24882376  1
  Cl  Cl548  1  0.11425596  0.69071705  0.24968661  1
  Cl  Cl549  1  0.61270237  0.02495483  0.25168927  1
  Cl  Cl550  1  0.61140552  0.35856163  0.24877285  1
  Cl  Cl551  1  0.61178415  0.69030906  0.24922658  1
