# generated using pymatgen
data_H8PbC4(N3Cl2)2
_symmetry_space_group_name_H-M   'P 1'
_cell_length_a   16.62498085
_cell_length_b   22.51436950
_cell_length_c   21.59369505
_cell_angle_alpha   89.99943096
_cell_angle_beta   89.98757619
_cell_angle_gamma   90.00877092
_symmetry_Int_Tables_number   1
_chemical_formula_structural   H8PbC4(N3Cl2)2
_chemical_formula_sum   'H192 Pb24 C96 N144 Cl96'
_cell_volume   8082.54053967
_cell_formula_units_Z   24
loop_
 _symmetry_equiv_pos_site_id
 _symmetry_equiv_pos_as_xyz
  1  'x, y, z'
loop_
 _atom_site_type_symbol
 _atom_site_label
 _atom_site_symmetry_multiplicity
 _atom_site_fract_x
 _atom_site_fract_y
 _atom_site_fract_z
 _atom_site_occupancy
  H  H0  1  0.01400678  0.02895520  0.67749160  1
  H  H1  1  -0.01088869  0.36577247  0.67638886  1
  H  H2  1  -0.00361779  0.69362071  0.67964687  1
  H  H3  1  0.48579368  0.02919019  0.68249426  1
  H  H4  1  0.49517419  0.35953137  0.67724364  1
  H  H5  1  0.49592881  0.69888959  0.68066647  1
  H  H6  1  0.01207839  0.30342646  0.17762360  1
  H  H7  1  -0.01099446  0.64204912  0.17822482  1
  H  H8  1  -0.01043720  0.96652194  0.17857729  1
  H  H9  1  0.48832275  0.30298124  0.18009547  1
  H  H10  1  0.49614486  0.63813894  0.17979039  1
  H  H11  1  0.50565793  0.96826302  0.17993035  1
  H  H12  1  -0.01315374  0.02968992  0.82068831  1
  H  H13  1  0.01929924  0.36660970  0.82281846  1
  H  H14  1  0.00327495  0.69621985  0.82328490  1
  H  H15  1  0.51172565  0.03145336  0.82454245  1
  H  H16  1  0.48041464  0.36581035  0.82312989  1
  H  H17  1  0.49896918  0.69601815  0.82093575  1
  H  H18  1  0.00778601  0.30465942  0.32459982  1
  H  H19  1  -0.00168021  0.63451943  0.32117859  1
  H  H20  1  -0.00178976  0.96869597  0.32311793  1
  H  H21  1  0.50050906  0.30461298  0.32053933  1
  H  H22  1  0.50359335  0.63814192  0.32403827  1
  H  H23  1  0.51108068  0.96986742  0.31802593  1
  H  H24  1  0.24385908  0.20692374  0.68026100  1
  H  H25  1  0.25284113  0.52785245  0.67684646  1
  H  H26  1  0.24631632  0.86553256  0.67648757  1
  H  H27  1  0.74997176  0.19402173  0.67671317  1
  H  H28  1  0.75629114  0.52901666  0.67994067  1
  H  H29  1  0.74356609  0.86276646  0.67570175  1
  H  H30  1  0.24542721  0.13708035  0.17514165  1
  H  H31  1  0.25061132  0.46841738  0.18472188  1
  H  H32  1  0.25424082  0.80589890  0.17661070  1
  H  H33  1  0.75549260  0.13835295  0.17858335  1
  H  H34  1  0.74985674  0.46953402  0.17129648  1
  H  H35  1  0.74729302  0.80521760  0.17793688  1
  H  H36  1  0.24007186  0.19334238  0.82356073  1
  H  H37  1  0.24316031  0.53004839  0.81940715  1
  H  H38  1  0.25874811  0.86351083  0.82186620  1
  H  H39  1  0.75329758  0.19688165  0.82170287  1
  H  H40  1  0.75342393  0.52828103  0.81914197  1
  H  H41  1  0.74167746  0.86157259  0.81936975  1
  H  H42  1  0.25186434  0.13410603  0.31655295  1
  H  H43  1  0.25405533  0.47103422  0.32635275  1
  H  H44  1  0.25600884  0.80199981  0.31735319  1
  H  H45  1  0.75758622  0.13887902  0.32044109  1
  H  H46  1  0.74897830  0.47103702  0.32035049  1
  H  H47  1  0.75708095  0.80217224  0.31977211  1
  H  H48  1  0.11674157  0.05873842  0.59050031  1
  H  H49  1  0.12886439  0.38493766  0.62157406  1
  H  H50  1  0.13057109  0.71908431  0.62167757  1
  H  H51  1  0.62440698  0.04785853  0.63008470  1
  H  H52  1  0.62806832  0.38339547  0.61512264  1
  H  H53  1  0.63168789  0.71850809  0.62396160  1
  H  H54  1  0.36956702  0.27638927  0.10553918  1
  H  H55  1  0.37911138  0.61270077  0.10388759  1
  H  H56  1  0.37197920  0.94881189  0.11873493  1
  H  H57  1  0.87014866  0.28405268  0.12852860  1
  H  H58  1  0.88314801  0.61168114  0.09440586  1
  H  H59  1  0.87760671  0.94182016  0.09692759  1
  H  H60  1  0.37123855  0.05027064  0.87522375  1
  H  H61  1  0.38868199  0.39301071  0.91360298  1
  H  H62  1  0.38325391  0.72075734  0.89597472  1
  H  H63  1  0.88212366  0.05525340  0.90573910  1
  H  H64  1  0.87244304  0.38018123  0.86404734  1
  H  H65  1  0.87930261  0.72281989  0.89203399  1
  H  H66  1  0.10854196  0.27451655  0.41120397  1
  H  H67  1  0.13264712  0.61264985  0.38044752  1
  H  H68  1  0.11516795  0.94757409  0.40141444  1
  H  H69  1  0.61282803  0.27623601  0.40112300  1
  H  H70  1  0.63146171  0.61249440  0.39084723  1
  H  H71  1  0.62088343  0.94150374  0.40040598  1
  H  H72  1  0.38339075  0.22036108  0.62295886  1
  H  H73  1  0.36758770  0.55420244  0.59918192  1
  H  H74  1  0.38278570  0.88367550  0.62164799  1
  H  H75  1  0.88234870  0.21942375  0.61385040  1
  H  H76  1  0.87043691  0.55460678  0.60196755  1
  H  H77  1  0.88213471  0.88447485  0.62291722  1
  H  H78  1  0.12738475  0.10877933  0.10073915  1
  H  H79  1  0.12528992  0.44769236  0.11570458  1
  H  H80  1  0.11986479  0.78013753  0.11864320  1
  H  H81  1  0.62188130  0.11290730  0.11985152  1
  H  H82  1  0.62572697  0.44052808  0.10207197  1
  H  H83  1  0.62332820  0.77932403  0.10670885  1
  H  H84  1  0.13661594  0.22658103  0.90773850  1
  H  H85  1  0.12178052  0.55677929  0.89251957  1
  H  H86  1  0.12453209  0.88277287  0.88277246  1
  H  H87  1  0.62843428  0.22130529  0.89202522  1
  H  H88  1  0.61937330  0.55084403  0.87747268  1
  H  H89  1  0.62890526  0.88680763  0.89941485  1
  H  H90  1  0.37693053  0.11498264  0.38728861  1
  H  H91  1  0.36847329  0.44187241  0.40248742  1
  H  H92  1  0.36653465  0.77787416  0.39842745  1
  H  H93  1  0.87516005  0.10941520  0.39720460  1
  H  H94  1  0.87093314  0.44512204  0.39346474  1
  H  H95  1  0.86178290  0.77682272  0.40360914  1
  H  H96  1  0.36580205  0.28408929  0.38328614  1
  H  H97  1  0.38259449  0.60927797  0.39471809  1
  H  H98  1  0.37441343  0.95115228  0.37950490  1
  H  H99  1  0.86503947  0.28443603  0.37268021  1
  H  H100  1  0.88569935  0.60872314  0.40141477  1
  H  H101  1  0.86724691  0.94362335  0.38596638  1
  H  H102  1  0.12745446  0.05261256  0.87216727  1
  H  H103  1  0.11162711  0.39262729  0.91334938  1
  H  H104  1  0.12805625  0.72242242  0.89372627  1
  H  H105  1  0.61435900  0.05871986  0.91225424  1
  H  H106  1  0.62738697  0.38171108  0.86270685  1
  H  H107  1  0.63198077  0.71710972  0.88256124  1
  H  H108  1  0.11363655  0.27282332  0.09134383  1
  H  H109  1  0.12763137  0.61805267  0.12425757  1
  H  H110  1  0.12459750  0.94587390  0.11955000  1
  H  H111  1  0.61797731  0.27956390  0.11367225  1
  H  H112  1  0.62748188  0.61597116  0.11491336  1
  H  H113  1  0.62051153  0.94624991  0.10325321  1
  H  H114  1  0.37881772  0.05310014  0.59907934  1
  H  H115  1  0.38003858  0.39084078  0.60244197  1
  H  H116  1  0.38448704  0.72283719  0.60187246  1
  H  H117  1  0.87302960  0.05072502  0.62639764  1
  H  H118  1  0.88300542  0.39361428  0.59281302  1
  H  H119  1  0.88244294  0.72190368  0.60086952  1
  H  H120  1  0.12713943  0.11165001  0.38784894  1
  H  H121  1  0.12052627  0.44662484  0.38674626  1
  H  H122  1  0.11937465  0.78214117  0.37758842  1
  H  H123  1  0.62722592  0.11410418  0.38670819  1
  H  H124  1  0.62168707  0.44730539  0.38849263  1
  H  H125  1  0.61610488  0.78512751  0.37165987  1
  H  H126  1  0.38071440  0.21620971  0.87303864  1
  H  H127  1  0.37099322  0.55372563  0.88782612  1
  H  H128  1  0.37228322  0.89076686  0.90180866  1
  H  H129  1  0.87795049  0.22230605  0.89053421  1
  H  H130  1  0.86763150  0.55655578  0.89523788  1
  H  H131  1  0.87700918  0.88311433  0.88046297  1
  H  H132  1  0.37467106  0.11073514  0.11033934  1
  H  H133  1  0.37492816  0.44900379  0.11452423  1
  H  H134  1  0.36767084  0.77793690  0.09798442  1
  H  H135  1  0.86952619  0.10899967  0.10058891  1
  H  H136  1  0.87364085  0.44835624  0.09928138  1
  H  H137  1  0.87229927  0.77948024  0.10951479  1
  H  H138  1  0.13782954  0.22781490  0.59452711  1
  H  H139  1  0.11886259  0.55188542  0.61637839  1
  H  H140  1  0.13632892  0.89139679  0.59589233  1
  H  H141  1  0.63486959  0.22297253  0.59893058  1
  H  H142  1  0.62233876  0.55073536  0.61761371  1
  H  H143  1  0.63735291  0.89280311  0.59236012  1
  H  H144  1  0.30042437  0.74953799  -0.00401328  1
  H  H145  1  0.95523082  0.08119420  1.00953871  1
  H  H146  1  0.83131896  0.41333990  -0.00351539  1
  H  H147  1  0.64708699  0.58261371  0.98976650  1
  H  H148  1  0.36063650  0.91431004  0.50663567  1
  H  H149  1  0.78858198  0.74957257  0.50882551  1
  H  H150  1  0.29781931  0.75262500  0.50482639  1
  H  H151  1  0.56101626  0.91925865  -0.00683577  1
  H  H152  1  0.94756318  0.74430658  0.49780250  1
  H  H153  1  0.36100373  0.24396468  0.51268002  1
  H  H154  1  0.80751626  0.58683437  1.00291266  1
  H  H155  1  0.33809705  0.08131692  0.00440593  1
  H  H156  1  0.61100285  0.74960568  0.50921494  1
  H  H157  1  0.66650282  0.41477164  0.49662997  1
  H  H158  1  0.02768131  0.24868749  0.50931630  1
  H  H159  1  0.80715964  0.58389992  0.49594007  1
  H  H160  1  0.44139345  0.75088889  1.00554400  1
  H  H161  1  0.69621949  0.91432499  1.00512246  1
  H  H162  1  0.80240933  0.07985887  -0.00152187  1
  H  H163  1  0.44876242  0.07610804  0.49253383  1
  H  H164  1  0.16953101  0.42209095  0.00330404  1
  H  H165  1  0.84748457  0.24757142  0.50568360  1
  H  H166  1  0.58823370  0.58185408  0.49577093  1
  H  H167  1  0.21513351  0.26042611  0.49814550  1
  H  H168  1  0.10822037  0.07545918  0.98238057  1
  H  H169  1  0.15412393  0.41611792  0.49418645  1
  H  H170  1  0.42323774  0.24960402  -0.00228158  1
  H  H171  1  0.89980518  0.92350906  0.49537596  1
  H  H172  1  0.30800916  0.58542571  0.49355529  1
  H  H173  1  0.32941473  0.42532316  0.00198525  1
  H  H174  1  0.02598624  0.41695448  1.01374717  1
  H  H175  1  0.15554894  0.91376783  0.99471193  1
  H  H176  1  0.60753148  0.07725510  0.51572967  1
  H  H177  1  0.83583020  0.25167679  1.00037997  1
  H  H178  1  0.10163553  0.75159618  0.51003482  1
  H  H179  1  0.03440717  0.08372100  0.49329959  1
  H  H180  1  0.21495513  0.25082104  1.00674287  1
  H  H181  1  0.05171058  0.90603751  0.49681889  1
  H  H182  1  0.66790042  0.41555833  -0.00417341  1
  H  H183  1  0.67577824  0.24936967  0.99659364  1
  H  H184  1  0.96112421  0.58626608  -0.00485888  1
  H  H185  1  0.32997303  0.09383883  0.49991198  1
  H  H186  1  0.47513733  0.42112855  1.01266859  1
  H  H187  1  0.03318263  0.25085688  -0.00772279  1
  H  H188  1  0.17876497  0.07436802  0.48980823  1
  H  H189  1  0.44855651  0.75303877  0.49458920  1
  H  H190  1  0.14798446  0.58003498  0.50816271  1
  H  H191  1  0.17525327  0.58606774  0.99956592  1
  Pb  Pb192  1  0.25204981  0.04833217  0.73666981  1
  Pb  Pb193  1  0.25411188  0.37980356  0.75962039  1
  Pb  Pb194  1  0.25013404  0.71705227  0.75333903  1
  Pb  Pb195  1  0.75418719  0.04661153  0.76595064  1
  Pb  Pb196  1  0.74843397  0.38277726  0.74210942  1
  Pb  Pb197  1  0.75594518  0.71345942  0.74818946  1
  Pb  Pb198  1  0.24192088  0.28436527  0.24950769  1
  Pb  Pb199  1  0.24983624  0.61945801  0.25189911  1
  Pb  Pb200  1  0.24535027  0.95310484  0.25540770  1
  Pb  Pb201  1  0.74276740  0.28689233  0.24879247  1
  Pb  Pb202  1  0.74958407  0.61976041  0.24915398  1
  Pb  Pb203  1  0.74333248  0.95206852  0.24699865  1
  Pb  Pb204  1  0.00251869  0.21735564  0.75257353  1
  Pb  Pb205  1  0.00296962  0.54618530  0.75595126  1
  Pb  Pb206  1  0.00384480  0.88079681  0.74120235  1
  Pb  Pb207  1  0.50658040  0.21150615  0.74903924  1
  Pb  Pb208  1  0.49592949  0.54952161  0.74333762  1
  Pb  Pb209  1  0.50483533  0.88155369  0.75376525  1
  Pb  Pb210  1  -0.00792559  0.11761448  0.24895602  1
  Pb  Pb211  1  -0.00511015  0.45308608  0.25156121  1
  Pb  Pb212  1  -0.00457706  0.78562824  0.25886018  1
  Pb  Pb213  1  0.49648620  0.12029550  0.25230875  1
  Pb  Pb214  1  0.49738178  0.45379660  0.25269735  1
  Pb  Pb215  1  0.49440121  0.78580833  0.24596419  1
  C  C216  1  0.00170689  0.04501722  0.63107801  1
  C  C217  1  0.00071148  0.38112164  0.62984689  1
  C  C218  1  0.00298317  0.71021008  0.63257224  1
  C  C219  1  0.49677045  0.04362290  0.63521008  1
  C  C220  1  0.50142018  0.37732309  0.63105862  1
  C  C221  1  0.50462621  0.71317446  0.63301174  1
  C  C222  1  -0.00125662  0.28838384  0.13099085  1
  C  C223  1  -0.00033054  0.62484660  0.13203091  1
  C  C224  1  -0.00295639  0.95190228  0.13123099  1
  C  C225  1  0.49211089  0.28663778  0.13294677  1
  C  C226  1  0.50133028  0.62256771  0.13264907  1
  C  C227  1  0.49954298  0.95449569  0.13215535  1
  C  C228  1  -0.00041408  0.04506371  0.86742783  1
  C  C229  1  0.00082217  0.37944831  0.86919271  1
  C  C230  1  0.00391871  0.71325546  0.87006645  1
  C  C231  1  0.49935601  0.04616697  0.87128844  1
  C  C232  1  0.49911737  0.38040894  0.86881785  1
  C  C233  1  0.50452522  0.71089352  0.86840995  1
  C  C234  1  -0.00608451  0.28861493  0.37080606  1
  C  C235  1  0.00549233  0.61923934  0.36834119  1
  C  C236  1  -0.00645816  0.95324905  0.37076240  1
  C  C237  1  0.49290792  0.28927075  0.36792551  1
  C  C238  1  0.50640541  0.62087831  0.37080352  1
  C  C239  1  0.50203268  0.95459043  0.36515794  1
  C  C240  1  0.25538945  0.21842101  0.63210086  1
  C  C241  1  0.24583149  0.54457116  0.62986923  1
  C  C242  1  0.25600042  0.88017542  0.62935122  1
  C  C243  1  0.75634899  0.21096211  0.62998012  1
  C  C244  1  0.74940633  0.54466028  0.63268183  1
  C  C245  1  0.75439763  0.87956162  0.62952617  1
  C  C246  1  0.24928270  0.11925066  0.12848172  1
  C  C247  1  0.25019894  0.45430721  0.13662399  1
  C  C248  1  0.24752397  0.78907125  0.12996448  1
  C  C249  1  0.74930132  0.12141063  0.13201202  1
  C  C250  1  0.74959746  0.45288843  0.12395049  1
  C  C251  1  0.74731614  0.78835385  0.13108787  1
  C  C252  1  0.25229724  0.21063102  0.86950384  1
  C  C253  1  0.24531009  0.54620476  0.86674260  1
  C  C254  1  0.25193272  0.87907332  0.86907057  1
  C  C255  1  0.75296869  0.21319150  0.86912165  1
  C  C256  1  0.74656742  0.54498908  0.86604027  1
  C  C257  1  0.74933667  0.87724698  0.86653550  1
  C  C258  1  0.25152226  0.11971984  0.36463527  1
  C  C259  1  0.24718497  0.45369987  0.37287669  1
  C  C260  1  0.24675874  0.78781941  0.36492424  1
  C  C261  1  0.75354292  0.12191752  0.36737153  1
  C  C262  1  0.74715286  0.45461180  0.36754016  1
  C  C263  1  0.74497221  0.78816329  0.36695307  1
  C  C264  1  0.46841808  0.58829838  0.46370749  1
  C  C265  1  0.92596558  0.26045937  0.45401856  1
  C  C266  1  0.81257699  0.91015908  0.54450945  1
  C  C267  1  0.04957142  0.92482219  0.04252436  1
  C  C268  1  0.69413460  0.08844532  0.04478437  1
  C  C269  1  0.43715855  0.07067808  0.95716266  1
  C  C270  1  0.55869483  0.06798100  0.54807578  1
  C  C271  1  0.70716445  0.42561595  0.45876588  1
  C  C272  1  0.29072302  0.43249111  0.04180660  1
  C  C273  1  0.48041361  0.74108892  0.53675270  1
  C  C274  1  0.29283455  0.09838831  0.45875628  1
  C  C275  1  0.93103428  0.26180488  0.04705003  1
  C  C276  1  0.47208926  0.59226462  0.03893162  1
  C  C277  1  0.27395135  0.57395812  0.53505746  1
  C  C278  1  0.98408999  0.41175181  0.53434555  1
  C  C279  1  0.77425553  0.57447790  0.96148037  1
  C  C280  1  0.79454413  0.24172054  0.96152171  1
  C  C281  1  0.23244187  0.90811660  0.53301769  1
  C  C282  1  0.77427739  0.57281849  0.53791594  1
  C  C283  1  0.72716556  0.90460808  0.96185689  1
  C  C284  1  0.20872830  0.43131922  0.04235613  1
  C  C285  1  0.19187577  0.75592630  0.04302737  1
  C  C286  1  0.21257388  0.57464505  0.95997183  1
  C  C287  1  0.26742802  0.76279468  0.46127840  1
  C  C288  1  0.52725753  0.92936284  0.03505222  1
  C  C289  1  0.96611584  0.74531725  0.96102292  1
  C  C290  1  0.49843409  0.40833833  0.96737537  1
  C  C291  1  0.92415404  0.39970788  0.95024462  1
  C  C292  1  0.98260332  0.07183443  0.96477870  1
  C  C293  1  0.47566652  0.73894556  0.96445261  1
  C  C294  1  0.05734029  0.59230158  0.45729733  1
  C  C295  1  0.55663739  0.73709226  0.95795666  1
  C  C296  1  0.47444486  0.41289738  0.53904538  1
  C  C297  1  0.75971155  0.76134383  0.46522331  1
  C  C298  1  0.67976162  0.76461043  0.45300729  1
  C  C299  1  0.00219793  0.40500914  0.96846967  1
  C  C300  1  0.20164690  0.90504212  0.95842983  1
  C  C301  1  0.78598015  0.75653133  0.04025890  1
  C  C302  1  0.47784708  0.06850948  0.53699759  1
  C  C303  1  0.56197581  0.73946384  0.54455231  1
  C  C304  1  0.05716958  0.74073572  0.54535767  1
  C  C305  1  0.57622354  0.40380219  0.94841310  1
  C  C306  1  0.31860957  0.24039798  0.95333727  1
  C  C307  1  0.27678454  0.41951553  0.46686930  1
  C  C308  1  0.44631536  0.93060492  0.04224706  1
  C  C309  1  0.69251633  0.57257083  0.95509244  1
  C  C310  1  0.46149527  0.25953808  0.03855221  1
  C  C311  1  0.31339626  0.90539725  0.54042759  1
  N  N312  1  0.51743774  0.25934119  0.46303511  1
  N  N313  1  0.04348995  0.74487794  0.96298024  1
  N  N314  1  0.80362868  0.23926077  0.54172071  1
  N  N315  1  0.71093361  0.41896005  0.03424966  1
  N  N316  1  0.00347182  0.25662223  0.46558912  1
  N  N317  1  0.97271318  0.92360636  0.03401008  1
  N  N318  1  0.77266842  0.08861346  0.03920665  1
  N  N319  1  0.98028179  0.59083288  0.46556975  1
  N  N320  1  0.54083797  0.25975637  0.04107565  1
  N  N321  1  0.21485696  0.08961639  0.03472137  1
  N  N322  1  0.29183766  0.57376726  0.95892287  1
  N  N323  1  0.93557414  0.07403987  0.54796030  1
  N  N324  1  0.31502568  0.23850238  0.54566844  1
  N  N325  1  0.44828085  0.92799535  0.45367064  1
  N  N326  1  0.70862260  0.75639636  0.03814375  1
  N  N327  1  0.29357181  0.08938860  0.03962215  1
  N  N328  1  0.78643240  0.42484747  0.46096373  1
  N  N329  1  0.98502435  0.59204579  0.03902141  1
  N  N330  1  0.80579768  0.90458138  0.95535592  1
  N  N331  1  0.73623774  0.91281220  0.53329207  1
  N  N332  1  0.01234414  0.07676040  0.53754290  1
  N  N333  1  0.70757299  0.09258745  0.45798382  1
  N  N334  1  0.54728762  0.59066647  0.46127025  1
  N  N335  1  0.72605620  0.24073008  0.53559562  1
  N  N336  1  0.97797873  0.74143747  0.53921597  1
  N  N337  1  0.19823011  0.42305654  0.46075218  1
  N  N338  1  0.23727188  0.23438650  0.53385836  1
  N  N339  1  0.27033106  0.75677144  0.03682673  1
  N  N340  1  0.54934543  0.59325565  0.04152071  1
  N  N341  1  0.24066897  0.24338018  0.96380932  1
  N  N342  1  0.94431064  0.92422554  0.45859552  1
  N  N343  1  0.06079765  0.40817166  0.54246399  1
  N  N344  1  0.06067012  0.07239066  0.95200819  1
  N  N345  1  0.78839943  0.43077333  0.03040128  1
  N  N346  1  0.44132480  0.26196340  0.45709658  1
  N  N347  1  0.51311793  0.07418287  0.96998498  1
  N  N348  1  0.69516005  0.57200424  0.54298691  1
  N  N349  1  0.00853180  0.25839417  0.03559618  1
  N  N350  1  0.06226826  0.59464210  0.04780212  1
  N  N351  1  0.21307325  0.09678385  0.45809927  1
  N  N352  1  0.18884870  0.76414183  0.45400659  1
  N  N353  1  0.28054760  0.90852409  0.96488469  1
  N  N354  1  0.78362885  0.09080060  0.46133988  1
  N  N355  1  0.71481544  0.24231992  0.96051765  1
  N  N356  1  0.19459717  0.57366653  0.54198892  1
  N  N357  1  0.55191587  0.41014251  0.54164769  1
  N  N358  1  0.02242530  0.93393335  0.46664841  1
  N  N359  1  0.52360663  0.92506382  0.46095941  1
  N  N360  1  0.05430055  0.05669077  0.58676010  1
  N  N361  1  0.07127940  0.38936288  0.60331579  1
  N  N362  1  0.07288932  0.72290931  0.60376440  1
  N  N363  1  0.56867909  0.05279118  0.60901990  1
  N  N364  1  0.56879742  0.38766219  0.60060393  1
  N  N365  1  0.57510056  0.72215443  0.60458684  1
  N  N366  1  0.43027695  0.27559267  0.09482790  1
  N  N367  1  0.44016838  0.60989172  0.09369154  1
  N  N368  1  0.42997245  0.94542084  0.10086962  1
  N  N369  1  0.92481833  0.27896908  0.10658000  1
  N  N370  1  0.94552408  0.61313058  0.08892288  1
  N  N371  1  0.93969473  0.94115362  0.09049086  1
  N  N372  1  0.42660091  0.05430202  0.89683495  1
  N  N373  1  0.45089329  0.39319531  0.91632147  1
  N  N374  1  0.44402534  0.72234208  0.90731481  1
  N  N375  1  0.94436643  0.05628635  0.91191370  1
  N  N376  1  0.92447238  0.38463437  0.88998394  1
  N  N377  1  0.93910502  0.72618731  0.90523721  1
  N  N378  1  0.04602874  0.27625877  0.41498411  1
  N  N379  1  0.07509176  0.60912789  0.39807807  1
  N  N380  1  0.05360137  0.94163062  0.40912192  1
  N  N381  1  0.55062828  0.27615191  0.40805907  1
  N  N382  1  0.57149275  0.61145811  0.40430613  1
  N  N383  1  0.55863925  0.94204851  0.40650142  1
  N  N384  1  0.32617071  0.22154773  0.60415143  1
  N  N385  1  0.30601299  0.55659951  0.58980608  1
  N  N386  1  0.32666862  0.88814787  0.60137929  1
  N  N387  1  0.82354309  0.22067549  0.59885566  1
  N  N388  1  0.80892091  0.55650365  0.59255730  1
  N  N389  1  0.82628905  0.89019670  0.60333095  1
  N  N390  1  0.18833742  0.10703562  0.09073508  1
  N  N391  1  0.18481715  0.44459455  0.10163596  1
  N  N392  1  0.17751622  0.77549758  0.10079043  1
  N  N393  1  0.67941412  0.10827514  0.10235600  1
  N  N394  1  0.68622892  0.43913496  0.08965482  1
  N  N395  1  0.68416158  0.77651746  0.09605437  1
  N  N396  1  0.19887179  0.22246399  0.91309435  1
  N  N397  1  0.18246309  0.55795708  0.90365168  1
  N  N398  1  0.18279959  0.88771930  0.89959408  1
  N  N399  1  0.68934941  0.22349586  0.90416306  1
  N  N400  1  0.67691769  0.55452406  0.89576914  1
  N  N401  1  0.69068867  0.88860107  0.90757257  1
  N  N402  1  0.31689644  0.11362021  0.40126560  1
  N  N403  1  0.30741924  0.43858543  0.41252326  1
  N  N404  1  0.30442234  0.77701562  0.40689149  1
  N  N405  1  0.81366711  0.10863243  0.40524673  1
  N  N406  1  0.80958185  0.44295289  0.40381922  1
  N  N407  1  0.79955117  0.77627384  0.41032375  1
  N  N408  1  0.42472007  0.28090265  0.39829975  1
  N  N409  1  0.44285176  0.60699439  0.40763922  1
  N  N410  1  0.43321173  0.94529699  0.39426540  1
  N  N411  1  0.91981334  0.27879358  0.39458155  1
  N  N412  1  0.94785351  0.60813131  0.40869108  1
  N  N413  1  0.92620568  0.94447398  0.40216418  1
  N  N414  1  0.07069904  0.05406032  0.89267786  1
  N  N415  1  0.04942788  0.39197274  0.91654043  1
  N  N416  1  0.06729636  0.72458022  0.90495953  1
  N  N417  1  0.55208634  0.05804127  0.91522913  1
  N  N418  1  0.57555233  0.38738691  0.88859827  1
  N  N419  1  0.57376078  0.72048887  0.90001805  1
  N  N420  1  0.05136180  0.27775776  0.08645699  1
  N  N421  1  0.07047291  0.61273367  0.10647783  1
  N  N422  1  0.06699768  0.94176240  0.10165093  1
  N  N423  1  0.55787132  0.27665269  0.10007347  1
  N  N424  1  0.56796447  0.61243933  0.10107868  1
  N  N425  1  0.55960194  0.94437531  0.09242339  1
  N  N426  1  0.44036220  0.05361572  0.59184423  1
  N  N427  1  0.44116832  0.39317665  0.59245717  1
  N  N428  1  0.44590617  0.72455021  0.59205253  1
  N  N429  1  0.92961956  0.05609275  0.60688812  1
  N  N430  1  0.94500990  0.39510200  0.58660130  1
  N  N431  1  0.94463359  0.71963193  0.59208788  1
  N  N432  1  0.18799671  0.10700645  0.39891115  1
  N  N433  1  0.17929473  0.44452239  0.40300397  1
  N  N434  1  0.17761587  0.77962063  0.39385996  1
  N  N435  1  0.68732102  0.11208962  0.39989526  1
  N  N436  1  0.68152800  0.44343818  0.40161906  1
  N  N437  1  0.67122605  0.78045378  0.39334092  1
  N  N438  1  0.32556394  0.22171064  0.89436719  1
  N  N439  1  0.31034363  0.55628793  0.90064783  1
  N  N440  1  0.31024549  0.89220324  0.90869863  1
  N  N441  1  0.81832830  0.22459552  0.90415747  1
  N  N442  1  0.80655769  0.55715387  0.90566155  1
  N  N443  1  0.81785438  0.88740619  0.89604017  1
  N  N444  1  0.31497893  0.10820206  0.09609794  1
  N  N445  1  0.31520524  0.44639125  0.10067682  1
  N  N446  1  0.30580329  0.77895032  0.08965875  1
  N  N447  1  0.80796785  0.11067847  0.09208991  1
  N  N448  1  0.81305315  0.44457593  0.08776908  1
  N  N449  1  0.81248408  0.77577514  0.09618795  1
  N  N450  1  0.20039998  0.23067376  0.58959920  1
  N  N451  1  0.17788629  0.55484012  0.60018197  1
  N  N452  1  0.19808105  0.89293139  0.58672029  1
  N  N453  1  0.69676762  0.22357362  0.59076465  1
  N  N454  1  0.68142956  0.55452401  0.60261192  1
  N  N455  1  0.69993481  0.89293738  0.58738091  1
  Cl  Cl456  1  0.24152117  0.06010198  0.59817460  1
  Cl  Cl457  1  0.25650464  0.38482061  0.62289982  1
  Cl  Cl458  1  0.26006512  0.72106510  0.61769313  1
  Cl  Cl459  1  0.75053444  0.04730721  0.63691068  1
  Cl  Cl460  1  0.75689543  0.38769621  0.61177666  1
  Cl  Cl461  1  0.76273042  0.72299632  0.61299101  1
  Cl  Cl462  1  0.23619808  0.26883221  0.10461379  1
  Cl  Cl463  1  0.25516202  0.61693450  0.11975701  1
  Cl  Cl464  1  0.24744963  0.94786746  0.12423042  1
  Cl  Cl465  1  0.74233891  0.27839711  0.11204155  1
  Cl  Cl466  1  0.76168033  0.61026429  0.11350094  1
  Cl  Cl467  1  0.74871391  0.94523028  0.11128377  1
  Cl  Cl468  1  0.24951030  0.05810853  0.86967843  1
  Cl  Cl469  1  0.24954360  0.39015519  0.89461076  1
  Cl  Cl470  1  0.25681390  0.72617350  0.89109166  1
  Cl  Cl471  1  0.75533441  0.06027323  0.90294633  1
  Cl  Cl472  1  0.74998350  0.38687144  0.87775889  1
  Cl  Cl473  1  0.75634881  0.71978084  0.87566956  1
  Cl  Cl474  1  0.23334545  0.27858323  0.39617010  1
  Cl  Cl475  1  0.25956851  0.60868593  0.38771412  1
  Cl  Cl476  1  0.24006444  0.95110216  0.39014891  1
  Cl  Cl477  1  0.73544647  0.27835135  0.37986213  1
  Cl  Cl478  1  0.75930391  0.60936065  0.38449727  1
  Cl  Cl479  1  0.74397612  0.94191811  0.37907638  1
  Cl  Cl480  1  0.01506812  0.22648055  0.60370603  1
  Cl  Cl481  1  -0.00497202  0.55194505  0.62454562  1
  Cl  Cl482  1  0.01475880  0.88941828  0.60377908  1
  Cl  Cl483  1  0.51081064  0.22256360  0.61779892  1
  Cl  Cl484  1  0.49371914  0.55453343  0.60750555  1
  Cl  Cl485  1  0.51501948  0.88936026  0.62329068  1
  Cl  Cl486  1  -0.00244761  0.10985316  0.11070933  1
  Cl  Cl487  1  -0.00376344  0.44772133  0.11579363  1
  Cl  Cl488  1  -0.00456216  0.78191468  0.12844541  1
  Cl  Cl489  1  0.49490563  0.11287593  0.12258593  1
  Cl  Cl490  1  0.50244631  0.44670668  0.11712823  1
  Cl  Cl491  1  0.49176919  0.77836579  0.11130609  1
  Cl  Cl492  1  0.01301508  0.22700590  0.89599408  1
  Cl  Cl493  1  -0.00653521  0.56206796  0.89434109  1
  Cl  Cl494  1  0.00128576  0.88118675  0.86997755  1
  Cl  Cl495  1  0.50664709  0.21944174  0.88214146  1
  Cl  Cl496  1  0.49348328  0.55237666  0.87399277  1
  Cl  Cl497  1  0.50192533  0.88739042  0.88992570  1
  Cl  Cl498  1  0.00377277  0.10803095  0.39331626  1
  Cl  Cl499  1  -0.00439827  0.44410681  0.38372806  1
  Cl  Cl500  1  -0.01328851  0.77542017  0.39695961  1
  Cl  Cl501  1  0.50104953  0.11094841  0.38717668  1
  Cl  Cl502  1  0.49363076  0.44969760  0.38465146  1
  Cl  Cl503  1  0.48596880  0.77775535  0.37973495  1
  Cl  Cl504  1  0.36378294  0.14892145  0.74557074  1
  Cl  Cl505  1  0.35783108  0.48469381  0.74797795  1
  Cl  Cl506  1  0.36416016  0.81673846  0.74810111  1
  Cl  Cl507  1  0.87014206  0.14599141  0.74996997  1
  Cl  Cl508  1  0.86374558  0.48044909  0.75620153  1
  Cl  Cl509  1  0.86487854  0.81633691  0.74537691  1
  Cl  Cl510  1  0.14253185  0.18574150  0.24958821  1
  Cl  Cl511  1  0.13518556  0.52020242  0.25223657  1
  Cl  Cl512  1  0.13113925  0.85450857  0.25541369  1
  Cl  Cl513  1  0.63785142  0.18274674  0.24323924  1
  Cl  Cl514  1  0.63726794  0.51897190  0.24537405  1
  Cl  Cl515  1  0.63545279  0.85241340  0.25106807  1
  Cl  Cl516  1  0.14204603  0.14982670  0.74936695  1
  Cl  Cl517  1  0.14049150  0.47961393  0.74496620  1
  Cl  Cl518  1  0.14582804  0.81371411  0.74392236  1
  Cl  Cl519  1  0.64979756  0.15069629  0.75123657  1
  Cl  Cl520  1  0.64209483  0.47735304  0.74751512  1
  Cl  Cl521  1  0.64241224  0.81264888  0.74761114  1
  Cl  Cl522  1  0.35834830  0.18803039  0.25220548  1
  Cl  Cl523  1  0.35537750  0.51606343  0.25300454  1
  Cl  Cl524  1  0.35507070  0.85176414  0.24779222  1
  Cl  Cl525  1  0.85878264  0.18735197  0.24836619  1
  Cl  Cl526  1  0.85380236  0.51442827  0.24798277  1
  Cl  Cl527  1  0.85903159  0.85342217  0.25328313  1
  Cl  Cl528  1  0.11225169  0.31591683  0.74334222  1
  Cl  Cl529  1  0.11664953  0.64635066  0.74798019  1
  Cl  Cl530  1  0.11448280  0.98216422  0.75247580  1
  Cl  Cl531  1  0.61531288  0.31403882  0.75234064  1
  Cl  Cl532  1  0.61961800  0.64367090  0.74607001  1
  Cl  Cl533  1  0.61188902  0.98525257  0.75701688  1
  Cl  Cl534  1  0.38257169  0.02051277  0.25317157  1
  Cl  Cl535  1  0.38347879  0.35301484  0.25036795  1
  Cl  Cl536  1  0.39181374  0.68081950  0.25288810  1
  Cl  Cl537  1  0.89411277  0.01946397  0.25131097  1
  Cl  Cl538  1  0.88524189  0.35038094  0.24871868  1
  Cl  Cl539  1  0.89252830  0.68094430  0.25346770  1
  Cl  Cl540  1  0.39381453  0.31265624  0.75030516  1
  Cl  Cl541  1  0.39862885  0.64865892  0.74972082  1
  Cl  Cl542  1  0.38788438  0.98044926  0.75219594  1
  Cl  Cl543  1  0.89332599  0.31049749  0.75326276  1
  Cl  Cl544  1  0.89549362  0.64909737  0.75158128  1
  Cl  Cl545  1  0.89403113  0.98101409  0.74871297  1
  Cl  Cl546  1  0.11157419  0.02240133  0.25342022  1
  Cl  Cl547  1  0.10706833  0.35159109  0.25019062  1
  Cl  Cl548  1  0.11427757  0.68907067  0.25207165  1
  Cl  Cl549  1  0.60532981  0.01774995  0.25036111  1
  Cl  Cl550  1  0.60432453  0.35063520  0.24350034  1
  Cl  Cl551  1  0.61151649  0.68785248  0.25013255  1
