# generated using pymatgen
data_H8PbC4(N3Cl2)2
_symmetry_space_group_name_H-M   'P 1'
_cell_length_a   16.62137105
_cell_length_b   22.50223083
_cell_length_c   21.58953596
_cell_angle_alpha   89.99973241
_cell_angle_beta   90.00024220
_cell_angle_gamma   89.99695511
_symmetry_Int_Tables_number   1
_chemical_formula_structural   H8PbC4(N3Cl2)2
_chemical_formula_sum   'H192 Pb24 C96 N144 Cl96'
_cell_volume   8074.87349769
_cell_formula_units_Z   24
loop_
 _symmetry_equiv_pos_site_id
 _symmetry_equiv_pos_as_xyz
  1  'x, y, z'
loop_
 _atom_site_type_symbol
 _atom_site_label
 _atom_site_symmetry_multiplicity
 _atom_site_fract_x
 _atom_site_fract_y
 _atom_site_fract_z
 _atom_site_occupancy
  H  H0  1  -0.00418452  0.03134504  0.68079469  1
  H  H1  1  -0.00176232  0.36422908  0.68185374  1
  H  H2  1  -0.00161376  0.70056287  0.67856884  1
  H  H3  1  0.50217753  0.03206345  0.67823897  1
  H  H4  1  0.50125387  0.36601441  0.68124498  1
  H  H5  1  0.50765274  0.69893531  0.68317216  1
  H  H6  1  0.00705633  0.29966903  0.18140132  1
  H  H7  1  -0.00406739  0.63647455  0.18146595  1
  H  H8  1  -0.00417765  0.96809244  0.17799646  1
  H  H9  1  0.48797431  0.30030415  0.18193224  1
  H  H10  1  0.50215776  0.63510347  0.17890816  1
  H  H11  1  0.49665741  0.96811992  0.18216608  1
  H  H12  1  0.00017423  0.03005060  0.81789135  1
  H  H13  1  0.00134970  0.36565047  0.82163166  1
  H  H14  1  -0.00555622  0.69900038  0.82039829  1
  H  H15  1  0.50796857  0.03238736  0.82299051  1
  H  H16  1  0.50161799  0.36588207  0.81583561  1
  H  H17  1  0.50562669  0.69870996  0.81865833  1
  H  H18  1  0.00093750  0.30162759  0.31894651  1
  H  H19  1  -0.00725876  0.63449805  0.31665205  1
  H  H20  1  -0.00015816  0.96884540  0.31992910  1
  H  H21  1  0.50109581  0.30124742  0.31958013  1
  H  H22  1  0.50299419  0.63652280  0.31784403  1
  H  H23  1  0.49977780  0.96866425  0.31811991  1
  H  H24  1  0.24681682  0.19903410  0.67942174  1
  H  H25  1  0.25961929  0.53113529  0.68342362  1
  H  H26  1  0.24613869  0.86528269  0.68316765  1
  H  H27  1  0.74300546  0.19856441  0.67987859  1
  H  H28  1  0.74661225  0.53274512  0.68457333  1
  H  H29  1  0.74377260  0.86675188  0.67759354  1
  H  H30  1  0.24535017  0.13285092  0.18052900  1
  H  H31  1  0.25846093  0.46776453  0.17880813  1
  H  H32  1  0.25772181  0.80112048  0.17815517  1
  H  H33  1  0.75081946  0.13484913  0.18152615  1
  H  H34  1  0.74243743  0.46778294  0.18040547  1
  H  H35  1  0.74786116  0.80167494  0.17852771  1
  H  H36  1  0.24786927  0.19968084  0.81615355  1
  H  H37  1  0.24682756  0.53214276  0.81928985  1
  H  H38  1  0.25073298  0.86452675  0.82096587  1
  H  H39  1  0.75277514  0.19852097  0.82064380  1
  H  H40  1  0.74345460  0.53147923  0.81989985  1
  H  H41  1  0.75591644  0.86646716  0.81999200  1
  H  H42  1  0.24463510  0.13366369  0.31947516  1
  H  H43  1  0.25188545  0.46741543  0.31960870  1
  H  H44  1  0.25615454  0.80168815  0.31721321  1
  H  H45  1  0.74926370  0.13568810  0.32019437  1
  H  H46  1  0.74483376  0.46683374  0.32070631  1
  H  H47  1  0.74183385  0.80117736  0.31837908  1
  H  H48  1  0.12202915  0.05378792  0.61116638  1
  H  H49  1  0.12056678  0.38713752  0.60812121  1
  H  H50  1  0.12209476  0.71896473  0.60648170  1
  H  H51  1  0.62141361  0.05553778  0.60397381  1
  H  H52  1  0.61861142  0.38658246  0.60617857  1
  H  H53  1  0.62187978  0.72453337  0.60550689  1
  H  H54  1  0.37991664  0.27585933  0.09877656  1
  H  H55  1  0.37435180  0.61370368  0.11054298  1
  H  H56  1  0.37862709  0.94508227  0.10856323  1
  H  H57  1  0.87201928  0.28231839  0.12128637  1
  H  H58  1  0.87532336  0.61376207  0.10763759  1
  H  H59  1  0.88184356  0.94211910  0.09861044  1
  H  H60  1  0.37185847  0.05169464  0.88195704  1
  H  H61  1  0.37599130  0.38690631  0.88434376  1
  H  H62  1  0.37312815  0.71939675  0.88388824  1
  H  H63  1  0.87471786  0.05241554  0.88978184  1
  H  H64  1  0.87657198  0.38832206  0.89257719  1
  H  H65  1  0.87763870  0.72357338  0.89868472  1
  H  H66  1  0.12413605  0.27800946  0.39154528  1
  H  H67  1  0.12731725  0.61522795  0.37526379  1
  H  H68  1  0.12015356  0.94535412  0.39499729  1
  H  H69  1  0.62163662  0.27863172  0.39519442  1
  H  H70  1  0.62444970  0.61015433  0.39098759  1
  H  H71  1  0.62370721  0.94575236  0.39067213  1
  H  H72  1  0.37738998  0.21929988  0.61448256  1
  H  H73  1  0.37090057  0.55466217  0.60243038  1
  H  H74  1  0.37418567  0.88709656  0.61394650  1
  H  H75  1  0.87561557  0.21888288  0.61577261  1
  H  H76  1  0.87363151  0.55302874  0.61737696  1
  H  H77  1  0.87709933  0.88601690  0.61534026  1
  H  H78  1  0.13166710  0.11090474  0.10302232  1
  H  H79  1  0.12153840  0.45027978  0.12075808  1
  H  H80  1  0.12630617  0.78214128  0.11704415  1
  H  H81  1  0.62695399  0.11060602  0.10964610  1
  H  H82  1  0.63206928  0.44547401  0.09894634  1
  H  H83  1  0.62920251  0.77703808  0.10262308  1
  H  H84  1  0.12500869  0.22029009  0.88737189  1
  H  H85  1  0.12519890  0.55538480  0.89366124  1
  H  H86  1  0.12086358  0.88558419  0.88809668  1
  H  H87  1  0.62430616  0.21975546  0.88930934  1
  H  H88  1  0.62604771  0.55691019  0.89549773  1
  H  H89  1  0.62598607  0.88642190  0.88277353  1
  H  H90  1  0.37911205  0.11553658  0.38026752  1
  H  H91  1  0.37473124  0.44452461  0.39256198  1
  H  H92  1  0.37536505  0.77820768  0.39210380  1
  H  H93  1  0.87372119  0.11165102  0.39104642  1
  H  H94  1  0.87853537  0.45047732  0.38393672  1
  H  H95  1  0.87790969  0.78190699  0.37918716  1
  H  H96  1  0.37252589  0.27997469  0.38677773  1
  H  H97  1  0.37474275  0.61347594  0.38375128  1
  H  H98  1  0.37434074  0.94668001  0.38852727  1
  H  H99  1  0.87482362  0.28008764  0.38857302  1
  H  H100  1  0.87946068  0.61150948  0.39499456  1
  H  H101  1  0.87162146  0.94620850  0.38572386  1
  H  H102  1  0.12346864  0.05404471  0.89077778  1
  H  H103  1  0.12529878  0.38892825  0.89211570  1
  H  H104  1  0.12568157  0.72008691  0.88398959  1
  H  H105  1  0.61862536  0.05664572  0.90389463  1
  H  H106  1  0.62556444  0.38788224  0.88537915  1
  H  H107  1  0.62210712  0.72247393  0.89631030  1
  H  H108  1  0.12002638  0.27822756  0.10304800  1
  H  H109  1  0.12432693  0.61367121  0.11329628  1
  H  H110  1  0.12938818  0.94780276  0.11721119  1
  H  H111  1  0.62643931  0.28216220  0.12427575  1
  H  H112  1  0.62359712  0.61181490  0.10639275  1
  H  H113  1  0.62801743  0.94831314  0.11757322  1
  H  H114  1  0.37265575  0.05462351  0.61260679  1
  H  H115  1  0.36960763  0.38596299  0.61753838  1
  H  H116  1  0.37367660  0.71834986  0.61945816  1
  H  H117  1  0.87338296  0.05481603  0.60680330  1
  H  H118  1  0.87222983  0.38679579  0.61018658  1
  H  H119  1  0.87368348  0.72479498  0.60944002  1
  H  H120  1  0.13086450  0.11127446  0.39706473  1
  H  H121  1  0.12618738  0.44493613  0.39064429  1
  H  H122  1  0.12664515  0.78077952  0.38497331  1
  H  H123  1  0.62493704  0.11182811  0.39211041  1
  H  H124  1  0.63115817  0.44042266  0.39846087  1
  H  H125  1  0.63047860  0.77726134  0.39890914  1
  H  H126  1  0.37477687  0.21807049  0.88402119  1
  H  H127  1  0.37365729  0.55423360  0.88821636  1
  H  H128  1  0.36940004  0.88858991  0.89711829  1
  H  H129  1  0.87277198  0.22249802  0.89570920  1
  H  H130  1  0.87463946  0.55276776  0.88533929  1
  H  H131  1  0.87451825  0.88666127  0.89596207  1
  H  H132  1  0.37991846  0.11417650  0.12035631  1
  H  H133  1  0.36737898  0.44182894  0.09659199  1
  H  H134  1  0.37459479  0.77720123  0.10179318  1
  H  H135  1  0.87627080  0.11353804  0.11131657  1
  H  H136  1  0.87934139  0.44749741  0.12190288  1
  H  H137  1  0.87838936  0.78237636  0.11367290  1
  H  H138  1  0.12887416  0.22207080  0.60208702  1
  H  H139  1  0.12314693  0.55198369  0.62306761  1
  H  H140  1  0.12491747  0.88740030  0.60958209  1
  H  H141  1  0.62699287  0.22327584  0.60287688  1
  H  H142  1  0.62354510  0.55343576  0.61351803  1
  H  H143  1  0.62890437  0.89131189  0.59976877  1
  H  H144  1  0.66910110  0.24727882  0.99503889  1
  H  H145  1  0.84442246  0.91492451  0.50749634  1
  H  H146  1  0.05774931  0.25243801  -0.00675021  1
  H  H147  1  0.17826433  0.91667152  0.50162573  1
  H  H148  1  0.69751349  0.42522963  0.50275926  1
  H  H149  1  0.31979076  0.75124626  0.50005102  1
  H  H150  1  0.33338628  0.24219317  0.99735416  1
  H  H151  1  0.94206010  0.58934603  0.50519760  1
  H  H152  1  0.92104550  0.25155367  0.49790432  1
  H  H153  1  0.69015303  0.74947039  -0.00166999  1
  H  H154  1  0.17697082  0.41537307  0.49495445  1
  H  H155  1  0.92016771  0.74302096  0.50354408  1
  H  H156  1  0.18921236  0.08513776  0.50555958  1
  H  H157  1  0.18018437  0.58543916  0.99589424  1
  H  H158  1  0.67680051  0.08433757  0.49627871  1
  H  H159  1  0.15586160  0.75209114  0.00293589  1
  H  H160  1  0.17332892  0.24161038  1.00048132  1
  H  H161  1  0.83061132  0.57289449  0.50228058  1
  H  H162  1  0.56653968  0.59741802  0.49903511  1
  H  H163  1  0.69781316  0.75145058  0.50523413  1
  H  H164  1  0.10118045  0.58669722  0.48890818  1
  H  H165  1  0.41860870  0.58628437  0.00471593  1
  H  H166  1  0.92894441  0.08331787  0.50354442  1
  H  H167  1  0.55958923  0.75009536  1.00359093  1
  H  H168  1  0.16053683  0.91344203  0.99390226  1
  H  H169  1  0.39639755  0.08110002  0.99117492  1
  H  H170  1  0.85267119  0.41988299  0.01420160  1
  H  H171  1  0.30245826  0.57807491  0.49546098  1
  H  H172  1  0.45253050  0.24978246  -0.00627533  1
  H  H173  1  0.82811481  0.08382434  0.00222055  1
  H  H174  1  0.40972064  0.08424023  0.50631528  1
  H  H175  1  0.41278671  0.25175605  0.49705273  1
  H  H176  1  0.56272320  0.41181314  0.49482974  1
  H  H177  1  0.18988558  0.08287084  -0.00515337  1
  H  H178  1  0.14602267  0.41681566  0.01468252  1
  H  H179  1  0.65733062  0.91607787  0.99639806  1
  H  H180  1  0.67337583  0.57218084  0.49930500  1
  H  H181  1  0.41705266  0.58742103  0.49724702  1
  H  H182  1  0.84548088  0.41135891  0.48561719  1
  H  H183  1  0.92902295  0.58587582  -0.00047503  1
  H  H184  1  0.41966316  0.40931083  0.99785526  1
  H  H185  1  0.42247028  0.91843541  0.49769737  1
  H  H186  1  0.29374746  0.43165981  -0.00580835  1
  H  H187  1  0.43205783  0.91657903  -0.00151934  1
  H  H188  1  0.07177018  0.75765804  0.50755957  1
  H  H189  1  0.55837544  0.75174069  0.49825939  1
  H  H190  1  0.57955537  0.41230965  0.99818155  1
  H  H191  1  0.69857395  0.42163920  -0.00886708  1
  Pb  Pb192  1  0.24913666  0.04619880  0.74896230  1
  Pb  Pb193  1  0.24724996  0.37919642  0.75275847  1
  Pb  Pb194  1  0.25117905  0.71328825  0.74909590  1
  Pb  Pb195  1  0.74985436  0.04516775  0.74971721  1
  Pb  Pb196  1  0.75463484  0.38159668  0.74711760  1
  Pb  Pb197  1  0.74792822  0.71713006  0.75338437  1
  Pb  Pb198  1  0.24875639  0.28377950  0.24530601  1
  Pb  Pb199  1  0.25256809  0.62062543  0.24699086  1
  Pb  Pb200  1  0.24962858  0.95422405  0.25083931  1
  Pb  Pb201  1  0.75191645  0.28761968  0.25285233  1
  Pb  Pb202  1  0.74865180  0.61963335  0.25202504  1
  Pb  Pb203  1  0.75458483  0.95231899  0.25087469  1
  Pb  Pb204  1  -0.00095382  0.21119848  0.74934729  1
  Pb  Pb205  1  0.00143959  0.54956882  0.75231012  1
  Pb  Pb206  1  0.00138475  0.87851201  0.74949748  1
  Pb  Pb207  1  0.50178624  0.21367831  0.74929109  1
  Pb  Pb208  1  0.49876524  0.54677181  0.74948257  1
  Pb  Pb209  1  0.49773523  0.88189463  0.74910075  1
  Pb  Pb210  1  0.00028850  0.12129807  0.25254070  1
  Pb  Pb211  1  0.00146432  0.45472813  0.25163724  1
  Pb  Pb212  1  0.00290133  0.78701666  0.25576433  1
  Pb  Pb213  1  0.50485065  0.11905288  0.25048680  1
  Pb  Pb214  1  0.49880751  0.45033803  0.24683962  1
  Pb  Pb215  1  0.50087395  0.78833941  0.25067994  1
  C  C216  1  -0.00323681  0.04649745  0.63314640  1
  C  C217  1  -0.00317902  0.37896818  0.63402132  1
  C  C218  1  -0.00198565  0.71427060  0.63031947  1
  C  C219  1  0.49837242  0.04738054  0.63074719  1
  C  C220  1  0.49674107  0.37987343  0.63337163  1
  C  C221  1  0.50067324  0.71367189  0.63564477  1
  C  C222  1  -0.00016716  0.28650100  0.13350701  1
  C  C223  1  -0.00125622  0.62098559  0.13398114  1
  C  C224  1  0.00225594  0.95310339  0.13068612  1
  C  C225  1  0.49843255  0.28601192  0.13454742  1
  C  C226  1  0.49959629  0.62017263  0.13129087  1
  C  C227  1  0.50075438  0.95395483  0.13436115  1
  C  C228  1  -0.00049545  0.04515710  0.86554815  1
  C  C229  1  0.00080099  0.38026776  0.86925235  1
  C  C230  1  -0.00104627  0.71386937  0.86783698  1
  C  C231  1  0.49897305  0.04686157  0.87040417  1
  C  C232  1  0.50096118  0.38018577  0.86388445  1
  C  C233  1  0.50002395  0.71339886  0.86632672  1
  C  C234  1  -0.00005755  0.28658207  0.36660439  1
  C  C235  1  0.00022222  0.62013628  0.36433083  1
  C  C236  1  -0.00260697  0.95371815  0.36734244  1
  C  C237  1  0.49852439  0.28639360  0.36729712  1
  C  C238  1  0.50133203  0.62100684  0.36558107  1
  C  C239  1  0.49929155  0.95365298  0.36581244  1
  C  C240  1  0.25088404  0.21339276  0.63179579  1
  C  C241  1  0.25092218  0.54573283  0.63598044  1
  C  C242  1  0.24861848  0.87996777  0.63534641  1
  C  C243  1  0.74883374  0.21347962  0.63253802  1
  C  C244  1  0.74792562  0.54681211  0.63648976  1
  C  C245  1  0.75035507  0.88151619  0.63011753  1
  C  C246  1  0.25201490  0.11925603  0.13262715  1
  C  C247  1  0.24908343  0.45330213  0.13123352  1
  C  C248  1  0.25220744  0.78661678  0.13052696  1
  C  C249  1  0.75129644  0.11980433  0.13384866  1
  C  C250  1  0.75176688  0.45304296  0.13290102  1
  C  C251  1  0.75151258  0.78713727  0.13084208  1
  C  C252  1  0.24931751  0.21346875  0.86436863  1
  C  C253  1  0.24828583  0.54745584  0.86687801  1
  C  C254  1  0.24662512  0.87975930  0.86856737  1
  C  C255  1  0.74951216  0.21350428  0.86837097  1
  C  C256  1  0.74839455  0.54679764  0.86714170  1
  C  C257  1  0.75151297  0.88009651  0.86795898  1
  C  C258  1  0.25130277  0.12028394  0.36736973  1
  C  C259  1  0.25066859  0.45222838  0.36728054  1
  C  C260  1  0.25247439  0.78699218  0.36498772  1
  C  C261  1  0.74891587  0.12023235  0.36774037  1
  C  C262  1  0.75174135  0.45276202  0.36867051  1
  C  C263  1  0.75047162  0.78688063  0.36594598  1
  C  C264  1  0.72894731  0.76111990  0.46198117  1
  C  C265  1  0.52568703  0.73985969  0.54026849  1
  C  C266  1  0.71879613  0.57587317  0.96111726  1
  C  C267  1  0.55050325  0.92941329  0.04324451  1
  C  C268  1  0.48105210  0.26016175  0.03793524  1
  C  C269  1  0.27243949  0.56999526  0.53952017  1
  C  C270  1  0.05274807  0.92595529  0.04142364  1
  C  C271  1  0.78906151  0.09389914  0.04118862  1
  C  C272  1  0.29690762  0.23920368  0.54064504  1
  C  C273  1  0.72105283  0.24294287  0.53845798  1
  C  C274  1  0.29285758  0.23460967  0.95864224  1
  C  C275  1  0.30636858  0.09724294  0.45742661  1
  C  C276  1  0.96620898  0.59541786  0.03978987  1
  C  C277  1  0.70315188  0.90571382  0.96021371  1
  C  C278  1  0.45906464  0.40209032  0.95838918  1
  C  C279  1  0.45534602  0.59388818  0.45685909  1
  C  C280  1  0.72813565  0.42858221  0.03552757  1
  C  C281  1  0.54106039  0.40309196  0.95863220  1
  C  C282  1  0.22604574  0.09347565  0.03534836  1
  C  C283  1  0.97381976  0.59634727  0.46172299  1
  C  C284  1  0.45602111  0.26164443  0.45938994  1
  C  C285  1  0.05539048  0.59646551  0.45429249  1
  C  C286  1  0.53793889  0.59217305  0.03701147  1
  C  C287  1  0.04640418  0.74113866  0.95821300  1
  C  C288  1  0.79169021  0.56794802  0.54241868  1
  C  C289  1  0.46168321  0.92814623  0.45871094  1
  C  C290  1  0.96122222  0.26102944  0.45925807  1
  C  C291  1  0.80186513  0.76112161  0.03943437  1
  C  C292  1  0.28350478  0.75959535  0.03523596  1
  C  C293  1  0.95363608  0.92577648  0.45862983  1
  C  C294  1  0.22499849  0.09533479  0.46477527  1
  C  C295  1  0.20191962  0.76112799  0.03881156  1
  C  C296  1  0.78465147  0.90541581  0.96320416  1
  C  C297  1  0.52669185  0.73924124  0.96146583  1
  C  C298  1  0.02517528  0.26210334  0.03580238  1
  C  C299  1  0.53329853  0.07577720  0.53564109  1
  C  C300  1  0.70956882  0.56801324  0.54099581  1
  C  C301  1  0.52352600  0.07480952  0.96751355  1
  C  C302  1  0.72077159  0.90979782  0.53403543  1
  C  C303  1  0.44625496  0.40401273  0.54245743  1
  C  C304  1  0.03887965  0.40572087  0.96310518  1
  C  C305  1  0.30718146  0.09520797  0.04296377  1
  C  C306  1  0.94456032  0.26362927  0.04405845  1
  C  C307  1  0.21544544  0.90604953  0.54152695  1
  C  C308  1  0.28340191  0.76170043  0.45961809  1
  C  C309  1  0.46901976  0.92766504  0.03840856  1
  C  C310  1  0.21102437  0.23478030  0.95997036  1
  C  C311  1  0.52742753  0.40385423  0.53646014  1
  N  N312  1  0.29441902  0.57160441  0.95944121  1
  N  N313  1  0.03603250  0.73245909  0.53618558  1
  N  N314  1  0.96382390  0.07243994  0.54092046  1
  N  N315  1  0.54100023  0.92769455  0.45982355  1
  N  N316  1  0.03670405  0.07334339  0.95898063  1
  N  N317  1  0.96078377  0.40610624  0.96419277  1
  N  N318  1  0.21576978  0.57126265  0.95992052  1
  N  N319  1  0.79633801  0.57457367  0.95919455  1
  N  N320  1  0.26964770  0.42265880  0.03704482  1
  N  N321  1  0.44538462  0.07242133  0.95888039  1
  N  N322  1  0.79946529  0.90744503  0.54046265  1
  N  N323  1  0.70973051  0.09262640  0.04017022  1
  N  N324  1  0.04570242  0.59482409  0.04133543  1
  N  N325  1  0.79870081  0.24132510  0.54114761  1
  N  N326  1  0.78661755  0.23955544  0.96287401  1
  N  N327  1  0.72515450  0.41932106  0.46066686  1
  N  N328  1  0.19157012  0.43369767  0.04358062  1
  N  N329  1  0.19382319  0.56999428  0.54655152  1
  N  N330  1  0.20401157  0.76254507  0.45772097  1
  N  N331  1  0.44657300  0.73712899  0.54477490  1
  N  N332  1  0.95651300  0.40497221  0.54049084  1
  N  N333  1  0.95805172  0.74718866  0.54120137  1
  N  N334  1  0.80784359  0.76183606  0.45531395  1
  N  N335  1  0.80319268  0.43255096  0.45843032  1
  N  N336  1  0.29166851  0.42726619  0.46114572  1
  N  N337  1  0.80678727  0.42778572  0.04527324  1
  N  N338  1  0.72313302  0.75957507  0.03691635  1
  N  N339  1  0.45888712  0.59388213  0.03958595  1
  N  N340  1  0.29484636  0.90602882  0.54260867  1
  N  N341  1  0.79182616  0.09300797  0.46035721  1
  N  N342  1  0.45427829  0.07482809  0.54003300  1
  N  N343  1  0.53541791  0.26111381  0.46277512  1
  N  N344  1  0.71351318  0.09275535  0.45903332  1
  N  N345  1  0.97546783  0.92357999  0.03432469  1
  N  N346  1  0.20304829  0.90437544  0.95890260  1
  N  N347  1  0.04206548  0.07215928  0.54074649  1
  N  N348  1  0.53519802  0.59218823  0.45859914  1
  N  N349  1  0.44760106  0.73812288  0.95745940  1
  N  N350  1  0.95997911  0.07260561  0.95866731  1
  N  N351  1  0.70849473  0.23865039  0.95917562  1
  N  N352  1  0.28136125  0.90573428  0.96336958  1
  N  N353  1  0.55955514  0.26191921  0.04638412  1
  N  N354  1  0.03335797  0.40571617  0.53985619  1
  N  N355  1  0.21947011  0.24006392  0.53532331  1
  N  N356  1  0.96911345  0.74240601  0.96420839  1
  N  N357  1  0.03141127  0.92527638  0.46291174  1
  N  N358  1  0.04052290  0.25986705  0.46075841  1
  N  N359  1  0.21351896  0.42775393  0.45910827  1
  N  N360  1  0.06181027  0.05604144  0.59856544  1
  N  N361  1  0.05939990  0.38928541  0.59754282  1
  N  N362  1  0.06158103  0.72461695  0.59518491  1
  N  N363  1  0.56084670  0.05874667  0.59198241  1
  N  N364  1  0.55800685  0.38889157  0.59453330  1
  N  N365  1  0.56047269  0.72529885  0.59561817  1
  N  N366  1  0.44202449  0.27464240  0.09164070  1
  N  N367  1  0.43450331  0.61142508  0.09752407  1
  N  N368  1  0.43918937  0.94313307  0.09641073  1
  N  N369  1  0.92963636  0.27821929  0.10289257  1
  N  N370  1  0.93605929  0.61077842  0.09632448  1
  N  N371  1  0.94392847  0.94117909  0.09109919  1
  N  N372  1  0.42991836  0.05537995  0.89902722  1
  N  N373  1  0.43539617  0.38793475  0.89909163  1
  N  N374  1  0.43290896  0.72242725  0.89813722  1
  N  N375  1  0.93569660  0.05485798  0.90095997  1
  N  N376  1  0.93727424  0.38960961  0.90448517  1
  N  N377  1  0.93932863  0.72481712  0.90656319  1
  N  N378  1  0.06295303  0.27582191  0.40261360  1
  N  N379  1  0.07013210  0.61124547  0.39384870  1
  N  N380  1  0.05863410  0.94326172  0.40464818  1
  N  N381  1  0.56005785  0.27644790  0.40491817  1
  N  N382  1  0.56345778  0.61285118  0.40285696  1
  N  N383  1  0.56256161  0.94350040  0.40165257  1
  N  N384  1  0.31853049  0.22319319  0.59908509  1
  N  N385  1  0.30909218  0.55558533  0.59409968  1
  N  N386  1  0.31370813  0.88981561  0.60143580  1
  N  N387  1  0.81597478  0.22262818  0.60134685  1
  N  N388  1  0.81420993  0.55513638  0.60204101  1
  N  N389  1  0.81819765  0.89022333  0.59980305  1
  N  N390  1  0.19274441  0.10883767  0.09259855  1
  N  N391  1  0.17926378  0.44330510  0.10388290  1
  N  N392  1  0.18409067  0.77781743  0.09944021  1
  N  N393  1  0.68804692  0.10867940  0.09832407  1
  N  N394  1  0.69341456  0.44363450  0.09018021  1
  N  N395  1  0.69077210  0.77627539  0.09295888  1
  N  N396  1  0.18505426  0.22200415  0.90090223  1
  N  N397  1  0.18644427  0.55828156  0.90362678  1
  N  N398  1  0.18091885  0.88913426  0.90148687  1
  N  N399  1  0.68444328  0.22283531  0.90211458  1
  N  N400  1  0.68684614  0.55907813  0.90597895  1
  N  N401  1  0.68397321  0.88976515  0.89970925  1
  N  N402  1  0.32133665  0.11209155  0.39828086  1
  N  N403  1  0.31422099  0.44290533  0.40366653  1
  N  N404  1  0.31458832  0.77643056  0.40312679  1
  N  N405  1  0.81303076  0.10940412  0.40291295  1
  N  N406  1  0.81986695  0.44346929  0.39872877  1
  N  N407  1  0.81921262  0.77818672  0.39530314  1
  N  N408  1  0.43216882  0.27676906  0.40095733  1
  N  N409  1  0.43426394  0.60973452  0.39894306  1
  N  N410  1  0.43445982  0.94379116  0.40123076  1
  N  N411  1  0.93471790  0.27702287  0.40170323  1
  N  N412  1  0.94056157  0.61079739  0.40525538  1
  N  N413  1  0.93071266  0.94263927  0.40065814  1
  N  N414  1  0.06235284  0.05652423  0.90141412  1
  N  N415  1  0.06523868  0.39037967  0.90545875  1
  N  N416  1  0.06707805  0.72400428  0.89990122  1
  N  N417  1  0.55721451  0.05888844  0.91280759  1
  N  N418  1  0.56580785  0.38962770  0.89954054  1
  N  N419  1  0.56053910  0.72421704  0.90587741  1
  N  N420  1  0.05903708  0.27650447  0.09295099  1
  N  N421  1  0.06397701  0.61089753  0.10044091  1
  N  N422  1  0.07144153  0.94364476  0.10006285  1
  N  N423  1  0.56836515  0.27787056  0.10674248  1
  N  N424  1  0.56335630  0.60837607  0.09376526  1
  N  N425  1  0.56923029  0.94505596  0.10136956  1
  N  N426  1  0.43235735  0.05735329  0.59851299  1
  N  N427  1  0.42812444  0.38965901  0.60092804  1
  N  N428  1  0.43296354  0.72130833  0.60443826  1
  N  N429  1  0.93453397  0.05703005  0.59664318  1
  N  N430  1  0.93281976  0.38906558  0.59906443  1
  N  N431  1  0.93357393  0.72331954  0.59551804  1
  N  N432  1  0.19189294  0.10989642  0.40741926  1
  N  N433  1  0.18688805  0.44174788  0.40215094  1
  N  N434  1  0.18677711  0.77800349  0.39828129  1
  N  N435  1  0.68592429  0.11022541  0.40350222  1
  N  N436  1  0.69264602  0.44306146  0.40862188  1
  N  N437  1  0.69230068  0.77596230  0.40742665  1
  N  N438  1  0.31542629  0.22154881  0.89880931  1
  N  N439  1  0.31354155  0.55612472  0.90138635  1
  N  N440  1  0.30781325  0.89037670  0.90693335  1
  N  N441  1  0.81159484  0.22418933  0.90587508  1
  N  N442  1  0.81483640  0.55643498  0.89906249  1
  N  N443  1  0.81377058  0.89007022  0.90760500  1
  N  N444  1  0.32216333  0.11061566  0.10206004  1
  N  N445  1  0.30554266  0.44483681  0.08877570  1
  N  N446  1  0.31381274  0.77501050  0.09043103  1
  N  N447  1  0.81617591  0.11034412  0.09833600  1
  N  N448  1  0.82092027  0.44263349  0.10509420  1
  N  N449  1  0.81978564  0.77786061  0.09760236  1
  N  N450  1  0.19060035  0.22367548  0.59343205  1
  N  N451  1  0.18200710  0.55483461  0.60688262  1
  N  N452  1  0.18565109  0.89028849  0.59805419  1
  N  N453  1  0.68802142  0.22614076  0.59310447  1
  N  N454  1  0.68353081  0.55510723  0.59998862  1
  N  N455  1  0.68998936  0.89367185  0.58942212  1
  Cl  Cl456  1  0.24768999  0.05447351  0.61625037  1
  Cl  Cl457  1  0.24332379  0.38622071  0.61933040  1
  Cl  Cl458  1  0.24569142  0.71871676  0.61612527  1
  Cl  Cl459  1  0.74776393  0.05312943  0.61260276  1
  Cl  Cl460  1  0.74601444  0.39075166  0.60666451  1
  Cl  Cl461  1  0.74796810  0.72435800  0.61801129  1
  Cl  Cl462  1  0.25284139  0.27924361  0.10938276  1
  Cl  Cl463  1  0.24924487  0.61099547  0.11111028  1
  Cl  Cl464  1  0.25259709  0.94549268  0.11851282  1
  Cl  Cl465  1  0.74836449  0.28328138  0.11947649  1
  Cl  Cl466  1  0.74862626  0.61734148  0.12023513  1
  Cl  Cl467  1  0.75596396  0.94451983  0.11899176  1
  Cl  Cl468  1  0.24659497  0.05200432  0.88319607  1
  Cl  Cl469  1  0.25006832  0.39582079  0.89150356  1
  Cl  Cl470  1  0.24883310  0.71874906  0.88176212  1
  Cl  Cl471  1  0.74935853  0.05328722  0.88280995  1
  Cl  Cl472  1  0.75134681  0.38995300  0.88372243  1
  Cl  Cl473  1  0.74587299  0.72415970  0.89300245  1
  Cl  Cl474  1  0.24834038  0.28179878  0.37688460  1
  Cl  Cl475  1  0.25513813  0.61249529  0.38004722  1
  Cl  Cl476  1  0.24593988  0.94694485  0.38352511  1
  Cl  Cl477  1  0.74652118  0.28287706  0.38444039  1
  Cl  Cl478  1  0.74918635  0.60851801  0.38823359  1
  Cl  Cl479  1  0.74812885  0.94602527  0.38690244  1
  Cl  Cl480  1  0.00145399  0.21892656  0.61655227  1
  Cl  Cl481  1  -0.00254205  0.55563975  0.61905160  1
  Cl  Cl482  1  0.00075179  0.88315804  0.61706371  1
  Cl  Cl483  1  0.50146210  0.21714008  0.61751668  1
  Cl  Cl484  1  0.49679566  0.55682985  0.60995613  1
  Cl  Cl485  1  0.50178602  0.88720458  0.61636026  1
  Cl  Cl486  1  0.00318674  0.11621317  0.12396831  1
  Cl  Cl487  1  0.00117447  0.44838132  0.11843328  1
  Cl  Cl488  1  0.00060801  0.78495529  0.12860598  1
  Cl  Cl489  1  0.50361151  0.11214928  0.11790805  1
  Cl  Cl490  1  0.49593910  0.44574640  0.11058535  1
  Cl  Cl491  1  0.50548610  0.77725915  0.11536867  1
  Cl  Cl492  1  -0.00233030  0.22226837  0.88323715  1
  Cl  Cl493  1  0.00201057  0.55251001  0.88560947  1
  Cl  Cl494  1  0.00022825  0.88320052  0.88080442  1
  Cl  Cl495  1  0.50033500  0.21809084  0.88519999  1
  Cl  Cl496  1  0.49791198  0.55585832  0.88456516  1
  Cl  Cl497  1  0.49269301  0.88754797  0.88245300  1
  Cl  Cl498  1  -0.00297527  0.10961468  0.38870323  1
  Cl  Cl499  1  0.00251248  0.44813145  0.38280905  1
  Cl  Cl500  1  0.00233468  0.77792129  0.39252100  1
  Cl  Cl501  1  0.50446915  0.11119084  0.38597895  1
  Cl  Cl502  1  0.50607479  0.44551186  0.38318416  1
  Cl  Cl503  1  0.50502329  0.77658178  0.38559604  1
  Cl  Cl504  1  0.36346069  0.14440868  0.75168765  1
  Cl  Cl505  1  0.36161694  0.47834875  0.75301756  1
  Cl  Cl506  1  0.36109556  0.80997961  0.74826636  1
  Cl  Cl507  1  0.86044502  0.14525578  0.74709654  1
  Cl  Cl508  1  0.85852055  0.47612324  0.75087633  1
  Cl  Cl509  1  0.86127241  0.80968835  0.74753045  1
  Cl  Cl510  1  0.13909229  0.18969489  0.25070130  1
  Cl  Cl511  1  0.13712358  0.52214540  0.24659273  1
  Cl  Cl512  1  0.13864035  0.85470896  0.25192151  1
  Cl  Cl513  1  0.63638105  0.18942168  0.24863465  1
  Cl  Cl514  1  0.64475590  0.52169271  0.25094906  1
  Cl  Cl515  1  0.63815252  0.85547025  0.24942079  1
  Cl  Cl516  1  0.13782978  0.14521944  0.74988784  1
  Cl  Cl517  1  0.13824093  0.47791342  0.74894517  1
  Cl  Cl518  1  0.13690205  0.81118444  0.75056929  1
  Cl  Cl519  1  0.63593776  0.14461918  0.75064390  1
  Cl  Cl520  1  0.63494938  0.47850396  0.74995780  1
  Cl  Cl521  1  0.63886813  0.81048488  0.75074435  1
  Cl  Cl522  1  0.36390460  0.18835323  0.24933275  1
  Cl  Cl523  1  0.35901067  0.52067611  0.25005672  1
  Cl  Cl524  1  0.36259105  0.85444409  0.24860336  1
  Cl  Cl525  1  0.86119414  0.18858549  0.25148105  1
  Cl  Cl526  1  0.86516280  0.52134557  0.25147722  1
  Cl  Cl527  1  0.86072121  0.85524527  0.25500000  1
  Cl  Cl528  1  0.11252517  0.31086046  0.75326336  1
  Cl  Cl529  1  0.11034153  0.64323637  0.74884366  1
  Cl  Cl530  1  0.11234879  0.97791172  0.74813714  1
  Cl  Cl531  1  0.60889800  0.31064739  0.75152018  1
  Cl  Cl532  1  0.60961449  0.64418269  0.74764841  1
  Cl  Cl533  1  0.60936732  0.97801452  0.74991587  1
  Cl  Cl534  1  0.38686316  0.02324916  0.25095308  1
  Cl  Cl535  1  0.39182945  0.35695194  0.24988491  1
  Cl  Cl536  1  0.38825593  0.68767439  0.24870698  1
  Cl  Cl537  1  0.88682780  0.02221703  0.25203078  1
  Cl  Cl538  1  0.88601448  0.35602159  0.24741111  1
  Cl  Cl539  1  0.88974483  0.68965085  0.25388395  1
  Cl  Cl540  1  0.38631592  0.31191512  0.75056577  1
  Cl  Cl541  1  0.38616081  0.64468124  0.75049554  1
  Cl  Cl542  1  0.38726254  0.97706301  0.74971688  1
  Cl  Cl543  1  0.88619021  0.31199472  0.74961659  1
  Cl  Cl544  1  0.88900209  0.64361394  0.74911612  1
  Cl  Cl545  1  0.88627784  0.97735136  0.74815294  1
  Cl  Cl546  1  0.11352520  0.02154816  0.24907159  1
  Cl  Cl547  1  0.11244048  0.35529132  0.24921121  1
  Cl  Cl548  1  0.11243282  0.68921963  0.25266118  1
  Cl  Cl549  1  0.61208926  0.02271266  0.24980411  1
  Cl  Cl550  1  0.61325440  0.35650839  0.24747977  1
  Cl  Cl551  1  0.61263460  0.68640365  0.25108280  1
