# generated using pymatgen
data_H8PbC4(N3Cl2)2
_symmetry_space_group_name_H-M   'P 1'
_cell_length_a   16.63922087
_cell_length_b   22.54742065
_cell_length_c   21.61467526
_cell_angle_alpha   90.00018409
_cell_angle_beta   90.02529265
_cell_angle_gamma   89.98090601
_symmetry_Int_Tables_number   1
_chemical_formula_structural   H8PbC4(N3Cl2)2
_chemical_formula_sum   'H192 Pb24 C96 N144 Cl96'
_cell_volume   8109.20916580
_cell_formula_units_Z   24
loop_
 _symmetry_equiv_pos_site_id
 _symmetry_equiv_pos_as_xyz
  1  'x, y, z'
loop_
 _atom_site_type_symbol
 _atom_site_label
 _atom_site_symmetry_multiplicity
 _atom_site_fract_x
 _atom_site_fract_y
 _atom_site_fract_z
 _atom_site_occupancy
  H  H0  1  0.02984032  0.02589745  0.66329633  1
  H  H1  1  -0.00212345  0.36100617  0.67963535  1
  H  H2  1  0.00166819  0.68620226  0.67646481  1
  H  H3  1  0.48967768  0.02810814  0.67571131  1
  H  H4  1  0.49355178  0.35318535  0.68120375  1
  H  H5  1  0.51153003  0.69377163  0.67462749  1
  H  H6  1  0.00853119  0.29951129  0.17932309  1
  H  H7  1  -0.01330701  0.63832969  0.17914351  1
  H  H8  1  -0.00369438  0.97329745  0.18196598  1
  H  H9  1  0.50217920  0.31143135  0.18264010  1
  H  H10  1  0.50795895  0.64480734  0.17943222  1
  H  H11  1  0.49055192  0.97548532  0.17881932  1
  H  H12  1  0.00175424  0.03257888  0.82102055  1
  H  H13  1  0.00419789  0.35823551  0.81825259  1
  H  H14  1  -0.00673296  0.69256682  0.81974002  1
  H  H15  1  0.49504700  0.02986609  0.81875735  1
  H  H16  1  0.49599458  0.36224935  0.82330502  1
  H  H17  1  0.50502775  0.69206198  0.82638048  1
  H  H18  1  -0.00432344  0.31200272  0.32461643  1
  H  H19  1  -0.00280750  0.64328818  0.32510181  1
  H  H20  1  0.02059357  0.96692693  0.32636835  1
  H  H21  1  0.50571103  0.29911778  0.32135031  1
  H  H22  1  0.50453602  0.63913984  0.31601548  1
  H  H23  1  0.48431009  0.97953571  0.32852821  1
  H  H24  1  0.25543819  0.19389614  0.67675860  1
  H  H25  1  0.25280463  0.52948114  0.67610737  1
  H  H26  1  0.25607616  0.85655100  0.67419270  1
  H  H27  1  0.75789778  0.18902336  0.67677772  1
  H  H28  1  0.76156927  0.53011623  0.67919592  1
  H  H29  1  0.75128373  0.86273326  0.67621577  1
  H  H30  1  0.26251721  0.13909654  0.16920467  1
  H  H31  1  0.22325603  0.46624950  0.17041722  1
  H  H32  1  0.24035749  0.80487540  0.17621961  1
  H  H33  1  0.73915394  0.14060767  0.17406447  1
  H  H34  1  0.75756782  0.47068452  0.18293955  1
  H  H35  1  0.77239511  0.80448072  0.17961761  1
  H  H36  1  0.25416869  0.18314855  0.82504897  1
  H  H37  1  0.25092058  0.52609352  0.81984124  1
  H  H38  1  0.26095017  0.86123064  0.81973661  1
  H  H39  1  0.73797871  0.19518057  0.82638921  1
  H  H40  1  0.76007856  0.52923371  0.81589809  1
  H  H41  1  0.74049271  0.85881776  0.81652161  1
  H  H42  1  0.22854612  0.13169926  0.32916108  1
  H  H43  1  0.27372412  0.46664871  0.31697332  1
  H  H44  1  0.23621047  0.80357497  0.32773497  1
  H  H45  1  0.75850329  0.14053107  0.32675122  1
  H  H46  1  0.72957275  0.47561165  0.32145681  1
  H  H47  1  0.76478041  0.80654900  0.32027084  1
  H  H48  1  0.10661739  0.06150139  0.56760589  1
  H  H49  1  0.12356856  0.38670890  0.60937835  1
  H  H50  1  0.11671574  0.72488340  0.60223557  1
  H  H51  1  0.62992508  0.05143669  0.62422258  1
  H  H52  1  0.62218476  0.38842253  0.62273938  1
  H  H53  1  0.61663911  0.72353036  0.59095345  1
  H  H54  1  0.36338562  0.28976800  0.12982736  1
  H  H55  1  0.38322806  0.61131143  0.11218639  1
  H  H56  1  0.38504409  0.94307075  0.09650561  1
  H  H57  1  0.87007433  0.28469119  0.12429901  1
  H  H58  1  0.88398677  0.60652736  0.09417355  1
  H  H59  1  0.88165472  0.94554141  0.10608985  1
  H  H60  1  0.35958947  0.05498856  0.87793093  1
  H  H61  1  0.37775107  0.38764113  0.89662356  1
  H  H62  1  0.36970363  0.71503403  0.88341131  1
  H  H63  1  0.87028302  0.05207381  0.88743128  1
  H  H64  1  0.88305438  0.38712732  0.88984910  1
  H  H65  1  0.86819344  0.72275689  0.88525770  1
  H  H66  1  0.13059179  0.28359221  0.38251659  1
  H  H67  1  0.13220959  0.62086216  0.38306994  1
  H  H68  1  0.12867665  0.93572330  0.40711650  1
  H  H69  1  0.63762270  0.27572199  0.38531988  1
  H  H70  1  0.63344677  0.61229085  0.38343797  1
  H  H71  1  0.62916017  0.96022945  0.37427262  1
  H  H72  1  0.36616792  0.22276291  0.59842826  1
  H  H73  1  0.36095857  0.55970439  0.59526395  1
  H  H74  1  0.36184429  0.89262115  0.59382051  1
  H  H75  1  0.86424805  0.21844476  0.59271606  1
  H  H76  1  0.87110343  0.55741184  0.59951503  1
  H  H77  1  0.86880428  0.89086460  0.60182843  1
  H  H78  1  0.13340309  0.11770443  0.10680156  1
  H  H79  1  0.12839848  0.43612573  0.08246335  1
  H  H80  1  0.13770504  0.77344348  0.09193252  1
  H  H81  1  0.64189279  0.10382009  0.08844788  1
  H  H82  1  0.62052668  0.44771181  0.12474000  1
  H  H83  1  0.63052640  0.78522409  0.12800968  1
  H  H84  1  0.13252819  0.21763939  0.89273088  1
  H  H85  1  0.12248867  0.54939854  0.88793826  1
  H  H86  1  0.12049045  0.88283010  0.87341701  1
  H  H87  1  0.63653009  0.22968873  0.91101706  1
  H  H88  1  0.61961322  0.54827885  0.86573359  1
  H  H89  1  0.61642445  0.88864832  0.88792923  1
  H  H90  1  0.37628573  0.11916639  0.36603453  1
  H  H91  1  0.37182241  0.44175804  0.40607607  1
  H  H92  1  0.37530113  0.78503065  0.38249280  1
  H  H93  1  0.86993949  0.11374512  0.40411802  1
  H  H94  1  0.87464939  0.45977043  0.36422075  1
  H  H95  1  0.88600389  0.77744885  0.39126649  1
  H  H96  1  0.39009379  0.27330567  0.39890647  1
  H  H97  1  0.38516798  0.61365705  0.39202633  1
  H  H98  1  0.38856570  0.93896362  0.41338867  1
  H  H99  1  0.88479131  0.27476556  0.40221922  1
  H  H100  1  0.88568370  0.60940657  0.40290349  1
  H  H101  1  0.88266303  0.95128137  0.38516625  1
  H  H102  1  0.11666815  0.06059811  0.89872807  1
  H  H103  1  0.13203055  0.38318301  0.88669317  1
  H  H104  1  0.11734878  0.72010275  0.88980446  1
  H  H105  1  0.60675818  0.05920168  0.89780321  1
  H  H106  1  0.62637815  0.38523614  0.88555509  1
  H  H107  1  0.61605231  0.72503311  0.90505391  1
  H  H108  1  0.11593984  0.27419294  0.09841010  1
  H  H109  1  0.12769947  0.61456842  0.13141934  1
  H  H110  1  0.12961340  0.95363866  0.12184960  1
  H  H111  1  0.60945259  0.27709892  0.10351332  1
  H  H112  1  0.63144817  0.61367360  0.10893937  1
  H  H113  1  0.63012269  0.95170812  0.12871085  1
  H  H114  1  0.38778967  0.05997742  0.58948646  1
  H  H115  1  0.37444089  0.38202729  0.60674656  1
  H  H116  1  0.37205441  0.71626060  0.62373208  1
  H  H117  1  0.87765609  0.04108686  0.63751527  1
  H  H118  1  0.87544054  0.38794465  0.60692809  1
  H  H119  1  0.86941265  0.71407682  0.61414367  1
  H  H120  1  0.14170621  0.09892251  0.42117301  1
  H  H121  1  0.12980133  0.45389880  0.36248181  1
  H  H122  1  0.13075254  0.77249582  0.40862972  1
  H  H123  1  0.62389216  0.11700781  0.38326070  1
  H  H124  1  0.63380704  0.44024139  0.40789774  1
  H  H125  1  0.63715856  0.78005250  0.38762666  1
  H  H126  1  0.38110608  0.21654902  0.88990961  1
  H  H127  1  0.37100426  0.55177959  0.89294800  1
  H  H128  1  0.36567078  0.89470269  0.90164262  1
  H  H129  1  0.87947808  0.21641939  0.87364963  1
  H  H130  1  0.86421158  0.55506726  0.90065484  1
  H  H131  1  0.86480550  0.88564000  0.88766350  1
  H  H132  1  0.38092334  0.11262516  0.09745563  1
  H  H133  1  0.36770783  0.45250006  0.12783255  1
  H  H134  1  0.38254281  0.78467314  0.12603923  1
  H  H135  1  0.88353015  0.12260149  0.12676061  1
  H  H136  1  0.86684315  0.44210865  0.09938597  1
  H  H137  1  0.87454965  0.77565347  0.09383464  1
  H  H138  1  0.11863213  0.21102784  0.61688522  1
  H  H139  1  0.11399630  0.55302239  0.62199852  1
  H  H140  1  0.11682617  0.88514298  0.62425500  1
  H  H141  1  0.61917612  0.21635769  0.62232209  1
  H  H142  1  0.62581585  0.54859571  0.62484060  1
  H  H143  1  0.62076866  0.88565638  0.61114983  1
  H  H144  1  0.38166601  0.25934146  1.01713095  1
  H  H145  1  0.54208446  0.75134437  0.49233092  1
  H  H146  1  0.63298173  0.57574388  0.98031680  1
  H  H147  1  0.72605182  0.08299172  -0.00821418  1
  H  H148  1  0.71566135  0.25329295  1.00903293  1
  H  H149  1  0.45956265  0.91962785  -0.00346258  1
  H  H150  1  0.29122095  0.59272449  0.49226327  1
  H  H151  1  0.10126496  0.92550063  1.00874226  1
  H  H152  1  0.81234796  0.92076842  0.49561197  1
  H  H153  1  0.87127338  0.42462733  0.47735851  1
  H  H154  1  0.83264267  0.74232819  0.49702998  1
  H  H155  1  0.54152750  0.24805636  -0.00123400  1
  H  H156  1  0.61365099  0.08230926  0.51448023  1
  H  H157  1  0.59934218  0.24996803  0.49231936  1
  H  H158  1  0.93751729  0.41787018  0.99742531  1
  H  H159  1  0.13523208  0.42498970  0.47762192  1
  H  H160  1  0.13467470  0.58242479  0.51198803  1
  H  H161  1  0.96103932  0.58043662  -0.00337546  1
  H  H162  1  0.71590644  0.40956064  0.50677545  1
  H  H163  1  0.04647595  0.24742701  -0.00878055  1
  H  H164  1  0.64634562  0.57982312  0.51017919  1
  H  H165  1  0.29189897  0.41849984  0.50791845  1
  H  H166  1  0.29066778  0.93022194  1.00159958  1
  H  H167  1  0.81521410  0.08146542  0.51033596  1
  H  H168  1  0.79421552  0.74805560  -0.00771567  1
  H  H169  1  0.79203661  0.58208589  1.00430618  1
  H  H170  1  0.43521162  0.40795726  0.50321254  1
  H  H171  1  0.31681559  0.57674920  1.00198588  1
  H  H172  1  0.30133319  0.25167300  0.49194985  1
  H  H173  1  0.36803902  0.75262658  0.01577970  1
  H  H174  1  0.14638045  0.24372212  0.51048599  1
  H  H175  1  0.58345677  0.43564921  0.51793763  1
  H  H176  1  0.42670769  0.41992294  1.00428560  1
  H  H177  1  0.87014276  0.25284165  0.98729366  1
  H  H178  1  0.47424103  0.91999829  0.51013208  1
  H  H179  1  0.61826441  0.91845138  0.47878838  1
  H  H180  1  0.59346684  0.41752549  -0.00352870  1
  H  H181  1  0.91379239  0.76484963  0.99162606  1
  H  H182  1  0.38273330  0.08757914  0.47999523  1
  H  H183  1  0.87055452  0.08234222  0.02103673  1
  H  H184  1  0.21374909  0.74357712  -0.00978411  1
  H  H185  1  0.35535036  0.75209451  0.49202737  1
  H  H186  1  0.11360870  0.57772436  0.01988450  1
  H  H187  1  0.54074491  0.09113457  1.00128547  1
  H  H188  1  0.06536604  0.74503366  0.99591867  1
  H  H189  1  0.28557152  0.92100351  0.49430989  1
  H  H190  1  0.93985287  0.91640635  -0.00152282  1
  H  H191  1  0.61265020  0.91452277  0.01777805  1
  Pb  Pb192  1  0.24264477  0.04803050  0.73480693  1
  Pb  Pb193  1  0.24572688  0.38074158  0.74882960  1
  Pb  Pb194  1  0.24215074  0.71688659  0.74851628  1
  Pb  Pb195  1  0.74534904  0.04924709  0.76320643  1
  Pb  Pb196  1  0.74650919  0.38218996  0.75015071  1
  Pb  Pb197  1  0.74025156  0.71533164  0.74760826  1
  Pb  Pb198  1  0.25232513  0.28250021  0.25449744  1
  Pb  Pb199  1  0.25841113  0.61754130  0.25066198  1
  Pb  Pb200  1  0.25700511  0.94933552  0.25419990  1
  Pb  Pb201  1  0.75250306  0.28444872  0.24548971  1
  Pb  Pb202  1  0.75516317  0.61701915  0.24828167  1
  Pb  Pb203  1  0.75676486  0.95187065  0.25035196  1
  Pb  Pb204  1  -0.00288254  0.21337340  0.74563972  1
  Pb  Pb205  1  -0.00689225  0.54904400  0.76122997  1
  Pb  Pb206  1  -0.01043116  0.88260679  0.74998474  1
  Pb  Pb207  1  0.49622512  0.21492214  0.75534044  1
  Pb  Pb208  1  0.48905011  0.54899379  0.74250980  1
  Pb  Pb209  1  0.49462236  0.88379212  0.75237750  1
  Pb  Pb210  1  0.00459058  0.11810737  0.25859108  1
  Pb  Pb211  1  0.00502864  0.45034619  0.23461284  1
  Pb  Pb212  1  0.00471585  0.78219396  0.24183088  1
  Pb  Pb213  1  0.50649081  0.11886637  0.23840955  1
  Pb  Pb214  1  0.50191310  0.45010988  0.26787856  1
  Pb  Pb215  1  0.50710549  0.78652369  0.26148454  1
  C  C216  1  0.00412736  0.04297791  0.62068394  1
  C  C217  1  -0.00089211  0.37746426  0.63245817  1
  C  C218  1  -0.00390578  0.70695863  0.63137206  1
  C  C219  1  0.50231459  0.04605264  0.63019870  1
  C  C220  1  0.49637342  0.37263107  0.63523501  1
  C  C221  1  0.50029956  0.71027767  0.62825306  1
  C  C222  1  -0.00185147  0.28655070  0.13168241  1
  C  C223  1  -0.00038604  0.62111274  0.13314818  1
  C  C224  1  0.00287317  0.95766387  0.13465951  1
  C  C225  1  0.49123541  0.29363018  0.13665907  1
  C  C226  1  0.50767488  0.62458011  0.13390700  1
  C  C227  1  0.50199784  0.95822403  0.13263304  1
  C  C228  1  -0.00408347  0.04657908  0.86894693  1
  C  C229  1  0.00646452  0.37572689  0.86500821  1
  C  C230  1  -0.00645508  0.70993808  0.86672262  1
  C  C231  1  0.48681142  0.04670238  0.86533170  1
  C  C232  1  0.50030362  0.37858806  0.87050986  1
  C  C233  1  0.49706234  0.70976570  0.87244981  1
  C  C234  1  0.00359879  0.29207279  0.36989866  1
  C  C235  1  0.00482985  0.62541416  0.37111217  1
  C  C236  1  0.01039125  0.95174343  0.37309972  1
  C  C237  1  0.51156608  0.28341798  0.36856908  1
  C  C238  1  0.50771697  0.62237371  0.36304947  1
  C  C239  1  0.50103876  0.96070275  0.37305866  1
  C  C240  1  0.24602409  0.20941311  0.62962924  1
  C  C241  1  0.24173662  0.54602431  0.62955458  1
  C  C242  1  0.24493569  0.87598555  0.62930421  1
  C  C243  1  0.74708182  0.20723489  0.63095727  1
  C  C244  1  0.75183414  0.54494970  0.63213506  1
  C  C245  1  0.74656742  0.87845514  0.62892961  1
  C  C246  1  0.25875433  0.12330493  0.12187270  1
  C  C247  1  0.24054564  0.45156863  0.12457663  1
  C  C248  1  0.25431854  0.78790079  0.13027001  1
  C  C249  1  0.75527586  0.12286208  0.12888834  1
  C  C250  1  0.74846139  0.45475105  0.13610203  1
  C  C251  1  0.75899570  0.78888832  0.13329238  1
  C  C252  1  0.25633595  0.20456276  0.86967452  1
  C  C253  1  0.24776604  0.54138074  0.86743453  1
  C  C254  1  0.24852529  0.87917681  0.86541330  1
  C  C255  1  0.75133661  0.21268921  0.87210055  1
  C  C256  1  0.74739598  0.54359769  0.86288107  1
  C  C257  1  0.74042982  0.87700510  0.86303862  1
  C  C258  1  0.24968838  0.11663918  0.37426266  1
  C  C259  1  0.25771065  0.45426425  0.36401862  1
  C  C260  1  0.24822844  0.78731134  0.37396869  1
  C  C261  1  0.75119332  0.12403436  0.37352812  1
  C  C262  1  0.74671885  0.45833027  0.36653446  1
  C  C263  1  0.76242345  0.78860054  0.36675242  1
  C  C264  1  0.77641250  0.09410607  0.46998754  1
  C  C265  1  0.28003903  0.56742788  0.96140702  1
  C  C266  1  0.79541556  0.75527032  0.45797510  1
  C  C267  1  0.73984277  0.42512620  0.46291191  1
  C  C268  1  0.01632839  0.26009658  0.03389738  1
  C  C269  1  0.77624681  0.90746741  0.53533339  1
  C  C270  1  0.25081847  0.08611399  0.47320302  1
  C  C271  1  0.76940060  0.75974586  0.03724163  1
  C  C272  1  0.18211666  0.91207647  0.54687565  1
  C  C273  1  0.31278451  0.42849131  0.04299711  1
  C  C274  1  0.29210304  0.09432550  0.02907271  1
  C  C275  1  0.43643838  0.73917535  0.54358049  1
  C  C276  1  0.50896334  0.07790018  0.95929534  1
  C  C277  1  0.81841976  0.24357802  0.95393485  1
  C  C278  1  0.76326152  0.57043853  0.96068584  1
  C  C279  1  0.22859387  0.75452048  0.46980637  1
  C  C280  1  0.91384607  0.06914901  0.54943109  1
  C  C281  1  0.23999736  0.75657726  0.03442470  1
  C  C282  1  0.44445950  0.73860623  0.96003940  1
  C  C283  1  0.51093145  0.26210365  0.04082335  1
  C  C284  1  0.05690876  0.59553021  0.45849418  1
  C  C285  1  0.23435888  0.42221352  0.02820638  1
  C  C286  1  0.77497326  0.57329962  0.53614510  1
  C  C287  1  0.26668348  0.42948813  0.46296344  1
  C  C288  1  0.81903518  0.43219695  0.44796024  1
  C  C289  1  0.54378821  0.41367223  0.55062098  1
  C  C290  1  0.56455630  0.92513901  0.05011314  1
  C  C291  1  0.43014029  0.26762844  0.04992706  1
  C  C292  1  0.18705137  0.43292318  0.44782651  1
  C  C293  1  0.69557888  0.09618949  0.46170120  1
  C  C294  1  0.27057502  0.23940892  0.53451452  1
  C  C295  1  -0.01062093  0.07611013  0.52484641  1
  C  C296  1  0.21175855  0.09637836  0.03208858  1
  C  C297  1  0.22161011  0.24406638  0.95824705  1
  C  C298  1  0.32757700  0.09338475  0.45403894  1
  C  C299  1  0.69413958  0.57098182  0.54340893  1
  C  C300  1  0.02935289  0.91847196  0.46724022  1
  C  C301  1  0.97375416  0.40596359  0.95738680  1
  C  C302  1  0.68270333  0.56782878  0.94858686  1
  C  C303  1  0.26197842  0.57875383  0.53495657  1
  C  C304  1  0.06464787  0.58841412  0.05152916  1
  C  C305  1  0.26292472  0.91493273  0.95871423  1
  C  C306  1  0.05603985  0.93322659  0.04430648  1
  C  C307  1  0.97443532  0.92896283  0.03912065  1
  C  C308  1  0.95143130  0.74575263  0.95550265  1
  C  C309  1  0.54879585  0.40715671  0.96119523  1
  C  C310  1  0.46670900  0.40818169  0.96498062  1
  C  C311  1  0.93606917  0.26453655  0.04400532  1
  N  N312  1  0.02452259  0.07295238  0.96452818  1
  N  N313  1  0.69193514  0.76161734  0.04898819  1
  N  N314  1  0.03099833  0.74350672  0.95657172  1
  N  N315  1  0.05288811  0.40431663  0.95660594  1
  N  N316  1  0.55741696  0.25655288  0.45727342  1
  N  N317  1  0.02313825  0.74637592  0.54039897  1
  N  N318  1  0.68948343  0.23938001  0.54574555  1
  N  N319  1  0.29881459  0.24347882  0.95806913  1
  N  N320  1  0.46480067  0.40842968  0.54486443  1
  N  N321  1  0.05679368  0.25806773  0.45593489  1
  N  N322  1  0.74020173  0.24830623  0.96518560  1
  N  N323  1  0.52136603  0.74281217  0.96788036  1
  N  N324  1  0.56930072  0.93563923  0.45404340  1
  N  N325  1  0.96313000  0.40867138  0.54001119  1
  N  N326  1  0.51441828  0.74224545  0.53398366  1
  N  N327  1  0.47514821  0.59172087  0.45645942  1
  N  N328  1  0.94841464  0.06861362  0.96116614  1
  N  N329  1  0.76507165  0.24034314  0.53612326  1
  N  N330  1  0.20089837  0.56734270  0.95974425  1
  N  N331  1  0.82218037  0.09902755  0.04692303  1
  N  N332  1  0.48573015  0.07711987  0.53415914  1
  N  N333  1  0.30613294  0.75981031  0.45997472  1
  N  N334  1  0.19178621  0.23573313  0.54238318  1
  N  N335  1  0.71610231  0.75538306  0.45677352  1
  N  N336  1  0.31771678  0.75999629  0.04694203  1
  N  N337  1  0.55123249  0.59184007  0.45366353  1
  N  N338  1  0.76870789  0.42576018  0.04007956  1
  N  N339  1  0.18350858  0.57571898  0.54478450  1
  N  N340  1  0.49368633  0.92031906  0.46406104  1
  N  N341  1  0.43007787  0.07595654  0.95329366  1
  N  N342  1  0.69329067  0.42819838  0.04794614  1
  N  N343  1  0.98084265  0.25504837  0.46249200  1
  N  N344  1  0.48598388  0.92282804  0.03958281  1
  N  N345  1  0.95270588  0.92390936  0.46150997  1
  N  N346  1  0.74644706  0.08366492  0.03759538  1
  N  N347  1  0.97992737  0.59103515  0.46585628  1
  N  N348  1  0.26001446  0.91334962  0.53738127  1
  N  N349  1  0.98655497  0.58637579  0.03983824  1
  N  N350  1  0.46835089  0.58681850  0.04494276  1
  N  N351  1  0.70296862  0.90832063  0.95520788  1
  N  N352  1  0.47950011  0.25601620  0.46345050  1
  N  N353  1  0.77921054  0.90782933  0.95527560  1
  N  N354  1  0.56240380  0.07427974  0.54653072  1
  N  N355  1  0.94734858  0.74183446  0.54378576  1
  N  N356  1  0.03912709  0.40843046  0.54083196  1
  N  N357  1  0.69715945  0.90455014  0.53756595  1
  N  N358  1  0.18500099  0.91135175  0.94906452  1
  N  N359  1  0.54442294  0.58827227  0.04374190  1
  N  N360  1  0.04495948  0.05965009  0.57004175  1
  N  N361  1  0.06304828  0.38943065  0.59813977  1
  N  N362  1  0.05486743  0.72503889  0.59450991  1
  N  N363  1  0.57310353  0.05551103  0.60460486  1
  N  N364  1  0.56353185  0.39216633  0.60676015  1
  N  N365  1  0.55444465  0.72239996  0.58563992  1
  N  N366  1  0.41943378  0.28678147  0.10940959  1
  N  N367  1  0.44409112  0.60878872  0.10083898  1
  N  N368  1  0.44745875  0.94701967  0.08954326  1
  N  N369  1  0.92542848  0.28008026  0.10358602  1
  N  N370  1  0.94652010  0.60930338  0.08922065  1
  N  N371  1  0.94285420  0.94408345  0.09577363  1
  N  N372  1  0.41823486  0.05672681  0.89464808  1
  N  N373  1  0.43840682  0.39029816  0.90814284  1
  N  N374  1  0.42684467  0.71935535  0.90154991  1
  N  N375  1  0.92926254  0.05196116  0.90183911  1
  N  N376  1  0.94364695  0.38914238  0.90135589  1
  N  N377  1  0.92789358  0.72547035  0.89964399  1
  N  N378  1  0.07231394  0.28110067  0.39868278  1
  N  N379  1  0.07485657  0.61568762  0.40044402  1
  N  N380  1  0.06737697  0.93542249  0.41440379  1
  N  N381  1  0.57830472  0.27473056  0.40045260  1
  N  N382  1  0.57302644  0.61088007  0.39598365  1
  N  N383  1  0.57428226  0.95134907  0.39451817  1
  N  N384  1  0.30470764  0.22319007  0.58871703  1
  N  N385  1  0.29865261  0.56075905  0.58761694  1
  N  N386  1  0.29979928  0.88873133  0.58695283  1
  N  N387  1  0.80195000  0.22033698  0.58862302  1
  N  N388  1  0.80974479  0.55770209  0.58943507  1
  N  N389  1  0.80768752  0.89137705  0.59090799  1
  N  N390  1  0.19106485  0.11350722  0.08876785  1
  N  N391  1  0.19039943  0.43629579  0.07799726  1
  N  N392  1  0.20001237  0.77360949  0.08607482  1
  N  N393  1  0.70425333  0.10830682  0.08416936  1
  N  N394  1  0.67912345  0.44629203  0.10726361  1
  N  N395  1  0.68722811  0.77961714  0.10864238  1
  N  N396  1  0.19308908  0.22085559  0.90470827  1
  N  N397  1  0.18233605  0.55086873  0.90076494  1
  N  N398  1  0.17764685  0.88940689  0.89078812  1
  N  N399  1  0.69895539  0.22586245  0.91594105  1
  N  N400  1  0.67459522  0.55144658  0.88786551  1
  N  N401  1  0.67743298  0.88960294  0.89812301  1
  N  N402  1  0.32539868  0.11204343  0.39254368  1
  N  N403  1  0.30952942  0.44302762  0.41023214  1
  N  N404  1  0.31870874  0.77990574  0.40070720  1
  N  N405  1  0.80988171  0.11190421  0.41350911  1
  N  N406  1  0.82165577  0.45212343  0.38811565  1
  N  N407  1  0.82536742  0.77542132  0.40299451  1
  N  N408  1  0.45160074  0.27168060  0.40747645  1
  N  N409  1  0.44670905  0.61048945  0.40046612  1
  N  N410  1  0.45060016  0.94545701  0.41789795  1
  N  N411  1  0.94658770  0.27611286  0.40929674  1
  N  N412  1  0.94769663  0.61038708  0.41032731  1
  N  N413  1  0.94091735  0.94524721  0.40170025  1
  N  N414  1  0.05516872  0.05919336  0.90781640  1
  N  N415  1  0.07142817  0.38542220  0.89904441  1
  N  N416  1  0.05678067  0.71852327  0.90277714  1
  N  N417  1  0.54520504  0.05985193  0.90593702  1
  N  N418  1  0.56805602  0.38900013  0.90215856  1
  N  N419  1  0.55400157  0.72422380  0.91212042  1
  N  N420  1  0.05418791  0.27448279  0.08959651  1
  N  N421  1  0.07280494  0.60876393  0.10988007  1
  N  N422  1  0.07224566  0.95068954  0.10386150  1
  N  N423  1  0.54768417  0.27839082  0.09535899  1
  N  N424  1  0.57051702  0.61187864  0.09868932  1
  N  N425  1  0.57437851  0.94549204  0.10824815  1
  N  N426  1  0.44907260  0.06015322  0.58666738  1
  N  N427  1  0.43590677  0.38045607  0.59629202  1
  N  N428  1  0.42735567  0.72101918  0.60269481  1
  N  N429  1  0.92507247  0.04937839  0.60777513  1
  N  N430  1  0.93660245  0.38916346  0.59654149  1
  N  N431  1  0.92902791  0.71722305  0.60010494  1
  N  N432  1  0.20294338  0.10036535  0.42384059  1
  N  N433  1  0.18320316  0.44823347  0.38651087  1
  N  N434  1  0.19238889  0.77166863  0.41685260  1
  N  N435  1  0.68109551  0.11366823  0.40292622  1
  N  N436  1  0.69592573  0.44145886  0.41156244  1
  N  N437  1  0.69749366  0.77604290  0.39963238  1
  N  N438  1  0.32097666  0.21848515  0.90213562  1
  N  N439  1  0.31014365  0.55219165  0.90502079  1
  N  N440  1  0.30341963  0.89524334  0.90773313  1
  N  N441  1  0.82498280  0.22321530  0.89538031  1
  N  N442  1  0.80217406  0.55520912  0.90677925  1
  N  N443  1  0.80371868  0.88873029  0.89823637  1
  N  N444  1  0.32137634  0.11039025  0.08397183  1
  N  N445  1  0.31589374  0.44588283  0.10231441  1
  N  N446  1  0.32608216  0.77923090  0.10594415  1
  N  N447  1  0.82833813  0.11383708  0.10667755  1
  N  N448  1  0.80439833  0.44207991  0.09453281  1
  N  N449  1  0.81253036  0.77611238  0.08869314  1
  N  N450  1  0.17685404  0.21742104  0.60086680  1
  N  N451  1  0.17138697  0.55389043  0.60243802  1
  N  N452  1  0.17287548  0.89015692  0.60436147  1
  N  N453  1  0.67708898  0.21939937  0.60473449  1
  N  N454  1  0.68127632  0.55340977  0.60437230  1
  N  N455  1  0.67999872  0.88663545  0.59659113  1
  Cl  Cl456  1  0.24140910  0.06476400  0.56904121  1
  Cl  Cl457  1  0.25112803  0.38748777  0.61235832  1
  Cl  Cl458  1  0.24077661  0.72497619  0.61409585  1
  Cl  Cl459  1  0.74711438  0.04847785  0.63320366  1
  Cl  Cl460  1  0.75071945  0.38929611  0.61441212  1
  Cl  Cl461  1  0.74185744  0.71910902  0.61407961  1
  Cl  Cl462  1  0.23597624  0.27302647  0.12496663  1
  Cl  Cl463  1  0.26009335  0.61323477  0.11784934  1
  Cl  Cl464  1  0.26526691  0.93928409  0.11885515  1
  Cl  Cl465  1  0.73235553  0.26927053  0.10778829  1
  Cl  Cl466  1  0.76090216  0.60976631  0.11138872  1
  Cl  Cl467  1  0.75831142  0.94886310  0.11974874  1
  Cl  Cl468  1  0.23423981  0.05858950  0.86600127  1
  Cl  Cl469  1  0.25497256  0.38644340  0.88005040  1
  Cl  Cl470  1  0.24077724  0.72429408  0.88457226  1
  Cl  Cl471  1  0.73256909  0.06530050  0.89933566  1
  Cl  Cl472  1  0.75554812  0.38717035  0.87796737  1
  Cl  Cl473  1  0.74235615  0.72714725  0.88352244  1
  Cl  Cl474  1  0.26370102  0.27410314  0.39048278  1
  Cl  Cl475  1  0.26149587  0.61585445  0.38705295  1
  Cl  Cl476  1  0.26588429  0.93592967  0.39929980  1
  Cl  Cl477  1  0.76146686  0.27314306  0.37686968  1
  Cl  Cl478  1  0.76031198  0.60758039  0.38079864  1
  Cl  Cl479  1  0.75735581  0.95066771  0.38406351  1
  Cl  Cl480  1  -0.01099229  0.21061615  0.61344656  1
  Cl  Cl481  1  -0.00879711  0.55781942  0.62975784  1
  Cl  Cl482  1  -0.00892789  0.89290095  0.61860141  1
  Cl  Cl483  1  0.49049086  0.22325616  0.62258315  1
  Cl  Cl484  1  0.48349728  0.55641098  0.61222646  1
  Cl  Cl485  1  0.48419911  0.89924122  0.60509290  1
  Cl  Cl486  1  0.00886769  0.11462530  0.13129633  1
  Cl  Cl487  1  -0.00854656  0.44086084  0.09960055  1
  Cl  Cl488  1  0.00949824  0.77028986  0.09872174  1
  Cl  Cl489  1  0.52005665  0.10646833  0.10324627  1
  Cl  Cl490  1  0.49925820  0.44154430  0.13667577  1
  Cl  Cl491  1  0.50494737  0.79095579  0.13434542  1
  Cl  Cl492  1  0.01048995  0.21895756  0.87968201  1
  Cl  Cl493  1  -0.01038761  0.56044989  0.89939274  1
  Cl  Cl494  1  -0.01226936  0.88395133  0.88395601  1
  Cl  Cl495  1  0.51464225  0.22553770  0.89063696  1
  Cl  Cl496  1  0.49124995  0.55619614  0.87326208  1
  Cl  Cl497  1  0.48872340  0.89469486  0.89224318  1
  Cl  Cl498  1  0.00865788  0.09979574  0.45294815  1
  Cl  Cl499  1  0.00222739  0.45668264  0.36106094  1
  Cl  Cl500  1  0.01142735  0.77689958  0.37410404  1
  Cl  Cl501  1  0.50454384  0.11441413  0.36885217  1
  Cl  Cl502  1  0.50004358  0.43534335  0.40532082  1
  Cl  Cl503  1  0.51032784  0.77965679  0.39835600  1
  Cl  Cl504  1  0.35844027  0.14523412  0.74837643  1
  Cl  Cl505  1  0.34936923  0.48534521  0.74323634  1
  Cl  Cl506  1  0.35431884  0.81633472  0.74390134  1
  Cl  Cl507  1  0.85091515  0.14553995  0.76260328  1
  Cl  Cl508  1  0.85745572  0.48223518  0.74883561  1
  Cl  Cl509  1  0.84914297  0.81793110  0.74926531  1
  Cl  Cl510  1  0.14009751  0.18286935  0.26265139  1
  Cl  Cl511  1  0.14194494  0.52024890  0.24512569  1
  Cl  Cl512  1  0.14921068  0.85426382  0.24817651  1
  Cl  Cl513  1  0.64924323  0.18023602  0.25384374  1
  Cl  Cl514  1  0.63686500  0.52146592  0.25062461  1
  Cl  Cl515  1  0.64495946  0.85294163  0.25776784  1
  Cl  Cl516  1  0.13842992  0.15152807  0.73959166  1
  Cl  Cl517  1  0.12730555  0.47814215  0.75472529  1
  Cl  Cl518  1  0.12810576  0.81617687  0.75552850  1
  Cl  Cl519  1  0.63020468  0.14592961  0.74409014  1
  Cl  Cl520  1  0.62923441  0.48055379  0.74152559  1
  Cl  Cl521  1  0.62277555  0.81325998  0.73246775  1
  Cl  Cl522  1  0.36189109  0.18103486  0.24772755  1
  Cl  Cl523  1  0.36399740  0.51406862  0.24475139  1
  Cl  Cl524  1  0.36630705  0.84891657  0.26346168  1
  Cl  Cl525  1  0.87036680  0.18603600  0.24420972  1
  Cl  Cl526  1  0.86487037  0.51546691  0.24323925  1
  Cl  Cl527  1  0.86907535  0.85109770  0.24740356  1
  Cl  Cl528  1  0.10569646  0.31357748  0.74367605  1
  Cl  Cl529  1  0.11015136  0.64537591  0.75819571  1
  Cl  Cl530  1  0.10454477  0.98263264  0.74527164  1
  Cl  Cl531  1  0.61170389  0.31297214  0.75119897  1
  Cl  Cl532  1  0.60448689  0.64668323  0.75181853  1
  Cl  Cl533  1  0.59908289  0.97912579  0.75062668  1
  Cl  Cl534  1  0.39660024  0.01766888  0.25210750  1
  Cl  Cl535  1  0.38805384  0.35085616  0.26265162  1
  Cl  Cl536  1  0.39797317  0.68500983  0.24913675  1
  Cl  Cl537  1  0.89750577  0.01779648  0.26242582  1
  Cl  Cl538  1  0.89060911  0.35116896  0.24154557  1
  Cl  Cl539  1  0.90062282  0.68498329  0.25143001  1
  Cl  Cl540  1  0.38838060  0.31801235  0.75518893  1
  Cl  Cl541  1  0.38185300  0.65299664  0.74780195  1
  Cl  Cl542  1  0.37907059  0.98229619  0.75063490  1
  Cl  Cl543  1  0.88343915  0.31294338  0.75154491  1
  Cl  Cl544  1  0.88321173  0.65116419  0.75426636  1
  Cl  Cl545  1  0.88359523  0.98621102  0.75190314  1
  Cl  Cl546  1  0.11815030  0.01868491  0.25749599  1
  Cl  Cl547  1  0.11466106  0.35066886  0.25949414  1
  Cl  Cl548  1  0.12522929  0.68718782  0.24311256  1
  Cl  Cl549  1  0.61878398  0.01787520  0.25158255  1
  Cl  Cl550  1  0.61214262  0.34878794  0.25442806  1
  Cl  Cl551  1  0.62280931  0.68884451  0.25557279  1
