# generated using pymatgen
data_H8PbC4(N3Cl2)2
_symmetry_space_group_name_H-M   'P 1'
_cell_length_a   16.62968829
_cell_length_b   22.52083777
_cell_length_c   21.59663782
_cell_angle_alpha   89.99899251
_cell_angle_beta   89.98327898
_cell_angle_gamma   90.00311075
_symmetry_Int_Tables_number   1
_chemical_formula_structural   H8PbC4(N3Cl2)2
_chemical_formula_sum   'H192 Pb24 C96 N144 Cl96'
_cell_volume   8088.25391831
_cell_formula_units_Z   24
loop_
 _symmetry_equiv_pos_site_id
 _symmetry_equiv_pos_as_xyz
  1  'x, y, z'
loop_
 _atom_site_type_symbol
 _atom_site_label
 _atom_site_symmetry_multiplicity
 _atom_site_fract_x
 _atom_site_fract_y
 _atom_site_fract_z
 _atom_site_occupancy
  H  H0  1  -0.02142168  0.03225681  0.67307413  1
  H  H1  1  0.00265239  0.36142378  0.67947988  1
  H  H2  1  0.00433637  0.69305366  0.67643145  1
  H  H3  1  0.51567106  0.02677156  0.68056804  1
  H  H4  1  0.49960915  0.36229367  0.67762208  1
  H  H5  1  0.49027163  0.69820328  0.68155711  1
  H  H6  1  -0.00013050  0.30646097  0.17727361  1
  H  H7  1  -0.00452075  0.63690183  0.17874286  1
  H  H8  1  0.01015777  0.97197825  0.17700729  1
  H  H9  1  0.50375418  0.30179105  0.17700409  1
  H  H10  1  0.49353379  0.63612901  0.18085448  1
  H  H11  1  0.48456549  0.97723499  0.17653954  1
  H  H12  1  -0.00187291  0.02739269  0.81974578  1
  H  H13  1  0.01321264  0.36379917  0.82546313  1
  H  H14  1  0.01245403  0.69401912  0.82420491  1
  H  H15  1  0.51776015  0.02778372  0.82540018  1
  H  H16  1  0.48727173  0.36151227  0.82623601  1
  H  H17  1  0.48579969  0.69319227  0.81851579  1
  H  H18  1  0.01684712  0.30709968  0.32572573  1
  H  H19  1  0.00630776  0.63864580  0.32093982  1
  H  H20  1  0.00881276  0.97117900  0.31879877  1
  H  H21  1  0.48682211  0.30002398  0.32053223  1
  H  H22  1  0.51163222  0.63474072  0.31755170  1
  H  H23  1  0.50921879  0.96722160  0.32343556  1
  H  H24  1  0.26119441  0.19760056  0.68497096  1
  H  H25  1  0.25558921  0.52885484  0.68003153  1
  H  H26  1  0.23954289  0.86593916  0.68097712  1
  H  H27  1  0.73940940  0.19838116  0.67275654  1
  H  H28  1  0.74231645  0.52510906  0.67718726  1
  H  H29  1  0.75793524  0.86194032  0.68074552  1
  H  H30  1  0.24614621  0.13533045  0.17687870  1
  H  H31  1  0.25429927  0.47327178  0.17489029  1
  H  H32  1  0.26181757  0.80607669  0.17855932  1
  H  H33  1  0.75990681  0.14003466  0.17418939  1
  H  H34  1  0.74351687  0.46955860  0.17815540  1
  H  H35  1  0.73729586  0.80790506  0.17568852  1
  H  H36  1  0.24789351  0.19242918  0.82396239  1
  H  H37  1  0.26447458  0.53269698  0.82722988  1
  H  H38  1  0.23536644  0.86427479  0.82016684  1
  H  H39  1  0.74662536  0.19401254  0.82211875  1
  H  H40  1  0.73940445  0.52885111  0.81897120  1
  H  H41  1  0.75884023  0.86556732  0.82178301  1
  H  H42  1  0.25801240  0.13667679  0.31673710  1
  H  H43  1  0.23790872  0.46861435  0.32116364  1
  H  H44  1  0.26119600  0.80614101  0.32463158  1
  H  H45  1  0.73853325  0.14216443  0.32492085  1
  H  H46  1  0.76053490  0.47054829  0.32236352  1
  H  H47  1  0.73627478  0.80361870  0.31795593  1
  H  H48  1  0.12059948  0.04627231  0.62689368  1
  H  H49  1  0.11753438  0.39236560  0.60408487  1
  H  H50  1  0.13120198  0.72235483  0.60974351  1
  H  H51  1  0.62123996  0.05775933  0.59797179  1
  H  H52  1  0.62113211  0.38445221  0.60445454  1
  H  H53  1  0.62961656  0.71671393  0.62512110  1
  H  H54  1  0.36942058  0.27976719  0.11540037  1
  H  H55  1  0.37875698  0.61067812  0.10145306  1
  H  H56  1  0.37732851  0.94424404  0.09453646  1
  H  H57  1  0.87304050  0.28266260  0.11069401  1
  H  H58  1  0.88039289  0.61023494  0.10317671  1
  H  H59  1  0.88048444  0.94924939  0.11479002  1
  H  H60  1  0.37827282  0.05040948  0.87940580  1
  H  H61  1  0.39094991  0.39780503  0.91283703  1
  H  H62  1  0.36787158  0.72058167  0.89262145  1
  H  H63  1  0.87769070  0.05464551  0.89342715  1
  H  H64  1  0.87944272  0.38387470  0.88702212  1
  H  H65  1  0.87443940  0.72170157  0.87532486  1
  H  H66  1  0.11535394  0.27249342  0.41159265  1
  H  H67  1  0.12102048  0.60906411  0.39715924  1
  H  H68  1  0.11749297  0.94478945  0.40063419  1
  H  H69  1  0.62550409  0.28347229  0.37574953  1
  H  H70  1  0.61739920  0.60668226  0.40121019  1
  H  H71  1  0.61930544  0.94318439  0.40417637  1
  H  H72  1  0.38161468  0.21848363  0.61140464  1
  H  H73  1  0.37872503  0.55646580  0.60961877  1
  H  H74  1  0.38132369  0.88156843  0.63003317  1
  H  H75  1  0.87571879  0.21545344  0.61756290  1
  H  H76  1  0.87895443  0.54786463  0.62194726  1
  H  H77  1  0.88014114  0.88921214  0.60904354  1
  H  H78  1  0.12786955  0.11100037  0.10142611  1
  H  H79  1  0.11645164  0.44793866  0.12099338  1
  H  H80  1  0.13227500  0.79008205  0.11132557  1
  H  H81  1  0.62870697  0.11364652  0.11187531  1
  H  H82  1  0.61700472  0.44588933  0.11053271  1
  H  H83  1  0.63342741  0.77720249  0.09032028  1
  H  H84  1  0.13223750  0.22181149  0.89888435  1
  H  H85  1  0.12348406  0.54739532  0.87701076  1
  H  H86  1  0.11580996  0.88938011  0.89634778  1
  H  H87  1  0.63298516  0.22147611  0.90147071  1
  H  H88  1  0.62028136  0.55440416  0.89357767  1
  H  H89  1  0.62409534  0.88521275  0.87773835  1
  H  H90  1  0.37997929  0.11204037  0.39176778  1
  H  H91  1  0.37872076  0.44758988  0.37371824  1
  H  H92  1  0.36309349  0.77579392  0.41080028  1
  H  H93  1  0.87772002  0.11763439  0.37875144  1
  H  H94  1  0.87383619  0.44296208  0.40222834  1
  H  H95  1  0.86715547  0.77909910  0.38241318  1
  H  H96  1  0.37911508  0.27772115  0.40249751  1
  H  H97  1  0.37169173  0.61641100  0.37316021  1
  H  H98  1  0.37332890  0.94888859  0.37830075  1
  H  H99  1  0.87248786  0.28680346  0.37227382  1
  H  H100  1  0.87322216  0.61361475  0.38252842  1
  H  H101  1  0.87071085  0.95271487  0.37721672  1
  H  H102  1  0.12622542  0.05239456  0.88795847  1
  H  H103  1  0.12692585  0.39420044  0.90230082  1
  H  H104  1  0.11873343  0.72084018  0.90831274  1
  H  H105  1  0.62380327  0.06218260  0.90640232  1
  H  H106  1  0.63224364  0.37530072  0.87475025  1
  H  H107  1  0.61667779  0.72003502  0.88259262  1
  H  H108  1  0.12239630  0.28001124  0.10840803  1
  H  H109  1  0.12845396  0.61753412  0.11819644  1
  H  H110  1  0.12946524  0.94601544  0.10304242  1
  H  H111  1  0.61715542  0.27579855  0.09725073  1
  H  H112  1  0.62653961  0.61318553  0.11684928  1
  H  H113  1  0.62239174  0.95244084  0.12143559  1
  H  H114  1  0.37516036  0.04679172  0.62706360  1
  H  H115  1  0.37230435  0.38871581  0.60985294  1
  H  H116  1  0.38361142  0.72716669  0.59906740  1
  H  H117  1  0.87920018  0.06278412  0.58624007  1
  H  H118  1  0.86912489  0.38251036  0.61541898  1
  H  H119  1  0.88198724  0.71985059  0.60634282  1
  H  H120  1  0.13163310  0.11357045  0.38704925  1
  H  H121  1  0.13299205  0.44407275  0.40551464  1
  H  H122  1  0.12054818  0.78187544  0.37486764  1
  H  H123  1  0.63314814  0.11137794  0.40926241  1
  H  H124  1  0.62685439  0.44542942  0.38066911  1
  H  H125  1  0.61884853  0.78003981  0.39463962  1
  H  H126  1  0.38030954  0.21621498  0.88658287  1
  H  H127  1  0.36672810  0.55980197  0.91074996  1
  H  H128  1  0.36420988  0.88847731  0.88805500  1
  H  H129  1  0.88028123  0.21822878  0.88140291  1
  H  H130  1  0.86924678  0.55244595  0.88459622  1
  H  H131  1  0.87039012  0.88969712  0.90103530  1
  H  H132  1  0.37645045  0.11529633  0.11463380  1
  H  H133  1  0.36221370  0.44352202  0.09275735  1
  H  H134  1  0.37869250  0.77274379  0.10588047  1
  H  H135  1  0.87660981  0.10925956  0.09763689  1
  H  H136  1  0.86542008  0.44360829  0.10575902  1
  H  H137  1  0.87679353  0.78442857  0.12316737  1
  H  H138  1  0.13207219  0.21711034  0.61932077  1
  H  H139  1  0.12962745  0.55395145  0.61016528  1
  H  H140  1  0.13629539  0.89183796  0.59683138  1
  H  H141  1  0.62996491  0.22510709  0.59256496  1
  H  H142  1  0.63222859  0.55623025  0.59663849  1
  H  H143  1  0.63095617  0.88741080  0.61270262  1
  H  H144  1  0.91565458  0.91374895  0.00316029  1
  H  H145  1  0.82784093  0.92132340  0.50240030  1
  H  H146  1  0.85458975  0.24658025  0.50188708  1
  H  H147  1  0.71493810  0.75359559  -0.00871983  1
  H  H148  1  0.57132679  0.41310021  0.49639042  1
  H  H149  1  0.70185087  0.57921026  0.49503200  1
  H  H150  1  0.71152052  0.08600464  0.50823639  1
  H  H151  1  0.54940002  0.08614431  0.49449963  1
  H  H152  1  0.91099874  0.25003488  0.00087871  1
  H  H153  1  0.05438180  0.42521404  0.49865379  1
  H  H154  1  0.18797768  0.78917969  0.00346591  1
  H  H155  1  0.04275511  0.74776173  1.00784560  1
  H  H156  1  0.34318506  0.08711633  1.00074939  1
  H  H157  1  0.45627057  0.75662835  0.49629025  1
  H  H158  1  0.39262644  0.91671201  0.49406386  1
  H  H159  1  0.85563016  0.58069277  0.50991169  1
  H  H160  1  0.10525447  0.58321484  0.00586473  1
  H  H161  1  0.67705281  0.75170989  0.50118280  1
  H  H162  1  0.30320796  0.71471518  0.02401686  1
  H  H163  1  0.91379285  0.41585881  0.99367047  1
  H  H164  1  0.93083857  0.75165047  0.49735514  1
  H  H165  1  0.32959685  0.23856831  0.49910865  1
  H  H166  1  0.93762356  0.57865689  -0.00374876  1
  H  H167  1  0.21085589  0.91948817  0.49187752  1
  H  H168  1  0.42378511  0.75282988  0.99979092  1
  H  H169  1  0.54326288  0.58009611  0.50439884  1
  H  H170  1  0.57564530  0.73422638  0.99222989  1
  H  H171  1  0.28186321  0.75071800  0.50872470  1
  H  H172  1  0.08063786  0.08005496  0.99235375  1
  H  H173  1  0.07693882  0.24695162  -0.00053908  1
  H  H174  1  0.44857289  0.25366686  0.51077124  1
  H  H175  1  0.32815659  0.58719852  0.50178273  1
  H  H176  1  0.81217767  0.07948358  -0.00301873  1
  H  H177  1  0.67763756  0.58544770  1.00015370  1
  H  H178  1  0.04653900  0.91885715  0.50569805  1
  H  H179  1  0.28897192  0.41834006  -0.00816767  1
  H  H180  1  0.64737151  0.91656281  -0.00797183  1
  H  H181  1  0.16997087  0.23965229  0.50538750  1
  H  H182  1  0.35891985  0.42022473  0.48294928  1
  H  H183  1  0.40453226  0.24916592  0.00923573  1
  H  H184  1  0.45175005  0.91770566  -0.00435621  1
  H  H185  1  0.08860627  0.74744936  0.50369857  1
  H  H186  1  0.20589156  0.41789996  0.51020280  1
  H  H187  1  0.39625950  0.07419154  0.51799037  1
  H  H188  1  0.47636510  0.41416794  1.01044427  1
  H  H189  1  0.03070483  0.24743254  0.50933213  1
  H  H190  1  0.11329142  0.07989309  0.51217928  1
  H  H191  1  0.62310347  0.41370582  0.98147595  1
  Pb  Pb192  1  0.25033771  0.04750685  0.75192663  1
  Pb  Pb193  1  0.25633438  0.38504822  0.75590811  1
  Pb  Pb194  1  0.25056977  0.71415354  0.75390434  1
  Pb  Pb195  1  0.75628887  0.05260985  0.74765883  1
  Pb  Pb196  1  0.75177386  0.37907666  0.74860812  1
  Pb  Pb197  1  0.75151201  0.71454946  0.75430606  1
  Pb  Pb198  1  0.24717867  0.28465571  0.25921402  1
  Pb  Pb199  1  0.24781427  0.61833641  0.24892374  1
  Pb  Pb200  1  0.24761234  0.95261626  0.24891063  1
  Pb  Pb201  1  0.74783619  0.28703958  0.24006176  1
  Pb  Pb202  1  0.74745834  0.61823980  0.25463038  1
  Pb  Pb203  1  0.74838169  0.95274243  0.25282287  1
  Pb  Pb204  1  0.00741034  0.21749424  0.74848398  1
  Pb  Pb205  1  -0.00054238  0.54719195  0.74911947  1
  Pb  Pb206  1  0.00014041  0.88113587  0.74836865  1
  Pb  Pb207  1  0.50224704  0.21474194  0.75101680  1
  Pb  Pb208  1  0.50500973  0.54831156  0.74835960  1
  Pb  Pb209  1  0.50166818  0.88241439  0.75821696  1
  Pb  Pb210  1  -0.00183218  0.12012584  0.24289859  1
  Pb  Pb211  1  -0.00241805  0.45215170  0.25482127  1
  Pb  Pb212  1  -0.00161878  0.78580836  0.24744718  1
  Pb  Pb213  1  0.50099602  0.11927038  0.25754934  1
  Pb  Pb214  1  0.49759818  0.45133408  0.24294049  1
  Pb  Pb215  1  0.49813011  0.78583533  0.25021028  1
  C  C216  1  -0.00617370  0.04713290  0.62684469  1
  C  C217  1  -0.00366180  0.37801712  0.63257711  1
  C  C218  1  0.00636280  0.71065350  0.62957725  1
  C  C219  1  0.50319504  0.04236666  0.63377847  1
  C  C220  1  0.49732754  0.37818243  0.63012480  1
  C  C221  1  0.50160629  0.71345295  0.63468509  1
  C  C222  1  -0.00170158  0.28894630  0.13041515  1
  C  C223  1  0.00167484  0.62090702  0.13148836  1
  C  C224  1  0.00604659  0.95577084  0.12998010  1
  C  C225  1  0.49633741  0.28543970  0.13013919  1
  C  C226  1  0.49974352  0.61994562  0.13373341  1
  C  C227  1  0.49443638  0.95893199  0.13070399  1
  C  C228  1  0.00099505  0.04338249  0.86702886  1
  C  C229  1  0.00615779  0.37986046  0.87243058  1
  C  C230  1  0.00184251  0.71045184  0.87057910  1
  C  C231  1  0.50623980  0.04564072  0.87092185  1
  C  C232  1  0.50377270  0.37751497  0.87209040  1
  C  C233  1  0.49099572  0.70926392  0.86579091  1
  C  C234  1  0.00193456  0.29037982  0.37139586  1
  C  C235  1  -0.00028617  0.62125379  0.36724888  1
  C  C236  1  -0.00139820  0.95661871  0.36605674  1
  C  C237  1  0.49706428  0.28690776  0.36814444  1
  C  C238  1  0.49980038  0.62005097  0.36457279  1
  C  C239  1  0.49969185  0.95283654  0.37080529  1
  C  C240  1  0.25809863  0.21104560  0.63673871  1
  C  C241  1  0.25465918  0.54589616  0.63307352  1
  C  C242  1  0.25228526  0.87960387  0.63380008  1
  C  C243  1  0.74923571  0.21293551  0.62554219  1
  C  C244  1  0.75101420  0.54184123  0.63040374  1
  C  C245  1  0.75635493  0.87908262  0.63386972  1
  C  C246  1  0.25083220  0.12092195  0.12917895  1
  C  C247  1  0.24444493  0.45721114  0.12827999  1
  C  C248  1  0.25745892  0.79034689  0.13121258  1
  C  C249  1  0.75562632  0.12229660  0.12764086  1
  C  C250  1  0.74211329  0.45412787  0.13076485  1
  C  C251  1  0.74890907  0.79113429  0.12947150  1
  C  C252  1  0.25387237  0.20994411  0.87024489  1
  C  C253  1  0.25098965  0.54711568  0.87391034  1
  C  C254  1  0.23850312  0.87975600  0.86768575  1
  C  C255  1  0.75314037  0.21068540  0.86873736  1
  C  C256  1  0.74307317  0.54551013  0.86597915  1
  C  C257  1  0.75008543  0.88022008  0.86904470  1
  C  C258  1  0.25675917  0.12119303  0.36444304  1
  C  C259  1  0.25071842  0.45358340  0.36807712  1
  C  C260  1  0.24843743  0.78905898  0.37059087  1
  C  C261  1  0.74944121  0.12491125  0.37107039  1
  C  C262  1  0.75399801  0.45364600  0.36890478  1
  C  C263  1  0.74098811  0.78806508  0.36533901  1
  C  C264  1  0.78999244  0.90934664  0.54152532  1
  C  C265  1  0.95894058  0.92555610  0.03910167  1
  C  C266  1  0.21158176  0.23201299  0.54336928  1
  C  C267  1  0.98212658  0.07751402  0.52989048  1
  C  C268  1  0.52288310  0.92457388  0.46665037  1
  C  C269  1  0.05521449  0.59319407  0.04181595  1
  C  C270  1  0.03675350  0.25875013  0.03736738  1
  C  C271  1  0.21751468  0.09482001  0.03397815  1
  C  C272  1  0.52290518  0.08259423  0.96381462  1
  C  C273  1  0.95447955  0.25994373  0.03823968  1
  C  C274  1  0.01691813  0.92961206  0.46207049  1
  C  C275  1  0.29895093  0.09594279  0.03682783  1
  C  C276  1  0.06178230  0.07206743  0.54216204  1
  C  C277  1  0.72571388  0.24152926  0.52954498  1
  C  C278  1  0.23892798  0.90693659  0.53550771  1
  C  C279  1  0.70298748  0.42166514  0.45609187  1
  C  C280  1  0.18526906  0.57163793  0.95899965  1
  C  C281  1  0.55827153  0.26450588  0.45563382  1
  C  C282  1  0.71316947  0.57453794  0.95946672  1
  C  C283  1  0.48533942  0.74314421  0.53933459  1
  C  C284  1  0.18385641  0.42499678  0.04305348  1
  C  C285  1  0.77548056  0.90821127  0.96503942  1
  C  C286  1  0.45758407  0.73890795  0.95942221  1
  C  C287  1  0.93916607  0.74378354  0.95470997  1
  C  C288  1  0.26478819  0.57611270  0.97014166  1
  C  C289  1  0.97329728  0.59087079  0.03649711  1
  C  C290  1  0.80372109  0.24062969  0.95690708  1
  C  C291  1  0.80650214  0.23800344  0.53634997  1
  C  C292  1  0.04046894  0.92502182  0.03654475  1
  C  C293  1  0.96829923  0.74054143  0.53693410  1
  C  C294  1  0.53175378  0.40416731  0.53631711  1
  C  C295  1  0.31859964  0.90268065  0.54829068  1
  C  C296  1  0.71250153  0.76158689  0.46010223  1
  C  C297  1  0.93238294  0.25902142  0.45219900  1
  C  C298  1  0.80937804  0.57187330  0.54454620  1
  C  C299  1  0.02163810  0.41094615  0.53969513  1
  C  C300  1  0.70117907  0.42854506  0.03812431  1
  C  C301  1  0.52129039  0.07303803  0.53797838  1
  C  C302  1  0.22576358  0.24230730  0.96377317  1
  C  C303  1  0.02626145  0.58766115  0.46023596  1
  C  C304  1  0.51488719  0.59234322  0.46069072  1
  C  C305  1  0.47812140  0.26284015  0.46680209  1
  C  C306  1  0.69445369  0.90701835  0.95826819  1
  C  C307  1  0.28983938  0.57563127  0.54078506  1
  C  C308  1  0.03552672  0.41270892  0.96721595  1
  C  C309  1  0.23322733  0.42723601  0.46542691  1
  C  C310  1  0.29349885  0.23219848  0.54051235  1
  C  C311  1  0.44203012  0.92631321  0.45952740  1
  N  N312  1  0.44303681  0.06950086  0.54894019  1
  N  N313  1  0.44756512  0.25745908  0.04279292  1
  N  N314  1  0.49639425  0.41503667  0.96446712  1
  N  N315  1  0.43666203  0.59581728  0.45165926  1
  N  N316  1  0.72675255  0.24197357  0.96458678  1
  N  N317  1  0.29219371  0.09338081  0.45857822  1
  N  N318  1  0.96322638  0.07204047  0.96030272  1
  N  N319  1  0.73514166  0.09268559  0.46427927  1
  N  N320  1  0.44636471  0.07810595  0.95649855  1
  N  N321  1  0.25941634  0.75688148  0.46424865  1
  N  N322  1  0.77908752  0.42751682  0.03546822  1
  N  N323  1  0.79163770  0.76057008  0.45632903  1
  N  N324  1  0.70356550  0.09022704  0.03984573  1
  N  N325  1  0.30337037  0.24069570  0.96049910  1
  N  N326  1  0.04127797  0.07151016  0.95674557  1
  N  N327  1  0.53719352  0.73795315  0.95540034  1
  N  N328  1  0.71080133  0.90886899  0.54215803  1
  N  N329  1  0.01684944  0.74190156  0.96504181  1
  N  N330  1  0.94901163  0.58997339  0.45677217  1
  N  N331  1  0.20597665  0.90853368  0.96193643  1
  N  N332  1  0.45231242  0.40569230  0.53738220  1
  N  N333  1  0.94284421  0.40776497  0.54366289  1
  N  N334  1  0.29114702  0.75745239  0.03857059  1
  N  N335  1  0.52529100  0.25640999  0.03517645  1
  N  N336  1  0.79244801  0.57476651  0.95664566  1
  N  N337  1  0.57185172  0.39940974  0.95419890  1
  N  N338  1  0.54869894  0.59245809  0.04330465  1
  N  N339  1  0.56369244  0.73938071  0.54764833  1
  N  N340  1  0.81341084  0.76085536  0.04604687  1
  N  N341  1  0.28240097  0.90772473  0.95941124  1
  N  N342  1  0.73043785  0.57539271  0.53712438  1
  N  N343  1  0.47810221  0.92459624  0.03844410  1
  N  N344  1  0.00932592  0.25452101  0.46488074  1
  N  N345  1  0.93841282  0.93139070  0.45404977  1
  N  N346  1  0.31120535  0.42721814  0.45302092  1
  N  N347  1  0.21062474  0.57470967  0.54060222  1
  N  N348  1  0.77982158  0.42073337  0.46415637  1
  N  N349  1  0.81216673  0.09493930  0.45528105  1
  N  N350  1  0.21573373  0.09373548  0.45712590  1
  N  N351  1  0.26191799  0.42486171  0.03451006  1
  N  N352  1  0.95718691  0.40805124  0.96115151  1
  N  N353  1  0.20827910  0.76489971  0.04063865  1
  N  N354  1  0.04795145  0.74151298  0.53955109  1
  N  N355  1  0.55532901  0.92820069  0.04596933  1
  N  N356  1  0.47228699  0.59103040  0.03859639  1
  N  N357  1  0.78143344  0.08838440  0.03695418  1
  N  N358  1  0.18264094  0.75967168  0.45358766  1
  N  N359  1  0.73657689  0.75880437  0.03609102  1
  N  N360  1  0.06733655  0.05328384  0.60343452  1
  N  N361  1  0.05634072  0.39264708  0.59386895  1
  N  N362  1  0.07121477  0.72140557  0.59609562  1
  N  N363  1  0.55893789  0.05701819  0.59091884  1
  N  N364  1  0.56035049  0.38789667  0.59287132  1
  N  N365  1  0.57195040  0.72117928  0.60726578  1
  N  N366  1  0.42855845  0.27516163  0.10018965  1
  N  N367  1  0.44077936  0.60738066  0.09454606  1
  N  N368  1  0.43951076  0.94581701  0.08865819  1
  N  N369  1  0.93236512  0.27840046  0.09658098  1
  N  N370  1  0.94131383  0.60803475  0.09264390  1
  N  N371  1  0.93882809  0.94477590  0.09832889  1
  N  N372  1  0.43585762  0.05486721  0.89729581  1
  N  N373  1  0.45317409  0.39197360  0.91715696  1
  N  N374  1  0.42875870  0.72260542  0.90366836  1
  N  N375  1  0.93886176  0.05508508  0.90396533  1
  N  N376  1  0.93835867  0.38705630  0.90313977  1
  N  N377  1  0.92979148  0.72504794  0.89604479  1
  N  N378  1  0.05331850  0.27758709  0.41616855  1
  N  N379  1  0.05969850  0.60664747  0.40660208  1
  N  N380  1  0.05528095  0.94475707  0.40841174  1
  N  N381  1  0.56908345  0.27876510  0.39614538  1
  N  N382  1  0.55504558  0.60711619  0.40771846  1
  N  N383  1  0.55764664  0.94069535  0.41337969  1
  N  N384  1  0.32117818  0.21947454  0.59891483  1
  N  N385  1  0.31852116  0.55843185  0.59743306  1
  N  N386  1  0.32638549  0.88650629  0.60785684  1
  N  N387  1  0.81978300  0.22021574  0.59731448  1
  N  N388  1  0.82212766  0.55299871  0.60292861  1
  N  N389  1  0.81963809  0.89154653  0.59764493  1
  N  N390  1  0.18873515  0.10980736  0.08991591  1
  N  N391  1  0.17290759  0.44418843  0.10146530  1
  N  N392  1  0.19203514  0.78965299  0.09666672  1
  N  N393  1  0.68803760  0.11028975  0.09698962  1
  N  N394  1  0.67615916  0.44437329  0.09617944  1
  N  N395  1  0.69568028  0.77946782  0.08554974  1
  N  N396  1  0.19339321  0.22428910  0.90919519  1
  N  N397  1  0.17758594  0.55434507  0.89944957  1
  N  N398  1  0.17736074  0.89086330  0.90539615  1
  N  N399  1  0.69504425  0.22269543  0.90842708  1
  N  N400  1  0.68132638  0.55716645  0.90407986  1
  N  N401  1  0.68015746  0.88972896  0.89744091  1
  N  N402  1  0.31883870  0.11058051  0.40124364  1
  N  N403  1  0.32171966  0.44358062  0.39318278  1
  N  N404  1  0.30076278  0.77765157  0.41515047  1
  N  N405  1  0.82041265  0.11322936  0.39674238  1
  N  N406  1  0.81199534  0.44111971  0.40865689  1
  N  N407  1  0.80745907  0.77709732  0.39699147  1
  N  N408  1  0.44044251  0.27687348  0.41091413  1
  N  N409  1  0.42912853  0.61284386  0.39161660  1
  N  N410  1  0.42916217  0.94394330  0.39853826  1
  N  N411  1  0.92739673  0.27964148  0.39384751  1
  N  N412  1  0.93220296  0.61093555  0.39756481  1
  N  N413  1  0.92884063  0.94817524  0.39414788  1
  N  N414  1  0.06580860  0.05281430  0.90106747  1
  N  N415  1  0.06628742  0.39518368  0.91225614  1
  N  N416  1  0.05650409  0.71915105  0.91407613  1
  N  N417  1  0.56213127  0.06277747  0.91286927  1
  N  N418  1  0.57701904  0.38492434  0.89443000  1
  N  N419  1  0.55755685  0.71600833  0.89839377  1
  N  N420  1  0.06243605  0.27645760  0.09509137  1
  N  N421  1  0.07074525  0.61156174  0.10127862  1
  N  N422  1  0.06874215  0.94319093  0.09141182  1
  N  N423  1  0.55526948  0.27328168  0.09013219  1
  N  N424  1  0.56688702  0.61037319  0.10233998  1
  N  N425  1  0.56482550  0.94709732  0.10420696  1
  N  N426  1  0.43225391  0.04872766  0.60720065  1
  N  N427  1  0.43243865  0.38920869  0.59663759  1
  N  N428  1  0.44582230  0.72723900  0.59223444  1
  N  N429  1  0.94112376  0.06247443  0.58093135  1
  N  N430  1  0.92877880  0.38733621  0.60149765  1
  N  N431  1  0.94230020  0.72254191  0.59320640  1
  N  N432  1  0.19241382  0.11044881  0.39896777  1
  N  N433  1  0.19518537  0.44299514  0.41251550  1
  N  N434  1  0.17670772  0.77736820  0.39459503  1
  N  N435  1  0.69531634  0.11310044  0.41439725  1
  N  N436  1  0.68454055  0.44137471  0.39837269  1
  N  N437  1  0.67982842  0.77793100  0.40452346  1
  N  N438  1  0.32079813  0.22039866  0.90100514  1
  N  N439  1  0.30499594  0.56111474  0.91838741  1
  N  N440  1  0.30383702  0.89012711  0.90095413  1
  N  N441  1  0.82258163  0.22225711  0.89862314  1
  N  N442  1  0.80910545  0.55669628  0.89817773  1
  N  N443  1  0.80899261  0.89208857  0.91118333  1
  N  N444  1  0.31839574  0.11216055  0.09713949  1
  N  N445  1  0.30029579  0.44732723  0.08585646  1
  N  N446  1  0.31731500  0.76934352  0.09745304  1
  N  N447  1  0.81504463  0.10975242  0.08906216  1
  N  N448  1  0.80424007  0.44399731  0.09434817  1
  N  N449  1  0.82038727  0.77935288  0.10476778  1
  N  N450  1  0.19104160  0.21905719  0.60341511  1
  N  N451  1  0.19057276  0.55641187  0.59831803  1
  N  N452  1  0.19832045  0.89210774  0.59012689  1
  N  N453  1  0.69134443  0.22633050  0.58318017  1
  N  N454  1  0.69443958  0.55329066  0.58904681  1
  N  N455  1  0.69161346  0.89007375  0.59994704  1
  Cl  Cl456  1  0.25226732  0.05143275  0.62435365  1
  Cl  Cl457  1  0.24393629  0.39383195  0.61843964  1
  Cl  Cl458  1  0.25965974  0.72889661  0.60628107  1
  Cl  Cl459  1  0.74475964  0.06342662  0.60459945  1
  Cl  Cl460  1  0.74357649  0.38277578  0.61831100  1
  Cl  Cl461  1  0.75818052  0.71860104  0.62286461  1
  Cl  Cl462  1  0.24712560  0.28620905  0.12590826  1
  Cl  Cl463  1  0.25711054  0.62060488  0.11321604  1
  Cl  Cl464  1  0.25643741  0.94408093  0.11731540  1
  Cl  Cl465  1  0.74252281  0.28212968  0.11175356  1
  Cl  Cl466  1  0.75135793  0.61289757  0.12195053  1
  Cl  Cl467  1  0.75099781  0.94917255  0.12083858  1
  Cl  Cl468  1  0.24758663  0.05783416  0.88550041  1
  Cl  Cl469  1  0.26793331  0.39650219  0.89730130  1
  Cl  Cl470  1  0.24203011  0.72525560  0.89238118  1
  Cl  Cl471  1  0.75540305  0.06078940  0.88619790  1
  Cl  Cl472  1  0.75686156  0.38329105  0.88069956  1
  Cl  Cl473  1  0.73872792  0.73006849  0.89305494  1
  Cl  Cl474  1  0.24278597  0.27502447  0.39573157  1
  Cl  Cl475  1  0.24405044  0.61365421  0.38097054  1
  Cl  Cl476  1  0.23880252  0.94243637  0.38385791  1
  Cl  Cl477  1  0.74834180  0.28492096  0.37221034  1
  Cl  Cl478  1  0.74028681  0.60469483  0.39324414  1
  Cl  Cl479  1  0.74228203  0.94854856  0.38563816  1
  Cl  Cl480  1  0.00872899  0.22623423  0.60981347  1
  Cl  Cl481  1  0.00616708  0.55500611  0.61754517  1
  Cl  Cl482  1  0.00943231  0.88912235  0.61288989  1
  Cl  Cl483  1  0.50700706  0.22077741  0.61553238  1
  Cl  Cl484  1  0.50978187  0.55751494  0.61122948  1
  Cl  Cl485  1  0.50896131  0.88665167  0.62796601  1
  Cl  Cl486  1  0.00213960  0.10692933  0.10773855  1
  Cl  Cl487  1  -0.01175851  0.43943902  0.11982317  1
  Cl  Cl488  1  0.01064327  0.77590908  0.11025862  1
  Cl  Cl489  1  0.50529344  0.11147996  0.12661081  1
  Cl  Cl490  1  0.48424542  0.43345337  0.10343645  1
  Cl  Cl491  1  0.50718224  0.77260583  0.10296856  1
  Cl  Cl492  1  0.00876454  0.21921009  0.88201503  1
  Cl  Cl493  1  -0.00804829  0.54937418  0.88132787  1
  Cl  Cl494  1  -0.00689138  0.88721910  0.88337820  1
  Cl  Cl495  1  0.50608317  0.22034663  0.88376382  1
  Cl  Cl496  1  0.49401120  0.55317061  0.87970929  1
  Cl  Cl497  1  0.48715156  0.89179100  0.89480169  1
  Cl  Cl498  1  0.00714089  0.11796584  0.37534560  1
  Cl  Cl499  1  0.00773147  0.44358083  0.39013462  1
  Cl  Cl500  1  -0.00645190  0.77706375  0.38128175  1
  Cl  Cl501  1  0.50830738  0.10965299  0.39569831  1
  Cl  Cl502  1  0.50334052  0.44484149  0.37520499  1
  Cl  Cl503  1  0.48657101  0.77716531  0.38689938  1
  Cl  Cl504  1  0.36282634  0.14747548  0.75597430  1
  Cl  Cl505  1  0.35636235  0.48115503  0.75021968  1
  Cl  Cl506  1  0.36797007  0.81063610  0.75190092  1
  Cl  Cl507  1  0.85926912  0.14775478  0.74367348  1
  Cl  Cl508  1  0.86123419  0.48145000  0.74606654  1
  Cl  Cl509  1  0.85924521  0.81720590  0.75409447  1
  Cl  Cl510  1  0.14069469  0.18182290  0.24494704  1
  Cl  Cl511  1  0.14189040  0.51460896  0.24311536  1
  Cl  Cl512  1  0.13870397  0.84943082  0.24931720  1
  Cl  Cl513  1  0.64067536  0.18390739  0.25062977  1
  Cl  Cl514  1  0.63571642  0.51750231  0.24798974  1
  Cl  Cl515  1  0.63692195  0.85115261  0.24600155  1
  Cl  Cl516  1  0.14187189  0.14962146  0.74701433  1
  Cl  Cl517  1  0.13826230  0.48196309  0.75962680  1
  Cl  Cl518  1  0.14220019  0.81310763  0.74698307  1
  Cl  Cl519  1  0.64198532  0.15111026  0.74798105  1
  Cl  Cl520  1  0.64075313  0.48066714  0.74946245  1
  Cl  Cl521  1  0.63673665  0.81342818  0.75792283  1
  Cl  Cl522  1  0.36087566  0.18511059  0.24596220  1
  Cl  Cl523  1  0.36339159  0.52013988  0.25802109  1
  Cl  Cl524  1  0.35965484  0.85133778  0.25087205  1
  Cl  Cl525  1  0.85961932  0.18636992  0.24964052  1
  Cl  Cl526  1  0.85868041  0.51782955  0.25158036  1
  Cl  Cl527  1  0.86051201  0.85181988  0.24892182  1
  Cl  Cl528  1  0.10764099  0.31537950  0.75172564  1
  Cl  Cl529  1  0.11147162  0.64877268  0.74882170  1
  Cl  Cl530  1  0.11271083  0.98139974  0.74505528  1
  Cl  Cl531  1  0.61075291  0.31707372  0.75628329  1
  Cl  Cl532  1  0.61269690  0.64888298  0.75067715  1
  Cl  Cl533  1  0.60938177  0.98220577  0.75660233  1
  Cl  Cl534  1  0.38763009  0.01857742  0.25829429  1
  Cl  Cl535  1  0.38561129  0.35166833  0.25351407  1
  Cl  Cl536  1  0.38718440  0.68486894  0.25070896  1
  Cl  Cl537  1  0.88535654  0.02028384  0.25534621  1
  Cl  Cl538  1  0.88743837  0.35075639  0.25351123  1
  Cl  Cl539  1  0.88570426  0.68530186  0.25401599  1
  Cl  Cl540  1  0.39092236  0.31679838  0.74552522  1
  Cl  Cl541  1  0.38742746  0.64598936  0.74577724  1
  Cl  Cl542  1  0.38514727  0.97900903  0.75120111  1
  Cl  Cl543  1  0.89015732  0.31438969  0.75129634  1
  Cl  Cl544  1  0.89082304  0.64995544  0.75573142  1
  Cl  Cl545  1  0.89220721  0.98460133  0.74700052  1
  Cl  Cl546  1  0.10790742  0.01780989  0.24662879  1
  Cl  Cl547  1  0.10711630  0.34966928  0.25073284  1
  Cl  Cl548  1  0.10838551  0.68378498  0.24902247  1
  Cl  Cl549  1  0.60745279  0.01564827  0.24990863  1
  Cl  Cl550  1  0.60599932  0.34952731  0.24613101  1
  Cl  Cl551  1  0.60963921  0.68516170  0.24810454  1
