# generated using pymatgen
data_H8PbC4(N3Cl2)2
_symmetry_space_group_name_H-M   'P 1'
_cell_length_a   16.62955367
_cell_length_b   22.50901727
_cell_length_c   21.59089486
_cell_angle_alpha   89.99879263
_cell_angle_beta   89.99148178
_cell_angle_gamma   90.00299190
_symmetry_Int_Tables_number   1
_chemical_formula_structural   H8PbC4(N3Cl2)2
_chemical_formula_sum   'H192 Pb24 C96 N144 Cl96'
_cell_volume   8081.79378004
_cell_formula_units_Z   24
loop_
 _symmetry_equiv_pos_site_id
 _symmetry_equiv_pos_as_xyz
  1  'x, y, z'
loop_
 _atom_site_type_symbol
 _atom_site_label
 _atom_site_symmetry_multiplicity
 _atom_site_fract_x
 _atom_site_fract_y
 _atom_site_fract_z
 _atom_site_occupancy
  H  H0  1  -0.00770422  0.03298507  0.67852969  1
  H  H1  1  0.00285948  0.36432120  0.67893704  1
  H  H2  1  -0.00391295  0.69589227  0.67956327  1
  H  H3  1  0.50598224  0.03180011  0.67836485  1
  H  H4  1  0.49600980  0.36508945  0.67793554  1
  H  H5  1  0.49895387  0.69409741  0.67814142  1
  H  H6  1  0.00289105  0.30473844  0.17736515  1
  H  H7  1  0.00782445  0.63420456  0.17809634  1
  H  H8  1  -0.00998273  0.96800399  0.18398845  1
  H  H9  1  0.50279702  0.30283182  0.17407839  1
  H  H10  1  0.49644373  0.63146112  0.18159111  1
  H  H11  1  0.50923926  0.96824754  0.18200791  1
  H  H12  1  0.01095141  0.03475466  0.82387805  1
  H  H13  1  0.00619957  0.36161892  0.81980146  1
  H  H14  1  0.01622391  0.69511270  0.82110608  1
  H  H15  1  0.50337185  0.03197325  0.82097757  1
  H  H16  1  0.49348198  0.36233314  0.82155618  1
  H  H17  1  0.49643472  0.69573563  0.81662843  1
  H  H18  1  0.01256403  0.30398398  0.32279660  1
  H  H19  1  -0.01225448  0.63534345  0.32045934  1
  H  H20  1  0.01168995  0.97032463  0.31845455  1
  H  H21  1  0.48703282  0.30121596  0.32169856  1
  H  H22  1  0.51409200  0.63369070  0.32560293  1
  H  H23  1  0.49638325  0.96829956  0.31842138  1
  H  H24  1  0.24937641  0.18644285  0.67590617  1
  H  H25  1  0.24217268  0.53166480  0.67930504  1
  H  H26  1  0.25646402  0.86272749  0.68006439  1
  H  H27  1  0.74972454  0.19811677  0.67970490  1
  H  H28  1  0.75412665  0.52897264  0.67705780  1
  H  H29  1  0.73915301  0.86244722  0.67919036  1
  H  H30  1  0.24516591  0.13999854  0.17624935  1
  H  H31  1  0.25194797  0.46558810  0.17892462  1
  H  H32  1  0.25609101  0.80361892  0.18142747  1
  H  H33  1  0.74817383  0.14080145  0.18198579  1
  H  H34  1  0.74296046  0.46925676  0.18088547  1
  H  H35  1  0.74018820  0.80154240  0.18036644  1
  H  H36  1  0.25362497  0.19543743  0.82360379  1
  H  H37  1  0.25260621  0.53211581  0.81917436  1
  H  H38  1  0.23747197  0.86569781  0.82152830  1
  H  H39  1  0.75267989  0.19421808  0.82369248  1
  H  H40  1  0.74189721  0.53159129  0.82587252  1
  H  H41  1  0.75599337  0.86366813  0.81784190  1
  H  H42  1  0.26386475  0.13432319  0.32079877  1
  H  H43  1  0.25882255  0.46943523  0.32328332  1
  H  H44  1  0.25601114  0.80191226  0.31944773  1
  H  H45  1  0.74424031  0.13929333  0.32371031  1
  H  H46  1  0.74091188  0.46736961  0.32129336  1
  H  H47  1  0.75482146  0.80204092  0.31946724  1
  H  H48  1  0.11988862  0.05266313  0.61322471  1
  H  H49  1  0.13260707  0.38928977  0.61291957  1
  H  H50  1  0.13065311  0.71849307  0.62151160  1
  H  H51  1  0.61660562  0.05991785  0.59743852  1
  H  H52  1  0.63159040  0.38510700  0.61749608  1
  H  H53  1  0.63071159  0.71617488  0.61464909  1
  H  H54  1  0.37438378  0.28209519  0.10981445  1
  H  H55  1  0.37291316  0.61063773  0.10681924  1
  H  H56  1  0.37244990  0.94907187  0.12653191  1
  H  H57  1  0.87661816  0.28070124  0.10786980  1
  H  H58  1  0.86803722  0.61483693  0.12343502  1
  H  H59  1  0.87238447  0.94779667  0.10783961  1
  H  H60  1  0.36457150  0.05020334  0.87644833  1
  H  H61  1  0.37629709  0.38754085  0.89771285  1
  H  H62  1  0.37163693  0.71927558  0.88847586  1
  H  H63  1  0.87062612  0.05122951  0.87370761  1
  H  H64  1  0.87549205  0.38405456  0.88428048  1
  H  H65  1  0.87569898  0.71343689  0.87385693  1
  H  H66  1  0.12038807  0.27304823  0.40507319  1
  H  H67  1  0.12707436  0.61668188  0.37593768  1
  H  H68  1  0.11876579  0.94259832  0.40131098  1
  H  H69  1  0.62586383  0.28420330  0.37848713  1
  H  H70  1  0.62058866  0.60706274  0.40779634  1
  H  H71  1  0.61969791  0.94478024  0.38870640  1
  H  H72  1  0.37334835  0.22014027  0.60984987  1
  H  H73  1  0.37488963  0.55220546  0.61901361  1
  H  H74  1  0.37696722  0.88587625  0.60591253  1
  H  H75  1  0.87401338  0.22160093  0.60657125  1
  H  H76  1  0.86655935  0.55723391  0.59718095  1
  H  H77  1  0.87696069  0.88539937  0.62567530  1
  H  H78  1  0.13718903  0.11031868  0.09321661  1
  H  H79  1  0.12631360  0.44551809  0.10763983  1
  H  H80  1  0.12966302  0.77823075  0.11406779  1
  H  H81  1  0.63068293  0.11408585  0.10479345  1
  H  H82  1  0.62540694  0.44532963  0.10706441  1
  H  H83  1  0.63045215  0.77328323  0.09822611  1
  H  H84  1  0.12729833  0.21880699  0.89263635  1
  H  H85  1  0.13518279  0.55356158  0.89381893  1
  H  H86  1  0.13280651  0.89493851  0.90582798  1
  H  H87  1  0.62539593  0.22036983  0.89080322  1
  H  H88  1  0.63479714  0.55597324  0.90844480  1
  H  H89  1  0.62804793  0.88767372  0.88269790  1
  H  H90  1  0.37721486  0.10709604  0.39931951  1
  H  H91  1  0.36043319  0.44221130  0.41055278  1
  H  H92  1  0.37176134  0.77553490  0.39565923  1
  H  H93  1  0.88028902  0.11589262  0.37979634  1
  H  H94  1  0.86774169  0.44497289  0.38698881  1
  H  H95  1  0.86493267  0.77659000  0.39983702  1
  H  H96  1  0.38068452  0.27207735  0.40665550  1
  H  H97  1  0.37571582  0.61793756  0.37899364  1
  H  H98  1  0.37158384  0.94750792  0.38961893  1
  H  H99  1  0.87480605  0.28189102  0.37715947  1
  H  H100  1  0.88243177  0.60568103  0.40582431  1
  H  H101  1  0.87278291  0.95064604  0.37551379  1
  H  H102  1  0.11482575  0.05864732  0.90936750  1
  H  H103  1  0.12422494  0.38741426  0.89644884  1
  H  H104  1  0.11848670  0.72761921  0.90723321  1
  H  H105  1  0.61182399  0.05841336  0.90078804  1
  H  H106  1  0.62490040  0.38403688  0.88656106  1
  H  H107  1  0.62058641  0.71915986  0.88598186  1
  H  H108  1  0.12591958  0.27902221  0.10705345  1
  H  H109  1  0.11440084  0.60711523  0.09438804  1
  H  H110  1  0.12139556  0.94865915  0.12147351  1
  H  H111  1  0.62331964  0.28039946  0.10189470  1
  H  H112  1  0.62143869  0.61105489  0.10944789  1
  H  H113  1  0.61930389  0.94521364  0.10079015  1
  H  H114  1  0.36955322  0.05274158  0.62124790  1
  H  H115  1  0.38522806  0.39392287  0.59630898  1
  H  H116  1  0.38253608  0.72268847  0.60187305  1
  H  H117  1  0.87086924  0.05725075  0.60530521  1
  H  H118  1  0.88484112  0.38989212  0.60290484  1
  H  H119  1  0.88271561  0.72326833  0.60035161  1
  H  H120  1  0.12952619  0.11568934  0.38291105  1
  H  H121  1  0.11653632  0.44934923  0.37218652  1
  H  H122  1  0.12382488  0.78017416  0.38340078  1
  H  H123  1  0.63371534  0.11034491  0.40456855  1
  H  H124  1  0.61873495  0.44772768  0.39476009  1
  H  H125  1  0.61786188  0.78121878  0.37400614  1
  H  H126  1  0.37626050  0.22379687  0.89346741  1
  H  H127  1  0.38426902  0.54935488  0.88397343  1
  H  H128  1  0.37773629  0.88647055  0.87337026  1
  H  H129  1  0.87448476  0.22161934  0.89478116  1
  H  H130  1  0.87983754  0.54932307  0.87871250  1
  H  H131  1  0.87714163  0.89055219  0.89176898  1
  H  H132  1  0.38296376  0.11830857  0.11859163  1
  H  H133  1  0.37546235  0.44431907  0.10732666  1
  H  H134  1  0.37746326  0.78058007  0.10868260  1
  H  H135  1  0.87905644  0.11746694  0.11472810  1
  H  H136  1  0.87447967  0.44963381  0.11669916  1
  H  H137  1  0.87704680  0.78127912  0.12453961  1
  H  H138  1  0.12510444  0.21989784  0.61002518  1
  H  H139  1  0.12679803  0.55708998  0.60296037  1
  H  H140  1  0.12934537  0.88730624  0.61401284  1
  H  H141  1  0.62575411  0.22188034  0.60683052  1
  H  H142  1  0.61877264  0.55005535  0.61792510  1
  H  H143  1  0.63116514  0.89277065  0.59674510  1
  H  H144  1  0.31519857  0.88705107  0.50099907  1
  H  H145  1  0.31643370  0.78004543  0.00271739  1
  H  H146  1  0.54625170  0.08611027  0.49593638  1
  H  H147  1  0.57474059  0.74337553  0.99799641  1
  H  H148  1  0.08148582  0.08348286  0.50036001  1
  H  H149  1  0.69999310  0.74200861  -0.00038589  1
  H  H150  1  0.70480391  0.08464259  0.50627541  1
  H  H151  1  0.82692160  0.41297885  0.49908133  1
  H  H152  1  0.39291626  0.92440525  0.01097632  1
  H  H153  1  0.94839997  0.74591593  0.49712287  1
  H  H154  1  0.19102583  0.57674833  1.00592077  1
  H  H155  1  0.56163745  0.89720073  0.48314851  1
  H  H156  1  0.66909927  0.91494656  0.99615071  1
  H  H157  1  0.42868167  0.94833649  0.49600856  1
  H  H158  1  0.67846937  0.41645004  -0.00234146  1
  H  H159  1  0.55260480  0.92362783  -0.00774418  1
  H  H160  1  0.36013336  0.08687381  0.00865421  1
  H  H161  1  0.34947870  0.58447796  0.50675311  1
  H  H162  1  0.18284904  0.58749780  0.49629522  1
  H  H163  1  0.92894110  0.93499137  -0.00495229  1
  H  H164  1  0.85384972  0.75068210  0.01111568  1
  H  H165  1  0.04038712  0.57884924  -0.00520479  1
  H  H166  1  0.45717842  0.42238496  0.49619239  1
  H  H167  1  0.96059729  0.58052957  0.50444783  1
  H  H168  1  0.79891252  0.74818522  0.50628085  1
  H  H169  1  0.88399913  0.08218807  -0.01103748  1
  H  H170  1  0.18185843  0.93649429  0.51926423  1
  H  H171  1  0.18448822  0.72856447  0.02025095  1
  H  H172  1  0.28102063  0.41739650  0.50876502  1
  H  H173  1  0.42341072  0.72215377  0.99652683  1
  H  H174  1  0.08744032  0.92945931  0.00535030  1
  H  H175  1  0.04648805  0.24902777  0.50594623  1
  H  H176  1  0.18583552  0.23292586  0.50354376  1
  H  H177  1  0.85575904  0.91838813  0.51289957  1
  H  H178  1  0.91201809  0.41437093  0.99434659  1
  H  H179  1  0.31499718  0.23710177  0.50412787  1
  H  H180  1  0.45807298  0.24879769  0.50599234  1
  H  H181  1  0.54419938  0.09008772  1.00693645  1
  H  H182  1  0.10300806  0.74857363  0.50877037  1
  H  H183  1  0.79732613  0.58209317  0.49437154  1
  H  H184  1  0.21028996  0.91807774  1.00645947  1
  H  H185  1  0.70272853  0.91540304  0.49592332  1
  H  H186  1  0.63707666  0.75052324  0.48759979  1
  H  H187  1  0.04633474  0.91669796  0.50549715  1
  H  H188  1  0.86272156  0.57958325  -0.00544683  1
  H  H189  1  0.09320583  0.41482379  0.50505583  1
  H  H190  1  0.82044229  0.90397748  0.99881895  1
  H  H191  1  0.03707791  0.75260766  1.00467041  1
  Pb  Pb192  1  0.24341959  0.04841835  0.75416581  1
  Pb  Pb193  1  0.25158241  0.38022172  0.74879065  1
  Pb  Pb194  1  0.25109729  0.71278316  0.75746296  1
  Pb  Pb195  1  0.74694716  0.04642544  0.74434514  1
  Pb  Pb196  1  0.75137829  0.37954027  0.74973153  1
  Pb  Pb197  1  0.74895371  0.71291403  0.75083396  1
  Pb  Pb198  1  0.24879622  0.28569144  0.25954692  1
  Pb  Pb199  1  0.25047918  0.61828930  0.24259432  1
  Pb  Pb200  1  0.24699494  0.95379488  0.25554663  1
  Pb  Pb201  1  0.74934590  0.28806198  0.24441895  1
  Pb  Pb202  1  0.74472129  0.61757830  0.26119325  1
  Pb  Pb203  1  0.74906379  0.95327054  0.24696357  1
  Pb  Pb204  1  -0.00330995  0.21485343  0.74619748  1
  Pb  Pb205  1  0.00046885  0.54679903  0.74748444  1
  Pb  Pb206  1  0.00115413  0.87983177  0.75544039  1
  Pb  Pb207  1  0.50033334  0.21343163  0.74492081  1
  Pb  Pb208  1  0.50304167  0.54468400  0.75483674  1
  Pb  Pb209  1  0.49695483  0.88126266  0.74077016  1
  Pb  Pb210  1  0.00042966  0.12182405  0.24553822  1
  Pb  Pb211  1  -0.00194263  0.45280951  0.24822928  1
  Pb  Pb212  1  -0.00005327  0.78232228  0.25367970  1
  Pb  Pb213  1  0.50171330  0.12038005  0.25593133  1
  Pb  Pb214  1  0.49411563  0.45093709  0.25737269  1
  Pb  Pb215  1  0.49824113  0.78652053  0.24195920  1
  C  C216  1  -0.00521035  0.04774604  0.63084965  1
  C  C217  1  0.00745797  0.38053835  0.63179299  1
  C  C218  1  0.00289562  0.71148782  0.63214708  1
  C  C219  1  0.49761879  0.04709449  0.63135444  1
  C  C220  1  0.50401049  0.38040387  0.63074437  1
  C  C221  1  0.50393397  0.71049255  0.63119341  1
  C  C222  1  0.00161617  0.28832502  0.13037682  1
  C  C223  1  -0.00294041  0.61924618  0.13107647  1
  C  C224  1  -0.00520056  0.95469771  0.13578677  1
  C  C225  1  0.50001370  0.28805224  0.12613849  1
  C  C226  1  0.49659203  0.61772500  0.13338641  1
  C  C227  1  0.49984951  0.95434450  0.13436522  1
  C  C228  1  -0.00229461  0.04847540  0.87091065  1
  C  C229  1  0.00200829  0.37769718  0.86695575  1
  C  C230  1  0.00375101  0.71116879  0.86754299  1
  C  C231  1  0.49327810  0.04704925  0.86816604  1
  C  C232  1  0.49848973  0.37767056  0.86886775  1
  C  C233  1  0.49524111  0.71039464  0.86457082  1
  C  C234  1  0.00309743  0.28801182  0.36943198  1
  C  C235  1  -0.00139761  0.62034907  0.36750790  1
  C  C236  1  0.00068028  0.95483776  0.36532390  1
  C  C237  1  0.49717335  0.28690913  0.36899761  1
  C  C238  1  0.50318124  0.61944357  0.37265196  1
  C  C239  1  0.49556175  0.95338739  0.36627418  1
  C  C240  1  0.24921976  0.20728804  0.63056704  1
  C  C241  1  0.24809269  0.54741594  0.63195008  1
  C  C242  1  0.25439557  0.87834023  0.63251930  1
  C  C243  1  0.74975578  0.21322012  0.63196481  1
  C  C244  1  0.74683057  0.54421451  0.62988245  1
  C  C245  1  0.74886480  0.87880863  0.63231137  1
  C  C246  1  0.25561202  0.12324061  0.12975108  1
  C  C247  1  0.25097491  0.45207902  0.13092019  1
  C  C248  1  0.25447476  0.78781926  0.13387156  1
  C  C249  1  0.75270527  0.12434994  0.13484420  1
  C  C250  1  0.74731428  0.45501481  0.13305696  1
  C  C251  1  0.74906655  0.78609401  0.13310447  1
  C  C252  1  0.25223259  0.21217035  0.87049485  1
  C  C253  1  0.25717540  0.54524115  0.86728515  1
  C  C254  1  0.24892773  0.88087336  0.86847104  1
  C  C255  1  0.75067959  0.21150632  0.87033517  1
  C  C256  1  0.75311457  0.54589363  0.87301887  1
  C  C257  1  0.75448752  0.87951263  0.86541981  1
  C  C258  1  0.25656150  0.11891525  0.36782988  1
  C  C259  1  0.24538689  0.45399719  0.36979544  1
  C  C260  1  0.25004179  0.78645549  0.36656507  1
  C  C261  1  0.75243154  0.12288343  0.37037300  1
  C  C262  1  0.74303062  0.45307148  0.36909351  1
  C  C263  1  0.74539125  0.78673108  0.36667010  1
  C  C264  1  0.45457824  0.26196700  0.03573957  1
  C  C265  1  0.21921555  0.57584128  0.53624200  1
  C  C266  1  0.27806009  0.75634519  0.46062510  1
  C  C267  1  0.73260511  0.57351136  0.96968903  1
  C  C268  1  0.03724223  0.25605948  0.03920534  1
  C  C269  1  0.30102568  0.57443725  0.54183541  1
  C  C270  1  0.30743256  0.56653569  0.95900004  1
  C  C271  1  0.96304729  0.93657444  0.03801124  1
  C  C272  1  0.52160156  0.59170349  0.46906613  1
  C  C273  1  0.17807112  0.42753668  0.45381549  1
  C  C274  1  0.76765967  0.75932151  0.46357801  1
  C  C275  1  0.04484583  0.93569254  0.04302433  1
  C  C276  1  0.43186303  0.07271786  0.95529266  1
  C  C277  1  0.52210499  0.93152864  0.03607420  1
  C  C278  1  0.53469716  0.26133765  0.03324369  1
  C  C279  1  0.94165789  0.25731245  0.45510947  1
  C  C280  1  0.68987589  0.57264717  0.54171604  1
  C  C281  1  0.28752030  0.24538461  0.96145735  1
  C  C282  1  0.28730177  0.42777525  0.03724925  1
  C  C283  1  0.28150873  0.08866301  0.46243227  1
  C  C284  1  0.80806178  0.76024435  0.04584255  1
  C  C285  1  0.31351175  0.90961813  0.95313069  1
  C  C286  1  0.93388029  0.07327140  0.95738060  1
  C  C287  1  0.51276321  0.07650044  0.96492589  1
  C  C288  1  0.81141510  0.09193337  0.45695154  1
  C  C289  1  0.70808381  0.90632823  0.95672021  1
  C  C290  1  0.70441550  0.42676545  0.46306869  1
  C  C291  1  0.81319267  0.57101429  0.96114685  1
  C  C292  1  0.78591953  0.42504726  0.46200474  1
  C  C293  1  0.22625482  0.56798943  0.96445973  1
  C  C294  1  0.53681348  0.73430537  0.95803411  1
  C  C295  1  0.46955649  0.40655416  0.96291310  1
  C  C296  1  0.68626634  0.76020322  0.45438635  1
  C  C297  1  0.05808287  0.73965016  0.54437212  1
  C  C298  1  0.95752072  0.07462639  0.53650063  1
  C  C299  1  0.79734324  0.42986724  0.04224747  1
  C  C300  1  0.01411165  0.07541030  0.96827630  1
  C  C301  1  0.93475358  0.59251580  0.04483391  1
  C  C302  1  0.43892579  0.07726792  0.54438252  1
  C  C303  1  0.55098123  0.73793193  0.54108577  1
  C  C304  1  0.80915036  0.90863651  0.54697545  1
  C  C305  1  0.44104256  0.93244919  0.04516488  1
  C  C306  1  0.78466804  0.24456809  0.96157193  1
  C  C307  1  0.01762073  0.92795503  0.46162975  1
  C  C308  1  0.44225367  0.59567822  0.45934443  1
  C  C309  1  0.03924929  0.07370224  0.53761586  1
  C  C310  1  0.95678392  0.40453243  0.95752083  1
  C  C311  1  0.71608713  0.42791230  0.03705594  1
  N  N312  1  0.76836539  0.57441917  0.53583641  1
  N  N313  1  0.06210796  0.59446905  0.45288364  1
  N  N314  1  0.01437290  0.74374588  0.96101359  1
  N  N315  1  0.29328510  0.75953131  0.04144873  1
  N  N316  1  0.20406846  0.09150724  0.45842779  1
  N  N317  1  0.56162027  0.40579294  0.54278172  1
  N  N318  1  0.98511486  0.59015213  0.46149541  1
  N  N319  1  0.21009493  0.42801141  0.03609478  1
  N  N320  1  0.20884198  0.90103238  0.54071081  1
  N  N321  1  0.72248661  0.09318080  0.04106128  1
  N  N322  1  0.54686005  0.40582433  0.96053196  1
  N  N323  1  0.73035745  0.91095925  0.53824476  1
  N  N324  1  0.55959630  0.26246611  0.45523488  1
  N  N325  1  0.45994882  0.59437591  0.03844137  1
  N  N326  1  0.47386064  0.74085788  0.53556750  1
  N  N327  1  0.78776436  0.90700562  0.95879329  1
  N  N328  1  0.79838047  0.09409590  0.04491548  1
  N  N329  1  0.23364165  0.09163168  0.03469207  1
  N  N330  1  0.01970622  0.25642925  0.46371721  1
  N  N331  1  0.53608589  0.59427214  0.03914215  1
  N  N332  1  0.29041998  0.25096722  0.54560078  1
  N  N333  1  0.72920975  0.75867803  0.03769187  1
  N  N334  1  0.70740232  0.24400595  0.96159901  1
  N  N335  1  0.97880746  0.74226181  0.53843353  1
  N  N336  1  0.21023936  0.24348427  0.96264640  1
  N  N337  1  0.23569980  0.91130106  0.96367354  1
  N  N338  1  0.45666084  0.73355391  0.95841432  1
  N  N339  1  0.93939389  0.93026120  0.45280540  1
  N  N340  1  0.01283601  0.59002020  0.03580876  1
  N  N341  1  0.45385589  0.92751924  0.45833454  1
  N  N342  1  0.48429763  0.40866689  0.53693701  1
  N  N343  1  0.20066438  0.75876615  0.45797654  1
  N  N344  1  0.51729929  0.07793435  0.53717032  1
  N  N345  1  0.73303180  0.09130934  0.46435162  1
  N  N346  1  0.48259019  0.25829384  0.46322418  1
  N  N347  1  0.31072152  0.09500883  0.04376639  1
  N  N348  1  0.21043722  0.76453101  0.04169221  1
  N  N349  1  0.78784645  0.24064670  0.53843267  1
  N  N350  1  0.93784464  0.73794588  0.95148609  1
  N  N351  1  0.97283891  0.40705767  0.53725045  1
  N  N352  1  0.03576950  0.40666065  0.96200245  1
  N  N353  1  0.05087769  0.40665148  0.54177673  1
  N  N354  1  0.29127309  0.90657679  0.53988726  1
  N  N355  1  0.71170988  0.24099018  0.53853183  1
  N  N356  1  0.20762475  0.24968226  0.54476500  1
  N  N357  1  0.95997630  0.25656401  0.03819896  1
  N  N358  1  0.53629178  0.93219325  0.45969756  1
  N  N359  1  0.25567673  0.42473061  0.46552967  1
  N  N360  1  0.06110550  0.05703242  0.59743605  1
  N  N361  1  0.07321751  0.39004373  0.59893507  1
  N  N362  1  0.07321747  0.72223455  0.60299184  1
  N  N363  1  0.55460026  0.05764469  0.59002856  1
  N  N364  1  0.57357800  0.38842974  0.60128336  1
  N  N365  1  0.57214896  0.72039376  0.59921858  1
  N  N366  1  0.43263536  0.27787676  0.09260355  1
  N  N367  1  0.43377079  0.60864409  0.09679914  1
  N  N368  1  0.42887023  0.94640389  0.10644764  1
  N  N369  1  0.93742735  0.27698248  0.09630007  1
  N  N370  1  0.92462812  0.61010289  0.10384942  1
  N  N371  1  0.93309056  0.94785216  0.09634109  1
  N  N372  1  0.42105809  0.05526191  0.89596550  1
  N  N373  1  0.43725935  0.38994782  0.90790446  1
  N  N374  1  0.43167329  0.71515435  0.90090492  1
  N  N375  1  0.92521549  0.05637956  0.89587854  1
  N  N376  1  0.93459058  0.38761114  0.89923825  1
  N  N377  1  0.93169518  0.71976754  0.89268189  1
  N  N378  1  0.05894568  0.27746854  0.41172255  1
  N  N379  1  0.06980842  0.61168261  0.39406180  1
  N  N380  1  0.05681564  0.94275887  0.40817280  1
  N  N381  1  0.56827428  0.27912512  0.39621043  1
  N  N382  1  0.55924908  0.60615072  0.41576856  1
  N  N383  1  0.55889912  0.93848826  0.39978320  1
  N  N384  1  0.31302247  0.22093354  0.59696098  1
  N  N385  1  0.31692604  0.55707405  0.60163721  1
  N  N386  1  0.31645519  0.88290569  0.59451754  1
  N  N387  1  0.81310247  0.22317784  0.59611560  1
  N  N388  1  0.80467699  0.55481838  0.58924251  1
  N  N389  1  0.82067706  0.89021424  0.60575429  1
  N  N390  1  0.19954898  0.10901383  0.08812831  1
  N  N391  1  0.18708104  0.44331311  0.09578897  1
  N  N392  1  0.19007635  0.77249869  0.10196010  1
  N  N393  1  0.69259686  0.11233272  0.09651486  1
  N  N394  1  0.68600471  0.44394062  0.09495636  1
  N  N395  1  0.69270557  0.77386479  0.09186550  1
  N  N396  1  0.18788763  0.22222085  0.90486344  1
  N  N397  1  0.19590542  0.55478821  0.90602218  1
  N  N398  1  0.19469203  0.89077600  0.91201307  1
  N  N399  1  0.68584078  0.22297334  0.90369277  1
  N  N400  1  0.69647874  0.55831554  0.91675291  1
  N  N401  1  0.68721709  0.89089433  0.89858922  1
  N  N402  1  0.31607114  0.10521896  0.40809311  1
  N  N403  1  0.29769700  0.44309789  0.41424679  1
  N  N404  1  0.31062792  0.77309965  0.40587031  1
  N  N405  1  0.82346100  0.11045884  0.39847970  1
  N  N406  1  0.80863423  0.44176850  0.40250034  1
  N  N407  1  0.80323278  0.77590773  0.40855578  1
  N  N408  1  0.44257063  0.27499525  0.41176747  1
  N  N409  1  0.43115177  0.61224743  0.40027828  1
  N  N410  1  0.43169140  0.95006983  0.40253319  1
  N  N411  1  0.93123786  0.27644991  0.39676082  1
  N  N412  1  0.94471103  0.60810088  0.41067527  1
  N  N413  1  0.93050950  0.94662819  0.39270310  1
  N  N414  1  0.05260987  0.06038406  0.91629788  1
  N  N415  1  0.06248200  0.38963219  0.90505551  1
  N  N416  1  0.05620209  0.72469747  0.91133406  1
  N  N417  1  0.55008318  0.05989821  0.90960571  1
  N  N418  1  0.56505310  0.38728836  0.90052881  1
  N  N419  1  0.56049518  0.72199177  0.89980032  1
  N  N420  1  0.06578277  0.27542788  0.09447281  1
  N  N421  1  0.05210344  0.60752653  0.08881630  1
  N  N422  1  0.06315721  0.94661992  0.10397530  1
  N  N423  1  0.56338785  0.27701391  0.08834812  1
  N  N424  1  0.56046751  0.60842901  0.09795265  1
  N  N425  1  0.55773589  0.94515980  0.09203731  1
  N  N426  1  0.42659040  0.05847359  0.60273761  1
  N  N427  1  0.44728606  0.39274428  0.58978426  1
  N  N428  1  0.44427237  0.72267304  0.59297613  1
  N  N429  1  0.93116531  0.05906951  0.59306554  1
  N  N430  1  0.94640050  0.39140138  0.59344843  1
  N  N431  1  0.94479237  0.72181816  0.59177123  1
  N  N432  1  0.18861912  0.11014009  0.39805194  1
  N  N433  1  0.17159923  0.44430964  0.39403503  1
  N  N434  1  0.18298543  0.77785377  0.39802777  1
  N  N435  1  0.69564929  0.11222416  0.41176422  1
  N  N436  1  0.67854581  0.44365932  0.40709685  1
  N  N437  1  0.67435718  0.77698846  0.39393291  1
  N  N438  1  0.31618136  0.22643270  0.90600995  1
  N  N439  1  0.32573297  0.55326707  0.90028703  1
  N  N440  1  0.32208674  0.89168583  0.89407864  1
  N  N441  1  0.81424123  0.22497619  0.90664224  1
  N  N442  1  0.82444447  0.55386672  0.89974266  1
  N  N443  1  0.81636431  0.88708165  0.90305393  1
  N  N444  1  0.32510648  0.11446395  0.10156428  1
  N  N445  1  0.31537009  0.44219798  0.09429448  1
  N  N446  1  0.31718149  0.78341240  0.09646932  1
  N  N447  1  0.81884439  0.11260488  0.10297079  1
  N  N448  1  0.81586713  0.44605267  0.10029176  1
  N  N449  1  0.82061278  0.77774369  0.10488322  1
  N  N450  1  0.18533496  0.22013141  0.59681779  1
  N  N451  1  0.18752941  0.55907616  0.59273437  1
  N  N452  1  0.18934587  0.89348168  0.60120099  1
  N  N453  1  0.68653531  0.22415810  0.59647866  1
  N  N454  1  0.67649860  0.55496450  0.60024659  1
  N  N455  1  0.69320390  0.88931988  0.58994092  1
  Cl  Cl456  1  0.24553766  0.04722996  0.62146164  1
  Cl  Cl457  1  0.26222851  0.39529013  0.60368978  1
  Cl  Cl458  1  0.25893763  0.72469017  0.62651888  1
  Cl  Cl459  1  0.73956230  0.05935172  0.60351711  1
  Cl  Cl460  1  0.76158494  0.39140010  0.61568620  1
  Cl  Cl461  1  0.76061688  0.71944481  0.61593561  1
  Cl  Cl462  1  0.24841180  0.28327899  0.12921715  1
  Cl  Cl463  1  0.23952253  0.61446302  0.10664961  1
  Cl  Cl464  1  0.24450073  0.94087529  0.11742966  1
  Cl  Cl465  1  0.75202933  0.28135688  0.11358123  1
  Cl  Cl466  1  0.74256889  0.61796294  0.12878697  1
  Cl  Cl467  1  0.74592018  0.93946795  0.10984712  1
  Cl  Cl468  1  0.23490069  0.05060409  0.88544719  1
  Cl  Cl469  1  0.25066239  0.38530116  0.87948845  1
  Cl  Cl470  1  0.24308058  0.72940482  0.89993975  1
  Cl  Cl471  1  0.73557296  0.05067539  0.87392943  1
  Cl  Cl472  1  0.74956279  0.38584213  0.88155839  1
  Cl  Cl473  1  0.74284367  0.72233132  0.88876372  1
  Cl  Cl474  1  0.25257895  0.26656825  0.40363947  1
  Cl  Cl475  1  0.24997887  0.61682362  0.37416528  1
  Cl  Cl476  1  0.24659139  0.93914828  0.39413515  1
  Cl  Cl477  1  0.75011093  0.28383754  0.37470600  1
  Cl  Cl478  1  0.76013668  0.60515081  0.39958304  1
  Cl  Cl479  1  0.74043131  0.94518514  0.38950318  1
  Cl  Cl480  1  0.00270438  0.22583126  0.60577944  1
  Cl  Cl481  1  -0.00989611  0.56024500  0.60521232  1
  Cl  Cl482  1  0.00667155  0.88661022  0.61942420  1
  Cl  Cl483  1  0.49545147  0.22230353  0.60464736  1
  Cl  Cl484  1  0.49775065  0.54960091  0.62225666  1
  Cl  Cl485  1  0.50437940  0.89547770  0.60064668  1
  Cl  Cl486  1  0.01053639  0.11382084  0.11156045  1
  Cl  Cl487  1  0.00132169  0.44856121  0.11675955  1
  Cl  Cl488  1  0.00845708  0.77381486  0.10834346  1
  Cl  Cl489  1  0.50951331  0.11402555  0.12094306  1
  Cl  Cl490  1  0.49888554  0.44447052  0.12629457  1
  Cl  Cl491  1  0.50377927  0.77106409  0.10380118  1
  Cl  Cl492  1  0.00104660  0.21826345  0.87647749  1
  Cl  Cl493  1  0.01254058  0.55915668  0.88505940  1
  Cl  Cl494  1  0.00561664  0.89352434  0.89097256  1
  Cl  Cl495  1  0.50114210  0.22078242  0.87488529  1
  Cl  Cl496  1  0.51286067  0.55023254  0.88306656  1
  Cl  Cl497  1  0.50544675  0.88568282  0.87340919  1
  Cl  Cl498  1  0.00567951  0.11852764  0.37924223  1
  Cl  Cl499  1  -0.00761586  0.44757663  0.38038293  1
  Cl  Cl500  1  -0.00941366  0.77323678  0.39201130  1
  Cl  Cl501  1  0.50929103  0.10611468  0.39687898  1
  Cl  Cl502  1  0.48205226  0.44353792  0.39862818  1
  Cl  Cl503  1  0.49182123  0.78611946  0.37251465  1
  Cl  Cl504  1  0.36530648  0.14279679  0.74799019  1
  Cl  Cl505  1  0.36160296  0.48133031  0.75006605  1
  Cl  Cl506  1  0.36499936  0.81189691  0.75952676  1
  Cl  Cl507  1  0.86237808  0.14515754  0.74676774  1
  Cl  Cl508  1  0.86380787  0.48110962  0.75499666  1
  Cl  Cl509  1  0.86291946  0.81274085  0.74914980  1
  Cl  Cl510  1  0.14224824  0.18449156  0.25475402  1
  Cl  Cl511  1  0.13467227  0.52073915  0.25455356  1
  Cl  Cl512  1  0.13794145  0.85177642  0.25007790  1
  Cl  Cl513  1  0.64161460  0.18449749  0.25292338  1
  Cl  Cl514  1  0.64281975  0.52062804  0.25564128  1
  Cl  Cl515  1  0.63735319  0.85232962  0.25081458  1
  Cl  Cl516  1  0.14581107  0.14684732  0.74621331  1
  Cl  Cl517  1  0.13866445  0.48017833  0.74351058  1
  Cl  Cl518  1  0.14238984  0.81550187  0.74989902  1
  Cl  Cl519  1  0.63815847  0.14796042  0.74617790  1
  Cl  Cl520  1  0.64335534  0.48144531  0.74676781  1
  Cl  Cl521  1  0.64186751  0.81455736  0.74877844  1
  Cl  Cl522  1  0.36297468  0.18618700  0.25066971  1
  Cl  Cl523  1  0.35720467  0.51833207  0.25270664  1
  Cl  Cl524  1  0.36114615  0.85499158  0.24523540  1
  Cl  Cl525  1  0.86208065  0.18750373  0.25182862  1
  Cl  Cl526  1  0.86467911  0.52327901  0.24598905  1
  Cl  Cl527  1  0.85763768  0.85393551  0.24865748  1
  Cl  Cl528  1  0.11489406  0.31251991  0.74007065  1
  Cl  Cl529  1  0.11171953  0.64824095  0.74423301  1
  Cl  Cl530  1  0.10611122  0.98328438  0.74890370  1
  Cl  Cl531  1  0.61055882  0.31545484  0.74537550  1
  Cl  Cl532  1  0.61018346  0.64816451  0.74594322  1
  Cl  Cl533  1  0.60886893  0.98116000  0.74446942  1
  Cl  Cl534  1  0.38577292  0.02131012  0.24966736  1
  Cl  Cl535  1  0.39004527  0.35256350  0.25266218  1
  Cl  Cl536  1  0.38529376  0.68696668  0.24617818  1
  Cl  Cl537  1  0.88685620  0.02066799  0.25450164  1
  Cl  Cl538  1  0.88887249  0.35263410  0.24958089  1
  Cl  Cl539  1  0.88871594  0.68989839  0.24502865  1
  Cl  Cl540  1  0.38765519  0.31321609  0.74138871  1
  Cl  Cl541  1  0.38826125  0.64480513  0.75454491  1
  Cl  Cl542  1  0.38842620  0.97543747  0.74752873  1
  Cl  Cl543  1  0.89526704  0.31327879  0.74592732  1
  Cl  Cl544  1  0.89002723  0.64795638  0.75652728  1
  Cl  Cl545  1  0.88445148  0.97771956  0.75271189  1
  Cl  Cl546  1  0.10979535  0.01906791  0.24906504  1
  Cl  Cl547  1  0.11299638  0.35427025  0.25736670  1
  Cl  Cl548  1  0.10593649  0.68859208  0.25118037  1
  Cl  Cl549  1  0.60671575  0.01558884  0.25365952  1
  Cl  Cl550  1  0.61044180  0.35288656  0.25482333  1
  Cl  Cl551  1  0.60881665  0.68622915  0.25579172  1
