# generated using pymatgen
data_H8PbC4(N3Cl2)2
_symmetry_space_group_name_H-M   'P 1'
_cell_length_a   16.62268214
_cell_length_b   22.50221145
_cell_length_c   21.58926204
_cell_angle_alpha   90.00003321
_cell_angle_beta   89.99408147
_cell_angle_gamma   90.00141470
_symmetry_Int_Tables_number   1
_chemical_formula_structural   H8PbC4(N3Cl2)2
_chemical_formula_sum   'H192 Pb24 C96 N144 Cl96'
_cell_volume   8075.40099106
_cell_formula_units_Z   24
loop_
 _symmetry_equiv_pos_site_id
 _symmetry_equiv_pos_as_xyz
  1  'x, y, z'
loop_
 _atom_site_type_symbol
 _atom_site_label
 _atom_site_symmetry_multiplicity
 _atom_site_fract_x
 _atom_site_fract_y
 _atom_site_fract_z
 _atom_site_occupancy
  H  H0  1  -0.00131773  0.03338034  0.68105914  1
  H  H1  1  -0.00119338  0.36422207  0.68019367  1
  H  H2  1  -0.00403598  0.69779167  0.67952847  1
  H  H3  1  0.50053891  0.03262868  0.67760271  1
  H  H4  1  0.50691961  0.36563255  0.68308778  1
  H  H5  1  0.50002940  0.69839472  0.68128617  1
  H  H6  1  0.00923292  0.30267014  0.18056393  1
  H  H7  1  -0.00493787  0.63394120  0.17938841  1
  H  H8  1  0.00272054  0.96819119  0.18140296  1
  H  H9  1  0.49127192  0.30357295  0.18014266  1
  H  H10  1  0.50163216  0.63279503  0.17669738  1
  H  H11  1  0.49638518  0.96530627  0.17904418  1
  H  H12  1  -0.00639140  0.03022345  0.81836209  1
  H  H13  1  -0.00268314  0.36587278  0.81938285  1
  H  H14  1  -0.00180875  0.69942110  0.82015037  1
  H  H15  1  0.50638625  0.03036801  0.81679527  1
  H  H16  1  0.49225414  0.36604103  0.82168885  1
  H  H17  1  0.50214700  0.69666540  0.81987300  1
  H  H18  1  -0.00199695  0.30151290  0.31886152  1
  H  H19  1  0.00165736  0.63486828  0.32000396  1
  H  H20  1  0.00702088  0.96655565  0.31929474  1
  H  H21  1  0.50837917  0.30224064  0.31939271  1
  H  H22  1  0.50425503  0.63453726  0.31788686  1
  H  H23  1  0.48913160  0.96690613  0.31925770  1
  H  H24  1  0.25162904  0.19734295  0.68158735  1
  H  H25  1  0.24530872  0.53305664  0.68195747  1
  H  H26  1  0.24822287  0.86550527  0.67979081  1
  H  H27  1  0.74675871  0.19819287  0.68045448  1
  H  H28  1  0.74944835  0.53411422  0.68156753  1
  H  H29  1  0.75329298  0.86522135  0.67678969  1
  H  H30  1  0.26048079  0.13246157  0.18305108  1
  H  H31  1  0.25299335  0.46984569  0.17927551  1
  H  H32  1  0.25538144  0.80169180  0.18190770  1
  H  H33  1  0.74659437  0.13462333  0.18424203  1
  H  H34  1  0.75069805  0.46810673  0.17897288  1
  H  H35  1  0.75393019  0.80056093  0.17890936  1
  H  H36  1  0.25176572  0.19818708  0.81751572  1
  H  H37  1  0.25544080  0.53245290  0.82267574  1
  H  H38  1  0.24994676  0.86516646  0.81836180  1
  H  H39  1  0.75822975  0.19989692  0.81911472  1
  H  H40  1  0.75049318  0.53165168  0.81885572  1
  H  H41  1  0.75489329  0.86508142  0.81983220  1
  H  H42  1  0.24123254  0.13575358  0.32115371  1
  H  H43  1  0.25749913  0.46784908  0.31655443  1
  H  H44  1  0.25381674  0.80131588  0.32118474  1
  H  H45  1  0.75883582  0.13422418  0.31977832  1
  H  H46  1  0.74295465  0.46840866  0.31895650  1
  H  H47  1  0.74214445  0.80166221  0.32130792  1
  H  H48  1  0.13009831  0.05218511  0.61671958  1
  H  H49  1  0.12118273  0.38716361  0.60828137  1
  H  H50  1  0.12116812  0.72089354  0.60940991  1
  H  H51  1  0.62769764  0.05318233  0.61100777  1
  H  H52  1  0.62111496  0.38884264  0.60421244  1
  H  H53  1  0.62414666  0.72100980  0.60837075  1
  H  H54  1  0.37841661  0.27704596  0.09984673  1
  H  H55  1  0.37750693  0.61270732  0.10805540  1
  H  H56  1  0.38185647  0.94369246  0.10272511  1
  H  H57  1  0.87289106  0.28154453  0.12169581  1
  H  H58  1  0.88355122  0.61148033  0.09871874  1
  H  H59  1  0.87964624  0.94395874  0.10863226  1
  H  H60  1  0.37683947  0.05383073  0.88347326  1
  H  H61  1  0.38016485  0.39252438  0.90114312  1
  H  H62  1  0.37777615  0.71946010  0.89184203  1
  H  H63  1  0.87940265  0.05690047  0.89707729  1
  H  H64  1  0.87805802  0.38810767  0.89592326  1
  H  H65  1  0.87764098  0.72225757  0.89522589  1
  H  H66  1  0.12303266  0.27826530  0.39057797  1
  H  H67  1  0.11843463  0.61158918  0.39886411  1
  H  H68  1  0.12067156  0.94459814  0.39732130  1
  H  H69  1  0.61795377  0.27509396  0.40268268  1
  H  H70  1  0.61771562  0.61327056  0.39654916  1
  H  H71  1  0.62758350  0.94810237  0.37653293  1
  H  H72  1  0.37593353  0.21991630  0.61031284  1
  H  H73  1  0.38344877  0.55119779  0.62451475  1
  H  H74  1  0.37383761  0.88928483  0.61100685  1
  H  H75  1  0.87949468  0.21892939  0.61836197  1
  H  H76  1  0.88139619  0.55262965  0.61781579  1
  H  H77  1  0.87235818  0.88937294  0.60224200  1
  H  H78  1  0.12298625  0.11468813  0.12490357  1
  H  H79  1  0.12257906  0.44704115  0.11530375  1
  H  H80  1  0.12556360  0.78054897  0.11454177  1
  H  H81  1  0.62449980  0.11244470  0.11276518  1
  H  H82  1  0.62112702  0.44743700  0.11086949  1
  H  H83  1  0.62438327  0.78088349  0.11541034  1
  H  H84  1  0.12598312  0.22256551  0.88785586  1
  H  H85  1  0.11944490  0.55190187  0.88093800  1
  H  H86  1  0.12431868  0.88656755  0.88671696  1
  H  H87  1  0.62532801  0.22045966  0.88302770  1
  H  H88  1  0.61932858  0.55278353  0.88594722  1
  H  H89  1  0.62199243  0.88442170  0.88330507  1
  H  H90  1  0.37605840  0.11471168  0.38242059  1
  H  H91  1  0.37742290  0.44545918  0.39124867  1
  H  H92  1  0.37427399  0.77692930  0.39430408  1
  H  H93  1  0.86638147  0.10855690  0.40198447  1
  H  H94  1  0.87915090  0.44886288  0.37946143  1
  H  H95  1  0.87668088  0.78293046  0.38314228  1
  H  H96  1  0.37171019  0.28132887  0.37781770  1
  H  H97  1  0.37000874  0.61688396  0.37730997  1
  H  H98  1  0.38123134  0.94318651  0.40301455  1
  H  H99  1  0.87463028  0.27735522  0.39236836  1
  H  H100  1  0.87012064  0.61505056  0.38529610  1
  H  H101  1  0.87251676  0.94776965  0.37956918  1
  H  H102  1  0.12730717  0.05117212  0.87879982  1
  H  H103  1  0.12702737  0.38740469  0.88543526  1
  H  H104  1  0.12617883  0.72129730  0.88890065  1
  H  H105  1  0.62637610  0.05412876  0.89035329  1
  H  H106  1  0.62775507  0.38442602  0.88261169  1
  H  H107  1  0.62666748  0.71917206  0.88998292  1
  H  H108  1  0.11940839  0.27655881  0.09735952  1
  H  H109  1  0.13147297  0.61379407  0.12040456  1
  H  H110  1  0.12849224  0.94582943  0.11278630  1
  H  H111  1  0.62601663  0.28220905  0.12160264  1
  H  H112  1  0.62647469  0.61370983  0.10782554  1
  H  H113  1  0.62938910  0.94743051  0.11797130  1
  H  H114  1  0.37909292  0.05436088  0.60669229  1
  H  H115  1  0.37268313  0.38601699  0.61972626  1
  H  H116  1  0.37545490  0.72097625  0.60818969  1
  H  H117  1  0.88103540  0.05377872  0.60629433  1
  H  H118  1  0.87155832  0.38719874  0.61149383  1
  H  H119  1  0.87284399  0.72128654  0.60653199  1
  H  H120  1  0.12896995  0.10937455  0.40151630  1
  H  H121  1  0.12856094  0.44680731  0.38514597  1
  H  H122  1  0.12505224  0.77963386  0.38823418  1
  H  H123  1  0.61981533  0.11583789  0.37585072  1
  H  H124  1  0.63159814  0.44363735  0.39936843  1
  H  H125  1  0.62887998  0.77532523  0.40001800  1
  H  H126  1  0.37578122  0.22213438  0.88695137  1
  H  H127  1  0.36631938  0.55679927  0.90496237  1
  H  H128  1  0.37389753  0.88561449  0.88851319  1
  H  H129  1  0.87335895  0.22430298  0.89731047  1
  H  H130  1  0.86849368  0.55506504  0.89469116  1
  H  H131  1  0.87075932  0.88791503  0.89726214  1
  H  H132  1  0.36843844  0.10766616  0.09781564  1
  H  H133  1  0.37092674  0.44585523  0.10233968  1
  H  H134  1  0.37474581  0.77869749  0.10701016  1
  H  H135  1  0.87389590  0.11427362  0.11740090  1
  H  H136  1  0.86965557  0.44421721  0.10339016  1
  H  H137  1  0.87338017  0.77850623  0.10380646  1
  H  H138  1  0.12668414  0.21955525  0.61044692  1
  H  H139  1  0.13535572  0.55564735  0.60149006  1
  H  H140  1  0.12536453  0.88681843  0.60749221  1
  H  H141  1  0.63085081  0.22250443  0.60203842  1
  H  H142  1  0.63242877  0.55493374  0.60655787  1
  H  H143  1  0.62388908  0.88819486  0.61109876  1
  H  H144  1  0.67440613  0.09567180  -0.00142089  1
  H  H145  1  0.68901974  0.58321870  0.49572858  1
  H  H146  1  0.63847894  0.08694954  0.48514621  1
  H  H147  1  0.16815203  0.74986231  0.49401062  1
  H  H148  1  0.29254524  0.08104229  -0.00135721  1
  H  H149  1  0.44506910  0.26011469  -0.00418110  1
  H  H150  1  0.45353763  0.91980162  0.50814777  1
  H  H151  1  0.91418514  0.41497419  0.50609278  1
  H  H152  1  0.93606761  0.08084537  0.49533755  1
  H  H153  1  0.42120647  0.06786481  0.99318536  1
  H  H154  1  0.65140060  0.91356846  0.99081490  1
  H  H155  1  0.04498058  0.25403212  -0.00391609  1
  H  H156  1  0.31909096  0.74921190  -0.00008622  1
  H  H157  1  0.94430938  0.07272359  1.00208852  1
  H  H158  1  0.55668865  0.41706735  0.49743251  1
  H  H159  1  0.08017634  0.75077613  0.99385344  1
  H  H160  1  0.59881983  0.25261644  0.00865281  1
  H  H161  1  0.18131798  0.93010920  0.51032444  1
  H  H162  1  0.05871342  0.91873486  0.50727279  1
  H  H163  1  0.39293674  0.58726244  0.49088127  1
  H  H164  1  0.32663869  0.24859190  0.50176676  1
  H  H165  1  0.32312052  0.89824266  0.50331088  1
  H  H166  1  0.69513620  0.24996528  0.49896494  1
  H  H167  1  0.33035037  0.91386285  0.99898483  1
  H  H168  1  0.55600085  0.58835436  0.50566790  1
  H  H169  1  0.81226265  0.91456060  1.00540945  1
  H  H170  1  0.32727726  0.24858815  0.99904063  1
  H  H171  1  0.66419592  0.41963343  0.00566872  1
  H  H172  1  0.83180578  0.09427894  0.00227030  1
  H  H173  1  0.94930423  0.58496688  -0.00851406  1
  H  H174  1  0.16393884  0.91425679  0.99795503  1
  H  H175  1  0.32312402  0.41919267  0.49946711  1
  H  H176  1  0.34394897  0.08645348  0.48885799  1
  H  H177  1  0.92404504  0.74903380  0.50331390  1
  H  H178  1  0.07239867  0.41467687  0.49851023  1
  H  H179  1  0.09778102  0.08052512  0.99138670  1
  H  H180  1  0.57008151  0.07029953  1.00356156  1
  H  H181  1  0.66381986  0.91598060  0.50415578  1
  H  H182  1  0.17561367  0.24211526  0.99541857  1
  H  H183  1  0.08843463  0.41622889  0.99589949  1
  H  H184  1  0.54445388  0.24804625  0.50215672  1
  H  H185  1  0.80887532  0.58254917  1.00298867  1
  H  H186  1  0.10659121  0.58596294  0.01113505  1
  H  H187  1  0.79665539  0.08167382  0.50770826  1
  H  H188  1  0.69896910  0.41801654  0.50570305  1
  H  H189  1  0.05312282  0.58590863  0.50163943  1
  H  H190  1  0.65771029  0.74962361  0.00265272  1
  H  H191  1  0.20162793  0.58263353  0.49342008  1
  Pb  Pb192  1  0.25216857  0.04593301  0.75332885  1
  Pb  Pb193  1  0.24950170  0.38038356  0.75099187  1
  Pb  Pb194  1  0.25495372  0.71421669  0.74745515  1
  Pb  Pb195  1  0.75472208  0.04876456  0.75022953  1
  Pb  Pb196  1  0.75463313  0.38104207  0.74970002  1
  Pb  Pb197  1  0.74940550  0.71249427  0.75089891  1
  Pb  Pb198  1  0.24852105  0.28769039  0.24283106  1
  Pb  Pb199  1  0.24882022  0.62132184  0.25238112  1
  Pb  Pb200  1  0.24653015  0.95052236  0.25563377  1
  Pb  Pb201  1  0.74774295  0.28713490  0.25956387  1
  Pb  Pb202  1  0.74874695  0.62149083  0.24867067  1
  Pb  Pb203  1  0.74946278  0.95311278  0.24720815  1
  Pb  Pb204  1  0.00339344  0.21407589  0.75664935  1
  Pb  Pb205  1  0.00364904  0.54985279  0.74962309  1
  Pb  Pb206  1  0.00020861  0.87883166  0.74883992  1
  Pb  Pb207  1  0.50258075  0.21540997  0.74779318  1
  Pb  Pb208  1  0.50082280  0.54452779  0.75188777  1
  Pb  Pb209  1  0.50310691  0.88018874  0.74810780  1
  Pb  Pb210  1  -0.00251985  0.11951427  0.25198111  1
  Pb  Pb211  1  -0.00104635  0.45417515  0.25006440  1
  Pb  Pb212  1  -0.00359672  0.78573403  0.24897586  1
  Pb  Pb213  1  0.49579740  0.11830436  0.24114756  1
  Pb  Pb214  1  0.49963883  0.45473378  0.25180879  1
  Pb  Pb215  1  0.49943880  0.78737670  0.25113595  1
  C  C216  1  0.00296248  0.04675213  0.63301367  1
  C  C217  1  -0.00318137  0.37989532  0.63258770  1
  C  C218  1  -0.00363589  0.71314472  0.63193692  1
  C  C219  1  0.50243273  0.04703220  0.62978119  1
  C  C220  1  0.49992567  0.37996620  0.63539520  1
  C  C221  1  0.49972542  0.71315864  0.63341949  1
  C  C222  1  0.00108149  0.28774191  0.13322848  1
  C  C223  1  0.00403587  0.61936353  0.13182403  1
  C  C224  1  0.00337537  0.95307050  0.13393979  1
  C  C225  1  0.49817106  0.28845496  0.13257975  1
  C  C226  1  0.50190195  0.61923289  0.12831941  1
  C  C227  1  0.50273462  0.95216372  0.13105664  1
  C  C228  1  -0.00007713  0.04539828  0.86594850  1
  C  C229  1  0.00083348  0.38065219  0.86709824  1
  C  C230  1  0.00098615  0.71447401  0.86785434  1
  C  C231  1  0.50252123  0.04548075  0.86454241  1
  C  C232  1  0.50042096  0.38068178  0.86890620  1
  C  C233  1  0.50190713  0.71153873  0.86743544  1
  C  C234  1  -0.00164310  0.28640751  0.36655545  1
  C  C235  1  -0.00299161  0.62048531  0.36783098  1
  C  C236  1  0.00024334  0.95304964  0.36715445  1
  C  C237  1  0.49973948  0.28716195  0.36668845  1
  C  C238  1  0.49688001  0.62076182  0.36578986  1
  C  C239  1  0.49969898  0.95303098  0.36678690  1
  C  C240  1  0.25143944  0.21227743  0.63391996  1
  C  C241  1  0.25441481  0.54662507  0.63429369  1
  C  C242  1  0.24918568  0.88050832  0.63186328  1
  C  C243  1  0.75205834  0.21269248  0.63285378  1
  C  C244  1  0.75428050  0.54726839  0.63349054  1
  C  C245  1  0.74936197  0.88049713  0.62932734  1
  C  C246  1  0.25097832  0.11844884  0.13548705  1
  C  C247  1  0.24895875  0.45417873  0.13207514  1
  C  C248  1  0.25156037  0.78680349  0.13419120  1
  C  C249  1  0.74832494  0.12024260  0.13627371  1
  C  C250  1  0.74675292  0.45332943  0.13123915  1
  C  C251  1  0.74995996  0.78636161  0.13108744  1
  C  C252  1  0.25044896  0.21322716  0.86537930  1
  C  C253  1  0.24709608  0.54692306  0.86997749  1
  C  C254  1  0.24931988  0.87978574  0.86633052  1
  C  C255  1  0.75193439  0.21420416  0.86659786  1
  C  C256  1  0.74584129  0.54633161  0.86656065  1
  C  C257  1  0.74868564  0.87982930  0.86767800  1
  C  C258  1  0.24903376  0.12005907  0.36828338  1
  C  C259  1  0.25424938  0.45343907  0.36442400  1
  C  C260  1  0.25063570  0.78617697  0.36870102  1
  C  C261  1  0.74762188  0.11949835  0.36706546  1
  C  C262  1  0.75168049  0.45372879  0.36641950  1
  C  C263  1  0.74959499  0.78694525  0.36859358  1
  C  C264  1  0.29115745  0.24075387  0.95793056  1
  C  C265  1  0.48233067  0.92866827  0.46376143  1
  C  C266  1  0.71055668  0.09966850  0.04033705  1
  C  C267  1  0.80515429  0.57073363  0.54260330  1
  C  C268  1  0.80542172  0.24083207  0.54307663  1
  C  C269  1  0.52458286  0.40606973  0.53996360  1
  C  C270  1  0.52317556  0.59670113  0.46297286  1
  C  C271  1  0.04453258  0.40651240  0.95854873  1
  C  C272  1  0.46211470  0.59524016  0.03595481  1
  C  C273  1  0.79255699  0.09982202  0.04211280  1
  C  C274  1  0.54079391  0.73916143  0.96015948  1
  C  C275  1  0.03462281  0.40559605  0.53848059  1
  C  C276  1  0.55381661  0.26194821  0.04411325  1
  C  C277  1  0.28776617  0.23844401  0.54088067  1
  C  C278  1  0.76747504  0.09259751  0.46403960  1
  C  C279  1  0.72520492  0.75673455  0.46308157  1
  C  C280  1  0.97990639  0.59394921  0.03507081  1
  C  C281  1  0.94507013  0.92987436  0.45696786  1
  C  C282  1  0.23316013  0.57217065  0.53624430  1
  C  C283  1  0.77916161  0.24186371  0.96172311  1
  C  C284  1  0.53801095  0.06900889  0.95966132  1
  C  C285  1  0.73021861  0.42792942  0.46251368  1
  C  C286  1  0.44153165  0.59727520  0.45593591  1
  C  C287  1  0.70263002  0.75993836  0.03880431  1
  C  C288  1  0.77784318  0.90508250  0.96365615  1
  C  C289  1  0.05301379  0.07025269  0.54170520  1
  C  C290  1  0.46509601  0.07368980  0.53623277  1
  C  C291  1  0.28620134  0.42905060  0.45914162  1
  C  C292  1  0.55548782  0.92870304  0.04064952  1
  C  C293  1  0.20696920  0.90469982  0.96028261  1
  C  C294  1  0.02604715  0.92857636  0.46482825  1
  C  C295  1  0.28773744  0.75722055  0.46298650  1
  C  C296  1  0.47466502  0.92735430  0.03543139  1
  C  C297  1  0.20287877  0.42572002  0.04177598  1
  C  C298  1  0.28254627  0.76050412  0.03999648  1
  C  C299  1  0.31368532  0.57062834  0.54638981  1
  C  C300  1  0.19366794  0.57257150  0.95857253  1
  C  C301  1  0.54692156  0.07311779  0.53756987  1
  C  C302  1  0.28927265  0.90446326  0.96085269  1
  C  C303  1  0.47723225  0.41137339  0.96351020  1
  C  C304  1  0.54226906  0.59552370  0.03596212  1
  C  C305  1  0.78420648  0.75957190  0.03638054  1
  C  C306  1  0.72403492  0.57222368  0.53678938  1
  C  C307  1  0.77492961  0.57246067  0.96116002  1
  C  C308  1  0.05380198  0.07121428  0.95520435  1
  C  C309  1  0.04392367  0.92548681  0.04164191  1
  C  C310  1  0.97182752  0.07115693  0.53627277  1
  C  C311  1  0.78472914  0.90905707  0.53446822  1
  N  N312  1  0.20306564  0.76142383  0.04181874  1
  N  N313  1  0.04062451  0.73875784  0.53922897  1
  N  N314  1  0.69843431  0.90397097  0.95768526  1
  N  N315  1  0.70191818  0.23989452  0.95854232  1
  N  N316  1  0.29118129  0.91031058  0.54189481  1
  N  N317  1  0.20878727  0.75918373  0.45989743  1
  N  N318  1  0.44025458  0.26036068  0.45360435  1
  N  N319  1  0.97436507  0.07367423  0.96059121  1
  N  N320  1  0.01967155  0.25942163  0.03924672  1
  N  N321  1  0.80903729  0.42884904  0.45582339  1
  N  N322  1  0.46153538  0.73864790  0.53935914  1
  N  N323  1  0.69583040  0.57256079  0.95797941  1
  N  N324  1  0.22150200  0.09275161  0.46433993  1
  N  N325  1  0.44550109  0.40500806  0.54511436  1
  N  N326  1  0.53772873  0.73878715  0.53936806  1
  N  N327  1  0.96181935  0.73916051  0.53984294  1
  N  N328  1  0.72670566  0.24098564  0.53872046  1
  N  N329  1  0.70459554  0.42766210  0.04103302  1
  N  N330  1  0.95497566  0.40652415  0.54109350  1
  N  N331  1  0.94496354  0.59595901  0.45832953  1
  N  N332  1  0.96327933  0.73960166  0.96244877  1
  N  N333  1  0.51767840  0.25785535  0.46045754  1
  N  N334  1  0.19011168  0.09795553  0.04740834  1
  N  N335  1  0.55442792  0.40814943  0.95892480  1
  N  N336  1  0.46305046  0.73980050  0.96174627  1
  N  N337  1  0.20847748  0.23874439  0.54034773  1
  N  N338  1  0.70577153  0.90773714  0.53844652  1
  N  N339  1  0.68895655  0.09537417  0.45396411  1
  N  N340  1  0.26737963  0.09666322  0.03914545  1
  N  N341  1  0.56075096  0.92931540  0.45499340  1
  N  N342  1  0.94222480  0.26153998  0.04597189  1
  N  N343  1  0.02281162  0.59413487  0.46126764  1
  N  N344  1  0.21143688  0.90057175  0.53801419  1
  N  N345  1  0.21145708  0.24177405  0.95689328  1
  N  N346  1  0.47448663  0.25987255  0.03764361  1
  N  N347  1  0.96621509  0.92527903  0.03900699  1
  N  N348  1  0.05887222  0.59383118  0.04390980  1
  N  N349  1  0.45851720  0.07095247  0.95568426  1
  N  N350  1  0.28034633  0.42485375  0.03646529  1
  N  N351  1  0.20681139  0.42955453  0.45747983  1
  N  N352  1  0.96119254  0.25873638  0.46024508  1
  N  N353  1  0.04141214  0.73864605  0.95900556  1
  N  N354  1  0.80263672  0.75955463  0.45907067  1
  N  N355  1  0.03743066  0.25896860  0.45984945  1
  N  N356  1  0.78274960  0.42647778  0.03686484  1
  N  N357  1  0.96522591  0.40683871  0.96267968  1
  N  N358  1  0.29918832  0.09470201  0.45621125  1
  N  N359  1  0.27057885  0.57486869  0.96738319  1
  N  N360  1  0.07148317  0.05565085  0.60004829  1
  N  N361  1  0.06078603  0.38986999  0.59550215  1
  N  N362  1  0.06088196  0.72302480  0.59694885  1
  N  N363  1  0.56868500  0.05695231  0.59551638  1
  N  N364  1  0.55945182  0.39087101  0.59501154  1
  N  N365  1  0.56305052  0.72322940  0.59758459  1
  N  N366  1  0.44008501  0.27984506  0.09160938  1
  N  N367  1  0.43660180  0.60946696  0.09226857  1
  N  N368  1  0.44256993  0.94157766  0.09067136  1
  N  N369  1  0.93119555  0.27741630  0.10506744  1
  N  N370  1  0.94551373  0.60945614  0.08960452  1
  N  N371  1  0.94087604  0.94259460  0.09789743  1
  N  N372  1  0.43679220  0.05276463  0.89791966  1
  N  N373  1  0.44167334  0.39441599  0.90983115  1
  N  N374  1  0.43876351  0.72177749  0.90283575  1
  N  N375  1  0.94115306  0.05429563  0.90612861  1
  N  N376  1  0.93977843  0.39060034  0.90522392  1
  N  N377  1  0.93876450  0.72399184  0.90548644  1
  N  N378  1  0.06209955  0.27632752  0.40189196  1
  N  N379  1  0.05636905  0.61009218  0.40706181  1
  N  N380  1  0.05974405  0.94312890  0.40752051  1
  N  N381  1  0.55564157  0.27591050  0.40861323  1
  N  N382  1  0.55637738  0.61098144  0.40645355  1
  N  N383  1  0.56965117  0.94462731  0.39436678  1
  N  N384  1  0.31580721  0.22235731  0.59802135  1
  N  N385  1  0.32623132  0.55539612  0.60567101  1
  N  N386  1  0.31394620  0.88661940  0.59679117  1
  N  N387  1  0.82139974  0.22350171  0.60138043  1
  N  N388  1  0.82315262  0.55590787  0.60094108  1
  N  N389  1  0.81195574  0.89239915  0.59071185  1
  N  N390  1  0.18049922  0.11239468  0.10697811  1
  N  N391  1  0.18131212  0.44298982  0.09985461  1
  N  N392  1  0.18573215  0.77766466  0.10112064  1
  N  N393  1  0.68421535  0.11186499  0.09935448  1
  N  N394  1  0.68130524  0.44436917  0.09789294  1
  N  N395  1  0.68278731  0.77683472  0.09895488  1
  N  N396  1  0.18648820  0.22125592  0.90071858  1
  N  N397  1  0.17671140  0.55597108  0.89909449  1
  N  N398  1  0.18386620  0.88952980  0.90102371  1
  N  N399  1  0.68466434  0.22234987  0.89793948  1
  N  N400  1  0.67946160  0.55639552  0.89901196  1
  N  N401  1  0.68124997  0.88879659  0.89855693  1
  N  N402  1  0.31710308  0.11087736  0.39824728  1
  N  N403  1  0.31676327  0.44353822  0.40237385  1
  N  N404  1  0.31395075  0.77394264  0.40663297  1
  N  N405  1  0.80447819  0.10754672  0.41013887  1
  N  N406  1  0.82050196  0.44507572  0.39566437  1
  N  N407  1  0.81773017  0.77895183  0.39875574  1
  N  N408  1  0.42974787  0.27749346  0.39480761  1
  N  N409  1  0.42713458  0.61208692  0.39533811  1
  N  N410  1  0.44335951  0.94284325  0.41001930  1
  N  N411  1  0.93541089  0.27556790  0.40248022  1
  N  N412  1  0.92934803  0.61127135  0.39949680  1
  N  N413  1  0.93017922  0.94435847  0.39797430  1
  N  N414  1  0.06958999  0.05552778  0.89614777  1
  N  N415  1  0.06770247  0.39095688  0.89998777  1
  N  N416  1  0.06593061  0.72449586  0.90162125  1
  N  N417  1  0.56583850  0.05559685  0.90261014  1
  N  N418  1  0.56893677  0.38876935  0.89850276  1
  N  N419  1  0.56682081  0.72239381  0.90307424  1
  N  N420  1  0.05745214  0.27777502  0.09119126  1
  N  N421  1  0.07300653  0.60934479  0.10352383  1
  N  N422  1  0.06898399  0.94242033  0.09888830  1
  N  N423  1  0.56835123  0.27764829  0.10333209  1
  N  N424  1  0.56760685  0.60996361  0.09239906  1
  N  N425  1  0.57187227  0.94391918  0.09975373  1
  N  N426  1  0.43896347  0.05782445  0.59280268  1
  N  N427  1  0.43210288  0.38887155  0.60467814  1
  N  N428  1  0.43638070  0.72276809  0.59756609  1
  N  N429  1  0.94158644  0.05628230  0.59444526  1
  N  N430  1  0.93190932  0.39058107  0.59905703  1
  N  N431  1  0.93384951  0.72341955  0.59570056  1
  N  N432  1  0.19064988  0.10831840  0.40890796  1
  N  N433  1  0.18891229  0.44456822  0.39822219  1
  N  N434  1  0.18503280  0.77734395  0.40187373  1
  N  N435  1  0.67740222  0.11162806  0.39431123  1
  N  N436  1  0.69359147  0.44273316  0.40799143  1
  N  N437  1  0.69029641  0.77336317  0.40904111  1
  N  N438  1  0.31566094  0.22455237  0.90084279  1
  N  N439  1  0.30388797  0.55830905  0.91100254  1
  N  N440  1  0.31398246  0.88912274  0.90206058  1
  N  N441  1  0.81233174  0.22603386  0.90671325  1
  N  N442  1  0.80734393  0.55670410  0.90538413  1
  N  N443  1  0.80944459  0.89039365  0.90769934  1
  N  N444  1  0.30601789  0.10698504  0.09299165  1
  N  N445  1  0.30918155  0.44331748  0.09388761  1
  N  N446  1  0.31356086  0.77602309  0.09612608  1
  N  N447  1  0.81464043  0.11234816  0.10196576  1
  N  N448  1  0.80852725  0.44216511  0.09352615  1
  N  N449  1  0.81268069  0.77554720  0.09201174  1
  N  N450  1  0.18760121  0.22228946  0.59866968  1
  N  N451  1  0.19712328  0.55695327  0.59250824  1
  N  N452  1  0.18607514  0.89367615  0.59719411  1
  N  N453  1  0.69266903  0.22240724  0.59341954  1
  N  N454  1  0.69326053  0.55723010  0.59472406  1
  N  N455  1  0.68336351  0.88952995  0.59677290  1
  Cl  Cl456  1  0.25510337  0.04933338  0.62178652  1
  Cl  Cl457  1  0.24684849  0.38718133  0.61826772  1
  Cl  Cl458  1  0.24673530  0.72407472  0.61108072  1
  Cl  Cl459  1  0.75512317  0.05401224  0.61427020  1
  Cl  Cl460  1  0.74517407  0.38542480  0.61277266  1
  Cl  Cl461  1  0.74937373  0.71991724  0.61696990  1
  Cl  Cl462  1  0.24664985  0.27280239  0.10057435  1
  Cl  Cl463  1  0.25320255  0.61561117  0.12447019  1
  Cl  Cl464  1  0.25450849  0.94766663  0.12162758  1
  Cl  Cl465  1  0.74941209  0.28254146  0.12864013  1
  Cl  Cl466  1  0.76074070  0.61337085  0.11491800  1
  Cl  Cl467  1  0.75637566  0.94337965  0.11297569  1
  Cl  Cl468  1  0.25524914  0.05877606  0.89388977  1
  Cl  Cl469  1  0.25432612  0.38410847  0.88166547  1
  Cl  Cl470  1  0.25030892  0.72020405  0.88123548  1
  Cl  Cl471  1  0.75393808  0.05535419  0.88581559  1
  Cl  Cl472  1  0.75355356  0.38510541  0.88209223  1
  Cl  Cl473  1  0.75322227  0.72173091  0.88478112  1
  Cl  Cl474  1  0.24706448  0.27938114  0.37535897  1
  Cl  Cl475  1  0.23811720  0.61599918  0.38797517  1
  Cl  Cl476  1  0.25371110  0.93983239  0.39773552  1
  Cl  Cl477  1  0.74060469  0.27385477  0.39876164  1
  Cl  Cl478  1  0.74272795  0.61529933  0.38263164  1
  Cl  Cl479  1  0.74977095  0.94821857  0.38011444  1
  Cl  Cl480  1  0.00362932  0.21611035  0.62667937  1
  Cl  Cl481  1  0.01154683  0.55568278  0.61228847  1
  Cl  Cl482  1  0.00220198  0.88638348  0.61293127  1
  Cl  Cl483  1  0.50836595  0.22344320  0.60724563  1
  Cl  Cl484  1  0.50978675  0.55257346  0.61790370  1
  Cl  Cl485  1  0.49628390  0.89247382  0.61239330  1
  Cl  Cl486  1  -0.00295211  0.10839270  0.11261383  1
  Cl  Cl487  1  -0.00365358  0.44859683  0.11827666  1
  Cl  Cl488  1  0.00080895  0.77998149  0.11594655  1
  Cl  Cl489  1  0.49120499  0.10741884  0.10301350  1
  Cl  Cl490  1  0.49739311  0.44731055  0.11832197  1
  Cl  Cl491  1  0.49752425  0.78258041  0.12044598  1
  Cl  Cl492  1  0.00304967  0.22400604  0.89519262  1
  Cl  Cl493  1  -0.00747374  0.55688981  0.88556012  1
  Cl  Cl494  1  -0.00317328  0.88557765  0.87974785  1
  Cl  Cl495  1  0.49723766  0.22438806  0.88806762  1
  Cl  Cl496  1  0.49139617  0.55083796  0.88330391  1
  Cl  Cl497  1  0.49880167  0.88408924  0.87866505  1
  Cl  Cl498  1  -0.00317653  0.10896467  0.38489384  1
  Cl  Cl499  1  0.00404199  0.44629847  0.38646744  1
  Cl  Cl500  1  0.00122718  0.77977423  0.38423909  1
  Cl  Cl501  1  0.49649022  0.11712728  0.37385856  1
  Cl  Cl502  1  0.50775637  0.44299282  0.38703956  1
  Cl  Cl503  1  0.50155869  0.78126560  0.38178068  1
  Cl  Cl504  1  0.36280856  0.14477162  0.75402061  1
  Cl  Cl505  1  0.36370957  0.47655583  0.74557342  1
  Cl  Cl506  1  0.35893842  0.81071739  0.74810826  1
  Cl  Cl507  1  0.85954416  0.14429335  0.74987149  1
  Cl  Cl508  1  0.85963227  0.47577082  0.74568873  1
  Cl  Cl509  1  0.86191112  0.81253063  0.74832877  1
  Cl  Cl510  1  0.13899472  0.18666526  0.24583502  1
  Cl  Cl511  1  0.13538996  0.52213989  0.24985432  1
  Cl  Cl512  1  0.14170652  0.85731926  0.25104373  1
  Cl  Cl513  1  0.63704496  0.18833455  0.25288657  1
  Cl  Cl514  1  0.63951918  0.52036617  0.24948201  1
  Cl  Cl515  1  0.63726982  0.85654013  0.24989340  1
  Cl  Cl516  1  0.13804378  0.14423399  0.75307679  1
  Cl  Cl517  1  0.13913525  0.47764920  0.75372089  1
  Cl  Cl518  1  0.13765358  0.81182667  0.74870267  1
  Cl  Cl519  1  0.63543976  0.14486345  0.75412088  1
  Cl  Cl520  1  0.63678196  0.47656557  0.75290447  1
  Cl  Cl521  1  0.63881445  0.81317725  0.74991707  1
  Cl  Cl522  1  0.36240156  0.18828042  0.25079439  1
  Cl  Cl523  1  0.36046666  0.52128749  0.25226620  1
  Cl  Cl524  1  0.36235607  0.85531750  0.25286358  1
  Cl  Cl525  1  0.86037422  0.18702977  0.25013557  1
  Cl  Cl526  1  0.86277524  0.52187808  0.25336355  1
  Cl  Cl527  1  0.86233378  0.85542279  0.25250555  1
  Cl  Cl528  1  0.11193922  0.31006239  0.75271944  1
  Cl  Cl529  1  0.10793559  0.64383579  0.75046457  1
  Cl  Cl530  1  0.11440676  0.97848583  0.75063593  1
  Cl  Cl531  1  0.60888969  0.30934965  0.75391460  1
  Cl  Cl532  1  0.61356128  0.64420380  0.75169496  1
  Cl  Cl533  1  0.60884093  0.97710164  0.74968165  1
  Cl  Cl534  1  0.39232629  0.02253239  0.24990717  1
  Cl  Cl535  1  0.38794481  0.35340039  0.25172548  1
  Cl  Cl536  1  0.38574219  0.68882855  0.25263731  1
  Cl  Cl537  1  0.88747587  0.02217016  0.24993747  1
  Cl  Cl538  1  0.88568196  0.35464665  0.25099566  1
  Cl  Cl539  1  0.89161330  0.68881567  0.25176979  1
  Cl  Cl540  1  0.38694172  0.31042432  0.74839037  1
  Cl  Cl541  1  0.38742927  0.64418254  0.74753927  1
  Cl  Cl542  1  0.38686701  0.97785053  0.75012944  1
  Cl  Cl543  1  0.88847007  0.31093959  0.74945626  1
  Cl  Cl544  1  0.88849665  0.64386161  0.74866120  1
  Cl  Cl545  1  0.88863265  0.97949286  0.75071778  1
  Cl  Cl546  1  0.11388117  0.02196284  0.24832924  1
  Cl  Cl547  1  0.11201052  0.35468227  0.24999978  1
  Cl  Cl548  1  0.11320102  0.68942257  0.24626644  1
  Cl  Cl549  1  0.61529442  0.02302192  0.25050539  1
  Cl  Cl550  1  0.61169282  0.35411026  0.24810105  1
  Cl  Cl551  1  0.61115092  0.68781406  0.24779919  1
