# generated using pymatgen
data_H8PbC4(N3Cl2)2
_symmetry_space_group_name_H-M   'P 1'
_cell_length_a   16.62519796
_cell_length_b   22.51429377
_cell_length_c   21.59267742
_cell_angle_alpha   89.99857969
_cell_angle_beta   89.99051930
_cell_angle_gamma   90.00474733
_symmetry_Int_Tables_number   1
_chemical_formula_structural   H8PbC4(N3Cl2)2
_chemical_formula_sum   'H192 Pb24 C96 N144 Cl96'
_cell_volume   8082.23814408
_cell_formula_units_Z   24
loop_
 _symmetry_equiv_pos_site_id
 _symmetry_equiv_pos_as_xyz
  1  'x, y, z'
loop_
 _atom_site_type_symbol
 _atom_site_label
 _atom_site_symmetry_multiplicity
 _atom_site_fract_x
 _atom_site_fract_y
 _atom_site_fract_z
 _atom_site_occupancy
  H  H0  1  -0.00062465  0.03030933  0.67489663  1
  H  H1  1  -0.00224212  0.36437796  0.67947283  1
  H  H2  1  -0.00792266  0.69892632  0.67716161  1
  H  H3  1  0.49208216  0.02969743  0.67873179  1
  H  H4  1  0.49990182  0.36134067  0.67656335  1
  H  H5  1  0.51546302  0.69518706  0.67913968  1
  H  H6  1  -0.00063219  0.30519322  0.17807293  1
  H  H7  1  -0.01130480  0.63529872  0.17833861  1
  H  H8  1  -0.01425785  0.97012317  0.17890666  1
  H  H9  1  0.50156625  0.30243485  0.18032099  1
  H  H10  1  0.49586146  0.63434568  0.18171132  1
  H  H11  1  0.50961509  0.97140406  0.18020305  1
  H  H12  1  0.00415601  0.03059690  0.81740818  1
  H  H13  1  -0.00341629  0.36338600  0.82071588  1
  H  H14  1  0.01487836  0.69207305  0.82482133  1
  H  H15  1  0.49960913  0.02852265  0.81867388  1
  H  H16  1  0.50741531  0.36590432  0.81769987  1
  H  H17  1  0.48275825  0.69230418  0.82409910  1
  H  H18  1  0.00581264  0.30268757  0.32168678  1
  H  H19  1  -0.00783078  0.63754025  0.32020488  1
  H  H20  1  0.00151667  0.97071956  0.32111844  1
  H  H21  1  0.49692652  0.30378515  0.32692359  1
  H  H22  1  0.51109595  0.63883880  0.32345294  1
  H  H23  1  0.50113987  0.96803743  0.32024475  1
  H  H24  1  0.23547106  0.20168070  0.67746131  1
  H  H25  1  0.24726333  0.53122906  0.67761823  1
  H  H26  1  0.24843112  0.86254821  0.68189086  1
  H  H27  1  0.77642802  0.20004050  0.66798935  1
  H  H28  1  0.75421064  0.52843859  0.67988623  1
  H  H29  1  0.74495430  0.86226126  0.67517041  1
  H  H30  1  0.24233563  0.13672765  0.17852677  1
  H  H31  1  0.24983331  0.47139227  0.18062309  1
  H  H32  1  0.24902126  0.80821889  0.18062058  1
  H  H33  1  0.75224896  0.13755299  0.17720142  1
  H  H34  1  0.74685152  0.47330767  0.17645070  1
  H  H35  1  0.74838737  0.80182210  0.17701711  1
  H  H36  1  0.24628160  0.19578571  0.81816489  1
  H  H37  1  0.26492226  0.53197529  0.82320193  1
  H  H38  1  0.24754501  0.86421406  0.82017236  1
  H  H39  1  0.74609371  0.19786492  0.82266656  1
  H  H40  1  0.74777053  0.53048181  0.82205653  1
  H  H41  1  0.74699965  0.86153922  0.82285836  1
  H  H42  1  0.26081474  0.13554435  0.32178178  1
  H  H43  1  0.23697141  0.46946526  0.32403448  1
  H  H44  1  0.25620237  0.80137866  0.32249011  1
  H  H45  1  0.74994670  0.13940164  0.32192167  1
  H  H46  1  0.76577711  0.46980452  0.32302408  1
  H  H47  1  0.75162211  0.80355743  0.32159606  1
  H  H48  1  0.12946992  0.05544785  0.61063468  1
  H  H49  1  0.11380512  0.38903095  0.60458717  1
  H  H50  1  0.13224843  0.71747336  0.62465189  1
  H  H51  1  0.63352319  0.05025424  0.62826304  1
  H  H52  1  0.61924438  0.38758084  0.60374493  1
  H  H53  1  0.62898606  0.72395040  0.59857555  1
  H  H54  1  0.36440186  0.28271611  0.12554825  1
  H  H55  1  0.37839299  0.61061985  0.10270583  1
  H  H56  1  0.37034868  0.95212627  0.12878230  1
  H  H57  1  0.86355441  0.28377058  0.11879024  1
  H  H58  1  0.87518926  0.60534317  0.10109995  1
  H  H59  1  0.87284233  0.94137956  0.10050079  1
  H  H60  1  0.36795288  0.05245299  0.88406831  1
  H  H61  1  0.37519292  0.38763306  0.88272275  1
  H  H62  1  0.38279289  0.72525873  0.91029012  1
  H  H63  1  0.86927008  0.04988962  0.87560476  1
  H  H64  1  0.87435772  0.39025945  0.89417795  1
  H  H65  1  0.87262310  0.71245081  0.87471309  1
  H  H66  1  0.11663477  0.27683099  0.40449699  1
  H  H67  1  0.13078702  0.61534799  0.37584144  1
  H  H68  1  0.11273483  0.94357451  0.40096358  1
  H  H69  1  0.62255875  0.27433118  0.39366586  1
  H  H70  1  0.62609244  0.61141513  0.40143300  1
  H  H71  1  0.61464602  0.94022025  0.39757374  1
  H  H72  1  0.38092935  0.21313007  0.63373129  1
  H  H73  1  0.36896685  0.55695649  0.60619866  1
  H  H74  1  0.38507892  0.88460118  0.62314959  1
  H  H75  1  0.86249293  0.22966715  0.57536106  1
  H  H76  1  0.86743890  0.55443271  0.60074604  1
  H  H77  1  0.88441985  0.88258577  0.62201862  1
  H  H78  1  0.13880504  0.10861619  0.09514403  1
  H  H79  1  0.12570617  0.44754538  0.10896659  1
  H  H80  1  0.12683384  0.77847620  0.10889673  1
  H  H81  1  0.63455949  0.10931780  0.10261118  1
  H  H82  1  0.62698919  0.44399888  0.10447694  1
  H  H83  1  0.62716183  0.77584282  0.10488701  1
  H  H84  1  0.13426060  0.22340237  0.89725570  1
  H  H85  1  0.12586576  0.54789253  0.87507994  1
  H  H86  1  0.13130314  0.88936349  0.89479055  1
  H  H87  1  0.63908760  0.22597568  0.90568460  1
  H  H88  1  0.62177741  0.55193819  0.88898123  1
  H  H89  1  0.63375057  0.88990598  0.90158421  1
  H  H90  1  0.36164123  0.10834934  0.41096633  1
  H  H91  1  0.38005047  0.45125700  0.37160133  1
  H  H92  1  0.36889148  0.77548335  0.40098976  1
  H  H93  1  0.86897285  0.11317154  0.39758115  1
  H  H94  1  0.88013213  0.44204708  0.40058140  1
  H  H95  1  0.87200429  0.77708708  0.39393761  1
  H  H96  1  0.37486662  0.28198438  0.40100471  1
  H  H97  1  0.37851095  0.61447174  0.38625284  1
  H  H98  1  0.36636909  0.94717227  0.38162819  1
  H  H99  1  0.86985505  0.28289068  0.38205229  1
  H  H100  1  0.88374833  0.61212719  0.40242019  1
  H  H101  1  0.86533313  0.94551022  0.37861140  1
  H  H102  1  0.11660334  0.05408753  0.89581020  1
  H  H103  1  0.12292856  0.38883864  0.89050336  1
  H  H104  1  0.11607776  0.72621206  0.90942136  1
  H  H105  1  0.61616877  0.05570714  0.89694335  1
  H  H106  1  0.62313331  0.38798644  0.89828930  1
  H  H107  1  0.62514530  0.71405755  0.87103235  1
  H  H108  1  0.11121415  0.27739991  0.09920326  1
  H  H109  1  0.12292697  0.61468817  0.11634516  1
  H  H110  1  0.12039891  0.94856552  0.11812974  1
  H  H111  1  0.61107404  0.27881931  0.09861782  1
  H  H112  1  0.62665024  0.61139523  0.11559598  1
  H  H113  1  0.61585231  0.94430406  0.09740056  1
  H  H114  1  0.38907041  0.06142089  0.59351492  1
  H  H115  1  0.37025011  0.38975624  0.61220658  1
  H  H116  1  0.38173220  0.71767725  0.61704972  1
  H  H117  1  0.88138155  0.05887497  0.60213805  1
  H  H118  1  0.86492633  0.38256973  0.61632695  1
  H  H119  1  0.88732128  0.72610644  0.59114374  1
  H  H120  1  0.11924838  0.11694855  0.37275811  1
  H  H121  1  0.13759125  0.43952777  0.41126797  1
  H  H122  1  0.12063473  0.78070891  0.38217307  1
  H  H123  1  0.62086309  0.11602096  0.38750214  1
  H  H124  1  0.63207074  0.44677114  0.38489698  1
  H  H125  1  0.62311458  0.78036962  0.38872018  1
  H  H126  1  0.38187103  0.21819342  0.87832540  1
  H  H127  1  0.37087466  0.55929910  0.90608333  1
  H  H128  1  0.38024536  0.88453497  0.88257637  1
  H  H129  1  0.88524884  0.21881332  0.87616165  1
  H  H130  1  0.87108234  0.55351819  0.89260635  1
  H  H131  1  0.88160229  0.88692168  0.88089159  1
  H  H132  1  0.38361264  0.11784983  0.12887024  1
  H  H133  1  0.37513053  0.44791774  0.11063378  1
  H  H134  1  0.37595096  0.78067803  0.11484423  1
  H  H135  1  0.88343076  0.11253758  0.11424500  1
  H  H136  1  0.87571111  0.44953468  0.11021942  1
  H  H137  1  0.87568739  0.77798938  0.10805929  1
  H  H138  1  0.14031365  0.22683100  0.58778238  1
  H  H139  1  0.12020022  0.55494648  0.60905706  1
  H  H140  1  0.13798727  0.89103550  0.60147283  1
  H  H141  1  0.62805922  0.21384876  0.63331119  1
  H  H142  1  0.61955717  0.55139341  0.61842798  1
  H  H143  1  0.63892991  0.89243189  0.59257253  1
  H  H144  1  0.33345394  0.74879435  0.00455896  1
  H  H145  1  0.04578952  0.25054685  -0.00812204  1
  H  H146  1  0.09040023  0.08571204  0.50402716  1
  H  H147  1  0.22264848  0.25118498  0.48653274  1
  H  H148  1  0.89227810  0.07520457  0.98968315  1
  H  H149  1  0.39758817  0.91800070  0.48903094  1
  H  H150  1  0.88960160  0.75078683  0.98023107  1
  H  H151  1  0.14179827  0.57719704  -0.00915899  1
  H  H152  1  0.89040744  0.91854909  0.48888584  1
  H  H153  1  0.46796801  0.08678746  0.49478863  1
  H  H154  1  0.67613801  0.74801952  -0.00363427  1
  H  H155  1  0.71314784  0.91519407  0.49118213  1
  H  H156  1  0.42032562  0.24634229  0.50262284  1
  H  H157  1  0.95256442  0.58292262  0.50730824  1
  H  H158  1  0.38406013  0.92185661  0.01392063  1
  H  H159  1  0.40738218  0.41554978  0.50429232  1
  H  H160  1  0.20640513  0.91835929  0.49653046  1
  H  H161  1  0.38526890  0.25561470  1.01133722  1
  H  H162  1  0.46476421  0.74904082  1.00794697  1
  H  H163  1  0.65985039  0.08632945  0.49822811  1
  H  H164  1  0.66306842  0.58077271  1.00150473  1
  H  H165  1  0.54446246  0.25263579  -0.00800661  1
  H  H166  1  0.04431720  0.24922199  0.50489972  1
  H  H167  1  0.21118808  0.07897099  -0.00842691  1
  H  H168  1  0.37119135  0.08685515  1.01632442  1
  H  H169  1  0.41792044  0.58727284  0.49331351  1
  H  H170  1  0.03423164  0.74332424  1.00795320  1
  H  H171  1  0.80198728  0.58529269  0.49598670  1
  H  H172  1  0.71224778  0.25439201  1.00575822  1
  H  H173  1  0.88920131  0.25555207  0.00906123  1
  H  H174  1  0.05665154  0.41658841  0.49442643  1
  H  H175  1  0.10673925  0.58797043  0.48414856  1
  H  H176  1  0.20141576  0.25204593  1.00322301  1
  H  H177  1  0.27916100  0.08503126  0.50819699  1
  H  H178  1  0.55254855  0.91019372  0.50443152  1
  H  H179  1  0.56604294  0.42021335  0.49576066  1
  H  H180  1  0.18698456  0.92129902  1.00320711  1
  H  H181  1  0.04692516  0.91249603  0.50615576  1
  H  H182  1  0.05404074  0.07863661  1.00512538  1
  H  H183  1  0.30573608  0.74473392  0.50740668  1
  H  H184  1  0.32696007  0.41951213  0.00151072  1
  H  H185  1  0.21904762  0.41593456  0.50940577  1
  H  H186  1  0.58594194  0.25013992  0.50044743  1
  H  H187  1  0.54496396  0.91672090  -0.00744385  1
  H  H188  1  0.70152768  0.91884524  1.00348339  1
  H  H189  1  0.18069040  0.75898011  0.00251723  1
  H  H190  1  0.14786000  0.75240290  0.49184232  1
  H  H191  1  0.69554714  0.08148254  -0.00187815  1
  Pb  Pb192  1  0.25219460  0.04672586  0.74300147  1
  Pb  Pb193  1  0.25034541  0.38410359  0.74633478  1
  Pb  Pb194  1  0.25317072  0.71453731  0.76063909  1
  Pb  Pb195  1  0.75590117  0.04998696  0.75651014  1
  Pb  Pb196  1  0.74865031  0.38001516  0.75394603  1
  Pb  Pb197  1  0.75214205  0.71350840  0.73912341  1
  Pb  Pb198  1  0.24348650  0.28366129  0.25137521  1
  Pb  Pb199  1  0.25103474  0.61789504  0.24657883  1
  Pb  Pb200  1  0.24465493  0.95432477  0.25656056  1
  Pb  Pb201  1  0.74482242  0.28769056  0.24216966  1
  Pb  Pb202  1  0.74951298  0.61987897  0.25429918  1
  Pb  Pb203  1  0.74191446  0.94893768  0.24505286  1
  Pb  Pb204  1  0.00715102  0.21654580  0.74062477  1
  Pb  Pb205  1  -0.00343469  0.54897143  0.74486772  1
  Pb  Pb206  1  0.00417105  0.88046448  0.74633389  1
  Pb  Pb207  1  0.50382586  0.21369692  0.75411458  1
  Pb  Pb208  1  0.50006459  0.54766784  0.75077594  1
  Pb  Pb209  1  0.51005097  0.88290481  0.74850636  1
  Pb  Pb210  1  -0.00695117  0.11821147  0.24705448  1
  Pb  Pb211  1  -0.00125882  0.45245438  0.25647784  1
  Pb  Pb212  1  -0.00012410  0.78538535  0.24354202  1
  Pb  Pb213  1  0.49914272  0.11959977  0.25906496  1
  Pb  Pb214  1  0.50064194  0.45169343  0.25005284  1
  Pb  Pb215  1  0.49396887  0.78494710  0.24701361  1
  C  C216  1  0.00399041  0.04744823  0.62814333  1
  C  C217  1  -0.00757059  0.37847386  0.63172470  1
  C  C218  1  0.00385514  0.71369305  0.63032110  1
  C  C219  1  0.50454681  0.04574897  0.63233426  1
  C  C220  1  0.49573206  0.37864974  0.62960720  1
  C  C221  1  0.50897386  0.71132922  0.63207942  1
  C  C222  1  -0.00936271  0.28942970  0.13091970  1
  C  C223  1  -0.00404764  0.61904361  0.13163412  1
  C  C224  1  -0.00673570  0.95372862  0.13220681  1
  C  C225  1  0.49193462  0.28842407  0.13280084  1
  C  C226  1  0.50017619  0.61934799  0.13403166  1
  C  C227  1  0.49805666  0.95590913  0.13335009  1
  C  C228  1  -0.00377604  0.04466150  0.86517954  1
  C  C229  1  -0.00202557  0.38028157  0.86771216  1
  C  C230  1  0.00096955  0.70969753  0.87057910  1
  C  C231  1  0.49457468  0.04436890  0.86600347  1
  C  C232  1  0.50191720  0.38007885  0.86557428  1
  C  C233  1  0.49659211  0.70911053  0.86995832  1
  C  C234  1  -0.00207111  0.28784511  0.36909701  1
  C  C235  1  0.00296493  0.62183710  0.36714763  1
  C  C236  1  -0.00763789  0.95439964  0.36799542  1
  C  C237  1  0.49792698  0.28640891  0.37398803  1
  C  C238  1  0.50490808  0.62231396  0.37034643  1
  C  C239  1  0.49328884  0.95268556  0.36759801  1
  C  C240  1  0.25255704  0.21401928  0.63068702  1
  C  C241  1  0.24509497  0.54752792  0.63064270  1
  C  C242  1  0.25763356  0.87893639  0.63514700  1
  C  C243  1  0.75481727  0.21495242  0.62316074  1
  C  C244  1  0.74686762  0.54467515  0.63295211  1
  C  C245  1  0.75596586  0.87777671  0.62831239  1
  C  C246  1  0.25550022  0.12143182  0.13189758  1
  C  C247  1  0.25017749  0.45574584  0.13316521  1
  C  C248  1  0.24990563  0.79100832  0.13356029  1
  C  C249  1  0.75634100  0.12110707  0.13009813  1
  C  C250  1  0.75005323  0.45591070  0.12992265  1
  C  C251  1  0.75069548  0.78605346  0.12951704  1
  C  C252  1  0.25457576  0.21188495  0.86507003  1
  C  C253  1  0.25276892  0.54635905  0.87016689  1
  C  C254  1  0.25262701  0.87953471  0.86762273  1
  C  C255  1  0.75659227  0.21324855  0.86961659  1
  C  C256  1  0.74633320  0.54485560  0.86986870  1
  C  C257  1  0.75386727  0.87841420  0.86950037  1
  C  C258  1  0.24756079  0.12110589  0.36859901  1
  C  C259  1  0.25138937  0.45447271  0.37051299  1
  C  C260  1  0.24793566  0.78613719  0.36994294  1
  C  C261  1  0.74645801  0.12302601  0.36905418  1
  C  C262  1  0.75902358  0.45331231  0.36971144  1
  C  C263  1  0.74872721  0.78723835  0.36857904  1
  C  C264  1  0.81838925  0.24164586  0.95548148  1
  C  C265  1  0.53020107  0.40895746  0.53628750  1
  C  C266  1  0.94066969  0.40295671  0.54136356  1
  C  C267  1  0.02187478  0.40538806  0.53551196  1
  C  C268  1  0.24008340  0.09202987  0.03467244  1
  C  C269  1  0.67437002  0.23911904  0.54607022  1
  C  C270  1  0.43479761  0.93082465  0.04688848  1
  C  C271  1  0.19105328  0.56998155  0.95803144  1
  C  C272  1  0.01536148  0.26121645  0.03512958  1
  C  C273  1  0.57068604  0.07439462  0.54841378  1
  C  C274  1  0.71629348  0.75905079  0.03585302  1
  C  C275  1  0.77012893  0.57377725  0.53837856  1
  C  C276  1  0.32703380  0.23355071  0.54832448  1
  C  C277  1  0.32050610  0.42816995  0.45365845  1
  C  C278  1  0.70418718  0.57075405  0.96370929  1
  C  C279  1  0.28768783  0.42932012  0.04050897  1
  C  C280  1  0.81856218  0.90570665  0.54263875  1
  C  C281  1  0.78117686  0.75683547  0.46106587  1
  C  C282  1  0.30454340  0.90648493  0.95742335  1
  C  C283  1  0.75155622  0.24452905  0.52689749  1
  C  C284  1  0.23701616  0.90697068  0.53960260  1
  C  C285  1  0.28051671  0.57772370  0.53778143  1
  C  C286  1  0.98169102  0.59369743  0.46355074  1
  C  C287  1  0.27382773  0.75708221  0.46527285  1
  C  C288  1  0.80718665  0.08963951  0.04101636  1
  C  C289  1  0.43264610  0.26460665  0.04481616  1
  C  C290  1  0.24839731  0.23910273  0.53135767  1
  C  C291  1  0.78490765  0.42019018  0.46291206  1
  C  C292  1  0.96900191  0.92157933  0.03826004  1
  C  C293  1  0.29429243  0.76030647  0.04310555  1
  C  C294  1  0.01651556  0.92420923  0.46316815  1
  C  C295  1  0.52071421  0.92289921  0.46242548  1
  C  C296  1  0.70292013  0.09569429  0.46023163  1
  C  C297  1  0.22342851  0.90905406  0.96335355  1
  C  C298  1  0.23209606  0.24108139  0.96000880  1
  C  C299  1  0.80998731  0.91107205  0.95664866  1
  C  C300  1  0.51567256  0.92823503  0.03603011  1
  C  C301  1  0.51376872  0.26300964  0.03531436  1
  C  C302  1  0.97069074  0.58588077  0.03828261  1
  C  C303  1  0.78585551  0.57087980  0.96360683  1
  C  C304  1  0.02173019  0.06857946  0.96260156  1
  C  C305  1  0.56588057  0.73896185  0.95241635  1
  C  C306  1  0.27151057  0.57422925  0.96707259  1
  C  C307  1  0.96977266  0.08084642  0.53487442  1
  C  C308  1  0.94011246  0.06708323  0.95523791  1
  C  C309  1  0.06334069  0.73983221  0.54439491  1
  C  C310  1  0.71827825  0.42311358  0.03811609  1
  C  C311  1  0.32044430  0.09573783  0.04692794  1
  N  N312  1  0.19467442  0.75928545  0.45785521  1
  N  N313  1  0.78186824  0.09413540  0.46373936  1
  N  N314  1  0.24320635  0.42410197  0.46599658  1
  N  N315  1  0.31559851  0.90455486  0.54667712  1
  N  N316  1  0.94012194  0.26228538  0.45682970  1
  N  N317  1  0.74035393  0.90930724  0.53372427  1
  N  N318  1  0.93764532  0.92532041  0.45464973  1
  N  N319  1  0.52970687  0.40551111  0.96172023  1
  N  N320  1  0.70388749  0.75825004  0.46068389  1
  N  N321  1  0.54692112  0.59329016  0.04259890  1
  N  N322  1  0.79555726  0.42480499  0.03878695  1
  N  N323  1  0.98715242  0.74300356  0.53256831  1
  N  N324  1  0.44172895  0.92586089  0.45582338  1
  N  N325  1  0.01353110  0.74675424  0.96286791  1
  N  N326  1  0.93666151  0.73391190  0.95385373  1
  N  N327  1  0.04629598  0.92427140  0.04246764  1
  N  N328  1  0.45860629  0.59307008  0.45800551  1
  N  N329  1  0.45346003  0.40581255  0.95675294  1
  N  N330  1  0.52364107  0.07283154  0.96094171  1
  N  N331  1  0.06014830  0.59339734  0.45285557  1
  N  N332  1  0.18020418  0.09718610  0.45270517  1
  N  N333  1  0.45064425  0.40903014  0.54037171  1
  N  N334  1  0.20254205  0.57675256  0.53776732  1
  N  N335  1  0.46234481  0.26431636  0.46825011  1
  N  N336  1  0.53988565  0.25255101  0.46293816  1
  N  N337  1  0.93643871  0.26255018  0.04333217  1
  N  N338  1  0.20838716  0.42827116  0.03963625  1
  N  N339  1  0.01750248  0.26026068  0.46312010  1
  N  N340  1  0.73139602  0.91084118  0.96268057  1
  N  N341  1  0.04846102  0.07739942  0.53857576  1
  N  N342  1  0.44769300  0.07161738  0.95637684  1
  N  N343  1  0.74010219  0.24400033  0.96425250  1
  N  N344  1  0.04784933  0.58950547  0.04189747  1
  N  N345  1  0.03860700  0.40945103  0.96005275  1
  N  N346  1  0.25661264  0.09352178  0.46394562  1
  N  N347  1  0.47086210  0.59292353  0.03850909  1
  N  N348  1  0.49316702  0.07789973  0.53777109  1
  N  N349  1  0.45789658  0.74001401  0.54280326  1
  N  N350  1  0.79571242  0.76067629  0.03611718  1
  N  N351  1  0.96247311  0.41052415  0.96091794  1
  N  N352  1  0.53621645  0.59225378  0.46465153  1
  N  N353  1  0.70761669  0.42174731  0.45937088  1
  N  N354  1  0.69135149  0.57339879  0.54422848  1
  N  N355  1  0.53395330  0.74276541  0.53737234  1
  N  N356  1  0.48836181  0.74217039  0.96439415  1
  N  N357  1  0.31049744  0.24051025  0.95291407  1
  N  N358  1  0.21465547  0.75985714  0.04204825  1
  N  N359  1  0.72834323  0.08936982  0.03756876  1
  N  N360  1  0.07048269  0.05594371  0.59586075  1
  N  N361  1  0.05314509  0.38996022  0.59301858  1
  N  N362  1  0.07628722  0.72238972  0.60417125  1
  N  N363  1  0.57809708  0.05574506  0.60736031  1
  N  N364  1  0.55842484  0.39075903  0.59182617  1
  N  N365  1  0.56702991  0.72487316  0.59244477  1
  N  N366  1  0.42055704  0.28012453  0.10526646  1
  N  N367  1  0.44029671  0.60892693  0.09494362  1
  N  N368  1  0.42578848  0.94758888  0.10750998  1
  N  N369  1  0.92170539  0.28063170  0.10208772  1
  N  N370  1  0.93651751  0.60410550  0.09188502  1
  N  N371  1  0.93406135  0.93920799  0.09212436  1
  N  N372  1  0.42787798  0.05400454  0.89808758  1
  N  N373  1  0.43497591  0.39035934  0.89699852  1
  N  N374  1  0.44461837  0.72100236  0.91453738  1
  N  N375  1  0.92607173  0.05267041  0.89439432  1
  N  N376  1  0.93563620  0.39288483  0.90363039  1
  N  N377  1  0.92890954  0.72038848  0.89390778  1
  N  N378  1  0.05464477  0.27615528  0.41043655  1
  N  N379  1  0.07293911  0.61144696  0.39379064  1
  N  N380  1  0.05092724  0.94168352  0.40935901  1
  N  N381  1  0.56232217  0.27250437  0.40703241  1
  N  N382  1  0.56472250  0.60935916  0.40922440  1
  N  N383  1  0.55310316  0.93972828  0.40775327  1
  N  N384  1  0.32838752  0.21873577  0.60861863  1
  N  N385  1  0.30842633  0.56011914  0.59390551  1
  N  N386  1  0.32692071  0.88719888  0.60646852  1
  N  N387  1  0.80056353  0.22986634  0.57363506  1
  N  N388  1  0.80587533  0.55652554  0.59238224  1
  N  N389  1  0.82858444  0.88782474  0.60185911  1
  N  N390  1  0.20084571  0.10837053  0.08825081  1
  N  N391  1  0.18680043  0.44492617  0.09767167  1
  N  N392  1  0.18742806  0.78240404  0.09672004  1
  N  N393  1  0.69597614  0.11102631  0.09175557  1
  N  N394  1  0.68744779  0.44160221  0.09299102  1
  N  N395  1  0.68764086  0.77450049  0.09285707  1
  N  N396  1  0.19612560  0.22367051  0.90628407  1
  N  N397  1  0.18095121  0.55301649  0.89664860  1
  N  N398  1  0.19215744  0.89192578  0.90595658  1
  N  N399  1  0.70146990  0.22467759  0.91183388  1
  N  N400  1  0.68088103  0.55457921  0.90416184  1
  N  N401  1  0.69570621  0.88896489  0.90986049  1
  N  N402  1  0.29903049  0.11051270  0.41395829  1
  N  N403  1  0.32576059  0.44574411  0.39412128  1
  N  N404  1  0.30741320  0.77353168  0.41068339  1
  N  N405  1  0.80724744  0.11155722  0.40678772  1
  N  N406  1  0.81905904  0.43933723  0.40936557  1
  N  N407  1  0.81169326  0.77436950  0.40574723  1
  N  N408  1  0.43564007  0.27779757  0.41119286  1
  N  N409  1  0.43779320  0.61251569  0.40145576  1
  N  N410  1  0.42503790  0.94510342  0.39776554  1
  N  N411  1  0.92837378  0.27911644  0.39826115  1
  N  N412  1  0.94577288  0.61054338  0.41017318  1
  N  N413  1  0.92321568  0.94559000  0.39657801  1
  N  N414  1  0.05544715  0.05465607  0.90624341  1
  N  N415  1  0.06229189  0.39061237  0.90230203  1
  N  N416  1  0.05389963  0.72201297  0.91468177  1
  N  N417  1  0.55405484  0.05581347  0.90495851  1
  N  N418  1  0.56106706  0.38955870  0.90556573  1
  N  N419  1  0.57069289  0.72010651  0.89337176  1
  N  N420  1  0.04936963  0.27719772  0.08953749  1
  N  N421  1  0.06389737  0.61015363  0.10135797  1
  N  N422  1  0.06137358  0.94461714  0.10229268  1
  N  N423  1  0.54936952  0.27783690  0.09057463  1
  N  N424  1  0.56659452  0.60971220  0.10166062  1
  N  N425  1  0.55386425  0.94378514  0.09030478  1
  N  N426  1  0.45132912  0.05778849  0.58868522  1
  N  N427  1  0.42964942  0.38850793  0.59724097  1
  N  N428  1  0.44103752  0.72066110  0.60155471  1
  N  N429  1  0.94192874  0.06226935  0.59018608  1
  N  N430  1  0.92343398  0.38684401  0.59950185  1
  N  N431  1  0.94999513  0.72609565  0.58734950  1
  N  N432  1  0.17505114  0.11248217  0.39295812  1
  N  N433  1  0.19985944  0.44263251  0.41527374  1
  N  N434  1  0.17922418  0.77780184  0.39931714  1
  N  N435  1  0.67965536  0.11246057  0.40194434  1
  N  N436  1  0.69147641  0.44279648  0.39978031  1
  N  N437  1  0.68332188  0.77703091  0.40172540  1
  N  N438  1  0.32328328  0.22234211  0.89382610  1
  N  N439  1  0.30883950  0.56000956  0.91421652  1
  N  N440  1  0.32207330  0.88889007  0.89942933  1
  N  N441  1  0.82910500  0.22326408  0.89647431  1
  N  N442  1  0.81105610  0.55541451  0.90700146  1
  N  N443  1  0.82397337  0.89166937  0.89865306  1
  N  N444  1  0.32851329  0.11366376  0.10711404  1
  N  N445  1  0.31493548  0.44546851  0.09775488  1
  N  N446  1  0.31635448  0.77804935  0.10030553  1
  N  N447  1  0.82489955  0.10842597  0.09866319  1
  N  N448  1  0.81560229  0.44551285  0.09710795  1
  N  N449  1  0.81553576  0.77738981  0.09523643  1
  N  N450  1  0.20287844  0.22662698  0.58406184  1
  N  N451  1  0.18051982  0.55808121  0.59691042  1
  N  N452  1  0.20004473  0.89173111  0.59364132  1
  N  N453  1  0.67776110  0.22142957  0.60568926  1
  N  N454  1  0.67861620  0.55528822  0.60316730  1
  N  N455  1  0.70111436  0.88908180  0.58582320  1
  Cl  Cl456  1  0.26455471  0.06113681  0.60152633  1
  Cl  Cl457  1  0.24111320  0.39652057  0.60604126  1
  Cl  Cl458  1  0.25838613  0.72004850  0.62500600  1
  Cl  Cl459  1  0.76075345  0.04791314  0.62597893  1
  Cl  Cl460  1  0.74118362  0.38384390  0.62272192  1
  Cl  Cl461  1  0.75984726  0.72496977  0.60663562  1
  Cl  Cl462  1  0.23196488  0.27414632  0.11714141  1
  Cl  Cl463  1  0.25427777  0.61474095  0.11396284  1
  Cl  Cl464  1  0.24256979  0.94768640  0.12650945  1
  Cl  Cl465  1  0.73414636  0.27483352  0.10237631  1
  Cl  Cl466  1  0.75052961  0.60881980  0.12031233  1
  Cl  Cl467  1  0.74187003  0.94297928  0.10568155  1
  Cl  Cl468  1  0.24141550  0.05549078  0.87671881  1
  Cl  Cl469  1  0.25022287  0.38691845  0.87871179  1
  Cl  Cl470  1  0.24406622  0.72921022  0.90179445  1
  Cl  Cl471  1  0.73495630  0.05752523  0.89485707  1
  Cl  Cl472  1  0.74726496  0.38509471  0.88812100  1
  Cl  Cl473  1  0.75019781  0.71783983  0.87410006  1
  Cl  Cl474  1  0.24445754  0.28122535  0.38947876  1
  Cl  Cl475  1  0.25541240  0.61486760  0.38124127  1
  Cl  Cl476  1  0.23804441  0.94491424  0.39288275  1
  Cl  Cl477  1  0.74386986  0.28083248  0.37387504  1
  Cl  Cl478  1  0.75769268  0.61186740  0.38976105  1
  Cl  Cl479  1  0.73730259  0.93686789  0.38870611  1
  Cl  Cl480  1  0.01353067  0.22454098  0.60020419  1
  Cl  Cl481  1  -0.00691158  0.55568033  0.60784919  1
  Cl  Cl482  1  0.01437342  0.89123579  0.61024605  1
  Cl  Cl483  1  0.50266966  0.21760404  0.62067104  1
  Cl  Cl484  1  0.49112125  0.55275606  0.61571085  1
  Cl  Cl485  1  0.51693351  0.89488801  0.61103482  1
  Cl  Cl486  1  0.01469160  0.11155246  0.11276721  1
  Cl  Cl487  1  0.00149754  0.44962074  0.12535995  1
  Cl  Cl488  1  0.00415844  0.76837515  0.10426250  1
  Cl  Cl489  1  0.51540518  0.10982923  0.12932683  1
  Cl  Cl490  1  0.50064181  0.44554337  0.12199052  1
  Cl  Cl491  1  0.49905274  0.77377560  0.10731372  1
  Cl  Cl492  1  0.01363352  0.22475981  0.87943018  1
  Cl  Cl493  1  -0.00642046  0.55781366  0.87458433  1
  Cl  Cl494  1  0.00646992  0.88375623  0.87675714  1
  Cl  Cl495  1  0.51694566  0.22064903  0.88776665  1
  Cl  Cl496  1  0.49185576  0.55763862  0.88126178  1
  Cl  Cl497  1  0.51173577  0.88573028  0.88373217  1
  Cl  Cl498  1  -0.00813224  0.11349921  0.38239184  1
  Cl  Cl499  1  0.01192149  0.44335088  0.39272341  1
  Cl  Cl500  1  -0.00295546  0.78214420  0.37398623  1
  Cl  Cl501  1  0.48204380  0.10849843  0.40063011  1
  Cl  Cl502  1  0.50724549  0.44230707  0.38625329  1
  Cl  Cl503  1  0.49422446  0.78266601  0.37787592  1
  Cl  Cl504  1  0.36716510  0.14473603  0.75005365  1
  Cl  Cl505  1  0.35953325  0.47928073  0.74815743  1
  Cl  Cl506  1  0.36212957  0.81371764  0.75216793  1
  Cl  Cl507  1  0.86056422  0.14587534  0.75934754  1
  Cl  Cl508  1  0.85951287  0.48137807  0.74958867  1
  Cl  Cl509  1  0.86607835  0.81379037  0.74832435  1
  Cl  Cl510  1  0.14568129  0.18212608  0.25754522  1
  Cl  Cl511  1  0.14176601  0.51776417  0.25332012  1
  Cl  Cl512  1  0.13785667  0.85146249  0.25134811  1
  Cl  Cl513  1  0.64025137  0.18260852  0.25532923  1
  Cl  Cl514  1  0.63923403  0.51774305  0.25591941  1
  Cl  Cl515  1  0.64565843  0.85108308  0.24667684  1
  Cl  Cl516  1  0.14526525  0.15065834  0.74745193  1
  Cl  Cl517  1  0.14146026  0.48030396  0.75457129  1
  Cl  Cl518  1  0.14307933  0.81558111  0.74842433  1
  Cl  Cl519  1  0.64134581  0.14773891  0.74114819  1
  Cl  Cl520  1  0.63889376  0.48220016  0.74744963  1
  Cl  Cl521  1  0.64693811  0.81763886  0.74938439  1
  Cl  Cl522  1  0.36580854  0.18913941  0.24361386  1
  Cl  Cl523  1  0.36398385  0.51928436  0.25758932  1
  Cl  Cl524  1  0.35751172  0.85380878  0.25178848  1
  Cl  Cl525  1  0.85855781  0.18742610  0.24279674  1
  Cl  Cl526  1  0.86099441  0.51879102  0.25128715  1
  Cl  Cl527  1  0.86420372  0.85492524  0.24451206  1
  Cl  Cl528  1  0.10649338  0.31421407  0.74465672  1
  Cl  Cl529  1  0.11347814  0.64750465  0.74689345  1
  Cl  Cl530  1  0.10900857  0.98566597  0.74291220  1
  Cl  Cl531  1  0.60691045  0.31675607  0.74678671  1
  Cl  Cl532  1  0.61120897  0.64886776  0.75389929  1
  Cl  Cl533  1  0.60534432  0.98384161  0.75210675  1
  Cl  Cl534  1  0.38394885  0.02096528  0.25068232  1
  Cl  Cl535  1  0.38486242  0.35337452  0.25354263  1
  Cl  Cl536  1  0.38887049  0.68811127  0.25167472  1
  Cl  Cl537  1  0.88749106  0.02151735  0.25133279  1
  Cl  Cl538  1  0.88544876  0.35191151  0.24960231  1
  Cl  Cl539  1  0.89215072  0.68340527  0.24856547  1
  Cl  Cl540  1  0.38541313  0.31075045  0.74711037  1
  Cl  Cl541  1  0.38818609  0.64822808  0.74655288  1
  Cl  Cl542  1  0.38628654  0.97687608  0.74990482  1
  Cl  Cl543  1  0.88651244  0.31145936  0.74991344  1
  Cl  Cl544  1  0.89243876  0.65003946  0.74957504  1
  Cl  Cl545  1  0.88930354  0.97958456  0.75278191  1
  Cl  Cl546  1  0.10616162  0.01819210  0.25459944  1
  Cl  Cl547  1  0.10495887  0.34822868  0.24924102  1
  Cl  Cl548  1  0.11669427  0.68768006  0.24926393  1
  Cl  Cl549  1  0.60620226  0.01522405  0.25689052  1
  Cl  Cl550  1  0.60235900  0.34618972  0.25110488  1
  Cl  Cl551  1  0.60959475  0.68612872  0.24996865  1
