# generated using pymatgen
data_H8PbC4(N3Cl2)2
_symmetry_space_group_name_H-M   'P 1'
_cell_length_a   16.62995691
_cell_length_b   22.53259222
_cell_length_c   21.60269220
_cell_angle_alpha   90.00013045
_cell_angle_beta   90.05140780
_cell_angle_gamma   90.00215104
_symmetry_Int_Tables_number   1
_chemical_formula_structural   H8PbC4(N3Cl2)2
_chemical_formula_sum   'H192 Pb24 C96 N144 Cl96'
_cell_volume   8094.87196121
_cell_formula_units_Z   24
loop_
 _symmetry_equiv_pos_site_id
 _symmetry_equiv_pos_as_xyz
  1  'x, y, z'
loop_
 _atom_site_type_symbol
 _atom_site_label
 _atom_site_symmetry_multiplicity
 _atom_site_fract_x
 _atom_site_fract_y
 _atom_site_fract_z
 _atom_site_occupancy
  H  H0  1  -0.01727103  0.03396235  0.67151529  1
  H  H1  1  0.01893925  0.36228259  0.67513088  1
  H  H2  1  0.02224468  0.69564865  0.67659863  1
  H  H3  1  0.51734586  0.02970033  0.67771050  1
  H  H4  1  0.48829658  0.36796717  0.68049261  1
  H  H5  1  0.47838652  0.69099582  0.67306240  1
  H  H6  1  -0.02188788  0.30501365  0.17543280  1
  H  H7  1  0.00338340  0.64005379  0.17054830  1
  H  H8  1  0.02462470  0.97014226  0.17538668  1
  H  H9  1  0.51850712  0.30390984  0.17549118  1
  H  H10  1  0.49859803  0.64145838  0.17972540  1
  H  H11  1  0.48566902  0.97315395  0.17948685  1
  H  H12  1  0.01875585  0.02779334  0.82659235  1
  H  H13  1  -0.01030025  0.36443780  0.82431522  1
  H  H14  1  -0.00129894  0.69529687  0.82443528  1
  H  H15  1  0.48554297  0.03174837  0.82276744  1
  H  H16  1  0.48983266  0.36479022  0.81950585  1
  H  H17  1  0.50833539  0.69414263  0.82044246  1
  H  H18  1  0.01695545  0.30760802  0.32435460  1
  H  H19  1  -0.00203243  0.63494090  0.31777897  1
  H  H20  1  0.00193228  0.96873817  0.31654419  1
  H  H21  1  0.49427335  0.30739051  0.32405677  1
  H  H22  1  0.52588410  0.63362286  0.34219058  1
  H  H23  1  0.50424100  0.96685869  0.32999163  1
  H  H24  1  0.24853637  0.19100576  0.68096397  1
  H  H25  1  0.23306864  0.52823190  0.68209945  1
  H  H26  1  0.22552502  0.86519273  0.67204561  1
  H  H27  1  0.75919731  0.19806601  0.67944870  1
  H  H28  1  0.72168786  0.53025056  0.65769966  1
  H  H29  1  0.77081223  0.85900071  0.67376993  1
  H  H30  1  0.24767891  0.13771696  0.16900201  1
  H  H31  1  0.24340666  0.47514735  0.18038030  1
  H  H32  1  0.24636998  0.80430599  0.17662297  1
  H  H33  1  0.75408107  0.13472273  0.17580807  1
  H  H34  1  0.75425752  0.47007262  0.18236771  1
  H  H35  1  0.76070100  0.81180970  0.17583621  1
  H  H36  1  0.25178462  0.19430400  0.82863874  1
  H  H37  1  0.24451975  0.52535552  0.82777887  1
  H  H38  1  0.25761243  0.85187569  0.82608338  1
  H  H39  1  0.75615888  0.18760171  0.82017137  1
  H  H40  1  0.73434197  0.52639464  0.82476086  1
  H  H41  1  0.73425356  0.86418056  0.82317938  1
  H  H42  1  0.26648391  0.13472115  0.32937586  1
  H  H43  1  0.25576817  0.47304300  0.31606498  1
  H  H44  1  0.24831087  0.80709367  0.31309657  1
  H  H45  1  0.73336068  0.14495466  0.32490497  1
  H  H46  1  0.74990976  0.47100429  0.32119556  1
  H  H47  1  0.74258933  0.80136084  0.33011121  1
  H  H48  1  0.12005054  0.05637127  0.61629424  1
  H  H49  1  0.12045068  0.39271000  0.58997386  1
  H  H50  1  0.11723580  0.72763823  0.58845800  1
  H  H51  1  0.60999353  0.06230781  0.58639726  1
  H  H52  1  0.62676349  0.38209060  0.62447327  1
  H  H53  1  0.62463457  0.71454322  0.63279737  1
  H  H54  1  0.37154095  0.28230717  0.13410148  1
  H  H55  1  0.36527684  0.61426606  0.11748412  1
  H  H56  1  0.38495914  0.94523488  0.09214342  1
  H  H57  1  0.88384765  0.27676662  0.08519629  1
  H  H58  1  0.87053169  0.61499473  0.10960762  1
  H  H59  1  0.88473427  0.95222807  0.12624686  1
  H  H60  1  0.38311404  0.05913495  0.91109687  1
  H  H61  1  0.38152759  0.39135247  0.89953251  1
  H  H62  1  0.38439498  0.72070645  0.88989453  1
  H  H63  1  0.88111608  0.04715381  0.87879926  1
  H  H64  1  0.88544578  0.38941620  0.90918689  1
  H  H65  1  0.89702389  0.72616917  0.90820821  1
  H  H66  1  0.11369090  0.27141158  0.41183123  1
  H  H67  1  0.13659055  0.61745010  0.37208009  1
  H  H68  1  0.13441112  0.94817364  0.37852684  1
  H  H69  1  0.62157246  0.27956638  0.38868119  1
  H  H70  1  0.66007736  0.61183648  0.39983270  1
  H  H71  1  0.62352652  0.94760017  0.40684009  1
  H  H72  1  0.38329400  0.21663325  0.62128211  1
  H  H73  1  0.35624045  0.55328167  0.61040684  1
  H  H74  1  0.37170401  0.88210309  0.63055157  1
  H  H75  1  0.87894201  0.22508724  0.60594552  1
  H  H76  1  0.83078686  0.55890529  0.57818123  1
  H  H77  1  0.85833473  0.89638345  0.58236219  1
  H  H78  1  0.12590209  0.11173788  0.09987613  1
  H  H79  1  0.11603253  0.45044635  0.11336602  1
  H  H80  1  0.11399960  0.78148152  0.11384467  1
  H  H81  1  0.62370585  0.11214640  0.11162235  1
  H  H82  1  0.62147984  0.44786471  0.11811641  1
  H  H83  1  0.61782488  0.78639955  0.13090996  1
  H  H84  1  0.12930055  0.22095031  0.89924588  1
  H  H85  1  0.13248630  0.55827109  0.90353483  1
  H  H86  1  0.11803456  0.88294059  0.87380588  1
  H  H87  1  0.63098224  0.22325467  0.88395305  1
  H  H88  1  0.63243059  0.55970149  0.90985021  1
  H  H89  1  0.61809012  0.89255361  0.90031853  1
  H  H90  1  0.37557731  0.10664494  0.41125993  1
  H  H91  1  0.37802969  0.45184349  0.38780416  1
  H  H92  1  0.37218871  0.77829303  0.38014032  1
  H  H93  1  0.87828958  0.12218789  0.36879511  1
  H  H94  1  0.87476070  0.44381367  0.39246189  1
  H  H95  1  0.87385030  0.77984809  0.39262597  1
  H  H96  1  0.37316027  0.27855083  0.39693145  1
  H  H97  1  0.41278668  0.60341298  0.41771981  1
  H  H98  1  0.37605550  0.94027776  0.39372432  1
  H  H99  1  0.87244156  0.28455608  0.36987322  1
  H  H100  1  0.89047307  0.60923531  0.39820655  1
  H  H101  1  0.88596394  0.94620814  0.39236838  1
  H  H102  1  0.12672873  0.05783501  0.90848923  1
  H  H103  1  0.12959453  0.38341546  0.87326062  1
  H  H104  1  0.14076033  0.71164929  0.87220072  1
  H  H105  1  0.62712402  0.05294043  0.87586794  1
  H  H106  1  0.62787160  0.38123176  0.87422516  1
  H  H107  1  0.63313532  0.71845623  0.89103517  1
  H  H108  1  0.12431581  0.28137044  0.13360069  1
  H  H109  1  0.11805119  0.60681167  0.09620554  1
  H  H110  1  0.12838877  0.94577189  0.08893902  1
  H  H111  1  0.61121603  0.26890044  0.08670694  1
  H  H112  1  0.61272670  0.60992690  0.10118719  1
  H  H113  1  0.62859970  0.94959425  0.13068461  1
  H  H114  1  0.37150052  0.05005489  0.63389557  1
  H  H115  1  0.38042943  0.38620943  0.59741771  1
  H  H116  1  0.38749298  0.72686296  0.58227748  1
  H  H117  1  0.87536326  0.05325260  0.58590805  1
  H  H118  1  0.87723580  0.38592932  0.62730801  1
  H  H119  1  0.87607944  0.71442475  0.63206639  1
  H  H120  1  0.13004966  0.11083765  0.38342921  1
  H  H121  1  0.12904703  0.44799497  0.38143137  1
  H  H122  1  0.12350960  0.78735570  0.38329940  1
  H  H123  1  0.63924233  0.10958450  0.41423234  1
  H  H124  1  0.62640417  0.44425423  0.39298401  1
  H  H125  1  0.62577137  0.77150705  0.40493492  1
  H  H126  1  0.37777914  0.21935667  0.89661730  1
  H  H127  1  0.37933611  0.55134593  0.88575193  1
  H  H128  1  0.36290057  0.89082434  0.90613106  1
  H  H129  1  0.87773643  0.21170807  0.89225327  1
  H  H130  1  0.87535901  0.54650472  0.87679174  1
  H  H131  1  0.86535118  0.88790829  0.88659193  1
  H  H132  1  0.37424680  0.11294020  0.10511217  1
  H  H133  1  0.36488216  0.44506427  0.10890029  1
  H  H134  1  0.36204314  0.77583540  0.10041817  1
  H  H135  1  0.87235893  0.10845383  0.10216605  1
  H  H136  1  0.86899923  0.44394001  0.10244860  1
  H  H137  1  0.86021505  0.77529618  0.09129106  1
  H  H138  1  0.13549960  0.22217555  0.60318579  1
  H  H139  1  0.10692936  0.55209912  0.61230088  1
  H  H140  1  0.13355118  0.89851994  0.58002689  1
  H  H141  1  0.63024151  0.22073215  0.61244175  1
  H  H142  1  0.58445407  0.55093301  0.60362857  1
  H  H143  1  0.62240299  0.87766827  0.63727505  1
  H  H144  1  0.89897527  0.07867214  0.99413310  1
  H  H145  1  0.16978393  0.42298605  0.49498336  1
  H  H146  1  0.95807311  0.57871456  0.50430821  1
  H  H147  1  0.02726251  0.24572149  0.50666700  1
  H  H148  1  0.13191796  0.74431927  -0.01191192  1
  H  H149  1  0.66243170  0.08211981  0.00505804  1
  H  H150  1  0.60902661  0.41539023  -0.01351234  1
  H  H151  1  0.16865807  0.76448466  0.49547372  1
  H  H152  1  0.41207320  0.91941747  0.50299036  1
  H  H153  1  0.69150228  0.28487846  0.96771877  1
  H  H154  1  0.34848919  0.58305542  0.99293810  1
  H  H155  1  0.46357675  0.91426335  -0.00656344  1
  H  H156  1  0.67793103  0.91898311  1.00175878  1
  H  H157  1  0.96825727  0.25060299  -0.01393355  1
  H  H158  1  0.37435154  0.25381572  0.02356762  1
  H  H159  1  0.81406346  0.22473371  0.99731597  1
  H  H160  1  0.32897813  0.43243551  0.50073947  1
  H  H161  1  0.94310133  0.91770991  0.50184639  1
  H  H162  1  0.57194837  0.91538560  0.50863671  1
  H  H163  1  0.76525036  0.92114159  0.49055250  1
  H  H164  1  0.68277666  0.74444698  0.50747145  1
  H  H165  1  0.82351782  0.25827373  0.50011422  1
  H  H166  1  0.97180343  0.75659127  1.01041614  1
  H  H167  1  0.47954864  0.75163568  0.48966051  1
  H  H168  1  0.03942656  0.41778357  0.49138722  1
  H  H169  1  0.03369872  0.75654084  0.48935913  1
  H  H170  1  0.09792961  0.07480489  0.50565718  1
  H  H171  1  0.88245171  0.74209029  0.52111005  1
  H  H172  1  0.11897287  0.58892728  0.48647118  1
  H  H173  1  0.46993709  0.56934383  0.52390577  1
  H  H174  1  0.52582084  0.23871220  -0.01026467  1
  H  H175  1  0.89816062  0.92201240  1.01043182  1
  H  H176  1  0.90503491  0.58074272  0.00369627  1
  H  H177  1  0.44929642  0.40306568  0.48788696  1
  H  H178  1  0.20144882  0.25743850  0.50047512  1
  H  H179  1  0.30876712  0.07758997  0.50969922  1
  H  H180  1  0.28634086  0.92491180  1.00261303  1
  H  H181  1  0.72721598  0.08288909  0.50769559  1
  H  H182  1  0.76793356  0.58700583  0.47170708  1
  H  H183  1  0.58647130  0.74737792  0.99987885  1
  H  H184  1  0.52112198  0.08728664  0.49329748  1
  H  H185  1  0.11757106  0.41591381  -0.01142315  1
  H  H186  1  0.44913353  0.42184286  1.00561288  1
  H  H187  1  0.94583902  0.08920757  0.49170938  1
  H  H188  1  0.71170988  0.58476308  1.00719461  1
  H  H189  1  0.11782547  0.25570650  0.02349854  1
  H  H190  1  0.77768947  0.74804764  -0.00597643  1
  H  H191  1  0.32883122  0.75163941  0.49158677  1
  Pb  Pb192  1  0.24880605  0.04803230  0.76119149  1
  Pb  Pb193  1  0.25654156  0.38525886  0.74169645  1
  Pb  Pb194  1  0.25361908  0.71556460  0.73341915  1
  Pb  Pb195  1  0.75136909  0.04850477  0.73934052  1
  Pb  Pb196  1  0.75561696  0.38260351  0.75850219  1
  Pb  Pb197  1  0.75250599  0.71573094  0.76238618  1
  Pb  Pb198  1  0.24791149  0.28240431  0.26365613  1
  Pb  Pb199  1  0.25301026  0.61890551  0.25050218  1
  Pb  Pb200  1  0.25346762  0.95365051  0.23606349  1
  Pb  Pb201  1  0.74650078  0.28219209  0.23205830  1
  Pb  Pb202  1  0.74897870  0.61937258  0.24025271  1
  Pb  Pb203  1  0.74970863  0.95034035  0.25931146  1
  Pb  Pb204  1  0.00781909  0.21883769  0.74638493  1
  Pb  Pb205  1  -0.00062975  0.54892992  0.74718805  1
  Pb  Pb206  1  -0.00050576  0.88257330  0.73604555  1
  Pb  Pb207  1  0.50264853  0.21509389  0.75285905  1
  Pb  Pb208  1  0.50307789  0.54889157  0.75988806  1
  Pb  Pb209  1  0.49737877  0.88194713  0.75714799  1
  Pb  Pb210  1  -0.00014082  0.11682832  0.24556433  1
  Pb  Pb211  1  -0.00332055  0.45003731  0.25126559  1
  Pb  Pb212  1  -0.00255614  0.78529349  0.24831291  1
  Pb  Pb213  1  0.50023098  0.11886717  0.25981613  1
  Pb  Pb214  1  0.49767188  0.45008234  0.24895969  1
  Pb  Pb215  1  0.49684976  0.78433540  0.25314528  1
  C  C216  1  -0.00726361  0.04805275  0.62390151  1
  C  C217  1  0.00546403  0.37848182  0.62915741  1
  C  C218  1  0.00421474  0.71128104  0.63094220  1
  C  C219  1  0.49975510  0.04590587  0.63243251  1
  C  C220  1  0.49839551  0.37800458  0.63211373  1
  C  C221  1  0.49648996  0.70923014  0.62862531  1
  C  C222  1  -0.00355164  0.28904030  0.12997168  1
  C  C223  1  -0.00333925  0.62171058  0.12450812  1
  C  C224  1  0.01167723  0.95595340  0.12853929  1
  C  C225  1  0.49949646  0.28686611  0.13065051  1
  C  C226  1  0.49237472  0.62348246  0.13331294  1
  C  C227  1  0.50018970  0.95678858  0.13355116  1
  C  C228  1  0.00801586  0.04404964  0.87307009  1
  C  C229  1  0.00269718  0.37946653  0.87091075  1
  C  C230  1  0.01277261  0.71049907  0.87090965  1
  C  C231  1  0.49843021  0.04699205  0.86950597  1
  C  C232  1  0.50035816  0.37981874  0.86666634  1
  C  C233  1  0.50888313  0.71090751  0.86740927  1
  C  C234  1  0.00121794  0.28915561  0.36912409  1
  C  C235  1  0.00901726  0.62049052  0.36506733  1
  C  C236  1  0.00712683  0.95449800  0.36418209  1
  C  C237  1  0.49594221  0.28904807  0.37028412  1
  C  C238  1  0.53299291  0.61651633  0.38902073  1
  C  C239  1  0.50142929  0.95110545  0.37754572  1
  C  C240  1  0.25588465  0.20973623  0.63507522  1
  C  C241  1  0.23226226  0.54457599  0.63505794  1
  C  C242  1  0.24347816  0.88177798  0.62705841  1
  C  C243  1  0.75609751  0.21451542  0.63232565  1
  C  C244  1  0.71211262  0.54692638  0.61097428  1
  C  C245  1  0.75053589  0.87637489  0.62953679  1
  C  C246  1  0.24936802  0.12066798  0.12211335  1
  C  C247  1  0.24178088  0.45737071  0.13399385  1
  C  C248  1  0.24075274  0.78779969  0.12989974  1
  C  C249  1  0.74949481  0.11872263  0.12863023  1
  C  C250  1  0.74827579  0.45476071  0.13496940  1
  C  C251  1  0.74640608  0.79300890  0.13090632  1
  C  C252  1  0.25277330  0.21106384  0.87555545  1
  C  C253  1  0.25273729  0.54362443  0.87369184  1
  C  C254  1  0.24640969  0.87328211  0.87003417  1
  C  C255  1  0.75465559  0.20645791  0.86642340  1
  C  C256  1  0.74722924  0.54290694  0.87085802  1
  C  C257  1  0.73887908  0.88051038  0.87031672  1
  C  C258  1  0.25777078  0.11783586  0.37591305  1
  C  C259  1  0.25411907  0.45821958  0.36388702  1
  C  C260  1  0.24808406  0.79153074  0.36066369  1
  C  C261  1  0.75030267  0.12700363  0.36959169  1
  C  C262  1  0.75046475  0.45458239  0.36842321  1
  C  C263  1  0.74699740  0.78490130  0.37726268  1
  C  C264  1  0.06961630  0.59706317  0.45290312  1
  C  C265  1  0.67077733  0.90399277  0.55240528  1
  C  C266  1  0.31480050  0.90920399  0.54687710  1
  C  C267  1  0.02812978  0.92936119  0.03074468  1
  C  C268  1  0.79809110  0.75584324  0.46722700  1
  C  C269  1  0.65272634  0.57373383  0.52232806  1
  C  C270  1  0.67733329  0.75922662  0.05068334  1
  C  C271  1  0.28930046  0.76484924  0.45398612  1
  C  C272  1  0.01104112  0.74239288  0.53434937  1
  C  C273  1  0.50383115  0.25326973  0.03487373  1
  C  C274  1  0.21231977  0.09031132  0.03041015  1
  C  C275  1  0.73516548  0.57705457  0.51408602  1
  C  C276  1  0.06654192  0.40708021  0.95671426  1
  C  C277  1  0.55919368  0.39427753  0.54327373  1
  C  C278  1  0.05900729  0.92964559  0.45447419  1
  C  C279  1  0.20999100  0.43376428  0.45696518  1
  C  C280  1  0.20758561  0.76986951  0.45551403  1
  C  C281  1  0.47937133  0.40938055  0.96302288  1
  C  C282  1  0.99049727  0.26092447  0.03229193  1
  C  C283  1  0.29183856  0.43689640  0.45955080  1
  C  C284  1  0.49012882  0.92652086  0.03789693  1
  C  C285  1  0.99956037  0.74193303  0.96731275  1
  C  C286  1  0.98846736  0.59228751  0.46189391  1
  C  C287  1  0.56062750  0.40632162  0.95368280  1
  C  C288  1  0.19388751  0.75934568  0.04002297  1
  C  C289  1  0.07999109  0.73598418  0.95545298  1
  C  C290  1  0.94803383  0.07072551  0.96074904  1
  C  C291  1  0.98616195  0.40947744  0.96720661  1
  C  C292  1  0.94777732  0.93095615  0.04198667  1
  C  C293  1  0.18291683  0.91337588  0.95024723  1
  C  C294  1  0.19349441  0.57390940  0.54339709  1
  C  C295  1  0.97787878  0.92834016  0.46063739  1
  C  C296  1  0.93844841  0.41079420  0.54690726  1
  C  C297  1  0.02894523  0.07476286  0.96892445  1
  C  C298  1  0.78400507  0.08751822  0.03459388  1
  C  C299  1  0.58787128  0.58691727  0.47832318  1
  C  C300  1  0.19789801  0.08668205  0.46197064  1
  C  C301  1  0.47906575  0.39606094  0.53218038  1
  C  C302  1  0.02682393  0.58523921  0.03150119  1
  C  C303  1  0.50513855  0.58387547  0.48423920  1
  C  C304  1  0.29309275  0.09092115  0.03198836  1
  C  C305  1  0.22564954  0.57978978  0.96716251  1
  C  C306  1  0.29271840  0.24013860  0.96742231  1
  C  C307  1  0.20038090  0.42790929  0.04300160  1
  C  C308  1  0.53778433  0.25532577  0.45942846  1
  C  C309  1  0.54582128  0.73819765  0.96025897  1
  C  C310  1  0.23314071  0.24403230  0.54239096  1
  C  C311  1  0.78714350  0.24577023  0.53979096  1
  N  N312  1  0.06675623  0.26185331  0.05000189  1
  N  N313  1  0.27659980  0.08548575  0.47001951  1
  N  N314  1  0.79003886  0.90860092  0.95986196  1
  N  N315  1  0.24064548  0.91501032  0.52965139  1
  N  N316  1  0.31195128  0.24300155  0.54841497  1
  N  N317  1  0.70797735  0.24456274  0.54146192  1
  N  N318  1  0.73593487  0.57691656  0.96364661  1
  N  N319  1  0.71176403  0.24383883  0.95377851  1
  N  N320  1  0.51853745  0.58997022  0.03966957  1
  N  N321  1  0.74626755  0.91039412  0.53524407  1
  N  N322  1  0.82308225  0.09850806  0.44954034  1
  N  N323  1  0.57202454  0.73925072  0.55090244  1
  N  N324  1  0.27775173  0.42481786  0.04039791  1
  N  N325  1  0.53343397  0.93233660  0.47305204  1
  N  N326  1  0.48527230  0.07570426  0.96647949  1
  N  N327  1  0.74730520  0.09312066  0.46281249  1
  N  N328  1  0.05049713  0.07630427  0.53874430  1
  N  N329  1  0.21483623  0.24146135  0.96927540  1
  N  N330  1  0.50121836  0.07743847  0.53830545  1
  N  N331  1  0.75463627  0.75601518  0.03813023  1
  N  N332  1  0.27090963  0.57483089  0.54129475  1
  N  N333  1  0.46663683  0.74038222  0.96012559  1
  N  N334  1  0.49668755  0.74426543  0.53568880  1
  N  N335  1  0.94848660  0.58932347  0.03700782  1
  N  N336  1  0.78904139  0.42543012  0.46117392  1
  N  N337  1  0.56035546  0.07377838  0.95520574  1
  N  N338  1  0.93072233  0.25928299  0.44952855  1
  N  N339  1  0.93453612  0.73619110  0.54969604  1
  N  N340  1  0.70501890  0.08969470  0.03882390  1
  N  N341  1  0.77489672  0.42630114  0.03973707  1
  N  N342  1  0.56780334  0.92766990  0.05011534  1
  N  N343  1  0.27124975  0.75725085  0.03482242  1
  N  N344  1  0.00681271  0.25414097  0.46184892  1
  N  N345  1  0.30404284  0.57593866  0.96008841  1
  N  N346  1  0.42756353  0.25911501  0.05144612  1
  N  N347  1  0.69907342  0.42833015  0.04461726  1
  N  N348  1  0.46071711  0.25483899  0.46329856  1
  N  N349  1  0.44228629  0.59226149  0.04493457  1
  N  N350  1  0.81271969  0.57084776  0.95447643  1
  N  N351  1  0.42566087  0.07186562  0.55211032  1
  N  N352  1  0.71300774  0.42526512  0.46130467  1
  N  N353  1  0.79396086  0.24142545  0.95572037  1
  N  N354  1  0.01578048  0.41141756  0.53499547  1
  N  N355  1  0.71186670  0.91140806  0.96242393  1
  N  N356  1  0.71901233  0.75299155  0.47000639  1
  N  N357  1  0.45615672  0.92028749  0.46631652  1
  N  N358  1  0.97384950  0.06483512  0.52589839  1
  N  N359  1  0.26071619  0.91459741  0.96026159  1
  N  N360  1  0.06285106  0.05641120  0.59658191  1
  N  N361  1  0.05828571  0.38911424  0.58471983  1
  N  N362  1  0.05486771  0.72725361  0.58483067  1
  N  N363  1  0.54774010  0.05915614  0.58564248  1
  N  N364  1  0.57037479  0.38368874  0.60353462  1
  N  N365  1  0.57096508  0.71998834  0.60950517  1
  N  N366  1  0.42544964  0.28137066  0.10968228  1
  N  N367  1  0.42478503  0.61311718  0.10275238  1
  N  N368  1  0.44740301  0.94417085  0.08843270  1
  N  N369  1  0.94629841  0.27704986  0.08216674  1
  N  N370  1  0.92899445  0.61268853  0.09399453  1
  N  N371  1  0.93920010  0.94756551  0.10365961  1
  N  N372  1  0.44560260  0.05880550  0.91378471  1
  N  N373  1  0.44327402  0.39275650  0.90855954  1
  N  N374  1  0.44536353  0.72317937  0.90214372  1
  N  N375  1  0.93668293  0.05198974  0.89987687  1
  N  N376  1  0.94767853  0.39267792  0.91570223  1
  N  N377  1  0.95897946  0.72581267  0.91436004  1
  N  N378  1  0.05124994  0.27472108  0.41439317  1
  N  N379  1  0.08068318  0.61448544  0.39261125  1
  N  N380  1  0.07626177  0.94502031  0.39622561  1
  N  N381  1  0.56242291  0.27574233  0.40346156  1
  N  N382  1  0.60248905  0.60741076  0.41824917  1
  N  N383  1  0.56250432  0.94336318  0.41605727  1
  N  N384  1  0.32424437  0.22180835  0.60615765  1
  N  N385  1  0.29485348  0.55635016  0.59975357  1
  N  N386  1  0.31890780  0.88955998  0.60653260  1
  N  N387  1  0.81833091  0.22745307  0.59524366  1
  N  N388  1  0.76971555  0.56059062  0.56954917  1
  N  N389  1  0.79622470  0.89126074  0.58205683  1
  N  N390  1  0.18540836  0.10812278  0.08555678  1
  N  N391  1  0.17567217  0.44667045  0.09979557  1
  N  N392  1  0.17248338  0.77788877  0.09802883  1
  N  N393  1  0.68318966  0.10964557  0.09657365  1
  N  N394  1  0.68086034  0.44604727  0.10347060  1
  N  N395  1  0.67213235  0.78047294  0.10871586  1
  N  N396  1  0.19004080  0.22241673  0.91081989  1
  N  N397  1  0.19367134  0.56024327  0.91353945  1
  N  N398  1  0.17395096  0.88873430  0.89391904  1
  N  N399  1  0.69137181  0.22841328  0.89516146  1
  N  N400  1  0.69465905  0.55691364  0.91432150  1
  N  N401  1  0.67940295  0.89242567  0.90899201  1
  N  N402  1  0.31392430  0.10606536  0.41720544  1
  N  N403  1  0.31800390  0.45148659  0.40131063  1
  N  N404  1  0.31304579  0.77842024  0.39478821  1
  N  N405  1  0.82402982  0.11712151  0.39072114  1
  N  N406  1  0.81396277  0.44395223  0.40374935  1
  N  N407  1  0.81561515  0.77502083  0.40952945  1
  N  N408  1  0.43416389  0.27634456  0.40633247  1
  N  N409  1  0.47341723  0.60252266  0.42857394  1
  N  N410  1  0.43550819  0.93907937  0.40943181  1
  N  N411  1  0.92785844  0.27890199  0.39095879  1
  N  N412  1  0.95212126  0.60694083  0.40687145  1
  N  N413  1  0.94649376  0.94397485  0.40321848  1
  N  N414  1  0.06485797  0.05894788  0.91587498  1
  N  N415  1  0.07505568  0.38851641  0.89558227  1
  N  N416  1  0.08633974  0.71674840  0.89521217  1
  N  N417  1  0.56978129  0.05645845  0.89484012  1
  N  N418  1  0.57198497  0.38825176  0.89366119  1
  N  N419  1  0.57324281  0.72098065  0.90318763  1
  N  N420  1  0.07014913  0.28060919  0.10947544  1
  N  N421  1  0.05689820  0.60519208  0.08574461  1
  N  N422  1  0.06643763  0.94427272  0.08320143  1
  N  N423  1  0.54903611  0.27016685  0.08405060  1
  N  N424  1  0.55075620  0.60899782  0.09440534  1
  N  N425  1  0.57220409  0.94637865  0.11011881  1
  N  N426  1  0.42552575  0.05413760  0.61130604  1
  N  N427  1  0.44176909  0.38589082  0.58892029  1
  N  N428  1  0.44940558  0.72300336  0.58135094  1
  N  N429  1  0.93679455  0.05846936  0.58146912  1
  N  N430  1  0.93205539  0.39099542  0.60533397  1
  N  N431  1  0.93067521  0.71574872  0.60857054  1
  N  N432  1  0.18652259  0.10577196  0.40338425  1
  N  N433  1  0.18788438  0.44691039  0.39725485  1
  N  N434  1  0.18326499  0.78593287  0.39717501  1
  N  N435  1  0.70155808  0.11285755  0.41569607  1
  N  N436  1  0.68735815  0.44349715  0.40409382  1
  N  N437  1  0.68707500  0.77231414  0.41487348  1
  N  N438  1  0.31805814  0.22245537  0.91020746  1
  N  N439  1  0.32139215  0.55234528  0.90295196  1
  N  N440  1  0.30092850  0.88789936  0.91203838  1
  N  N441  1  0.81690779  0.21127578  0.90440228  1
  N  N442  1  0.81909486  0.55207405  0.89589453  1
  N  N443  1  0.80612731  0.89095508  0.90191005  1
  N  N444  1  0.31585889  0.10898246  0.08810577  1
  N  N445  1  0.30366596  0.44356789  0.09858985  1
  N  N446  1  0.30021939  0.77524139  0.09168985  1
  N  N447  1  0.81174525  0.10509891  0.09033434  1
  N  N448  1  0.80697298  0.44261669  0.09544519  1
  N  N449  1  0.79809959  0.77992115  0.08651336  1
  N  N450  1  0.19717015  0.22405409  0.59518243  1
  N  N451  1  0.16693894  0.55588692  0.60002659  1
  N  N452  1  0.19577826  0.89731371  0.58092313  1
  N  N453  1  0.69049058  0.22524778  0.59940321  1
  N  N454  1  0.64119991  0.55488191  0.58340835  1
  N  N455  1  0.67355553  0.88438853  0.61132918  1
  Cl  Cl456  1  0.24219790  0.05990693  0.62642060  1
  Cl  Cl457  1  0.24607714  0.39487322  0.60552689  1
  Cl  Cl458  1  0.25186828  0.72808568  0.59801972  1
  Cl  Cl459  1  0.73586767  0.05767055  0.59651772  1
  Cl  Cl460  1  0.75082589  0.39017744  0.63108179  1
  Cl  Cl461  1  0.75196381  0.72304630  0.62803653  1
  Cl  Cl462  1  0.24793351  0.27066900  0.13238988  1
  Cl  Cl463  1  0.24135338  0.60715380  0.11337164  1
  Cl  Cl464  1  0.25893579  0.94331163  0.09710837  1
  Cl  Cl465  1  0.75212325  0.26873976  0.09481478  1
  Cl  Cl466  1  0.73737219  0.61092039  0.10217682  1
  Cl  Cl467  1  0.75348597  0.94452216  0.12766517  1
  Cl  Cl468  1  0.25542061  0.05814601  0.89793495  1
  Cl  Cl469  1  0.26200925  0.38552672  0.87231684  1
  Cl  Cl470  1  0.26513563  0.71679256  0.86489378  1
  Cl  Cl471  1  0.75127710  0.05307589  0.87179562  1
  Cl  Cl472  1  0.76230883  0.37942790  0.89186665  1
  Cl  Cl473  1  0.76879510  0.72669873  0.90090015  1
  Cl  Cl474  1  0.23684507  0.27264328  0.39869712  1
  Cl  Cl475  1  0.27378656  0.61054507  0.37557463  1
  Cl  Cl476  1  0.25806254  0.94773776  0.36735985  1
  Cl  Cl477  1  0.74472288  0.28076728  0.36503979  1
  Cl  Cl478  1  0.77476649  0.62019501  0.37325712  1
  Cl  Cl479  1  0.75222810  0.94422074  0.39944333  1
  Cl  Cl480  1  0.01159307  0.22501021  0.60207482  1
  Cl  Cl481  1  -0.02511543  0.55289499  0.61262899  1
  Cl  Cl482  1  -0.01110317  0.89411558  0.59984155  1
  Cl  Cl483  1  0.50802841  0.21411688  0.62368669  1
  Cl  Cl484  1  0.47136528  0.54893620  0.62639213  1
  Cl  Cl485  1  0.49699555  0.88577982  0.62192708  1
  Cl  Cl486  1  -0.00328130  0.11455807  0.11334949  1
  Cl  Cl487  1  -0.00849304  0.44728993  0.11785721  1
  Cl  Cl488  1  -0.01710318  0.77529270  0.11408560  1
  Cl  Cl489  1  0.50043317  0.11458734  0.12848246  1
  Cl  Cl490  1  0.49231812  0.44109803  0.11535558  1
  Cl  Cl491  1  0.48731534  0.77819779  0.12243738  1
  Cl  Cl492  1  0.00078309  0.22352829  0.88391203  1
  Cl  Cl493  1  0.00655801  0.55666441  0.88231166  1
  Cl  Cl494  1  -0.01007970  0.88862099  0.86781510  1
  Cl  Cl495  1  0.50575219  0.22313629  0.88937805  1
  Cl  Cl496  1  0.51017451  0.56015708  0.88941536  1
  Cl  Cl497  1  0.49033851  0.89400816  0.89274011  1
  Cl  Cl498  1  0.00659686  0.11081430  0.38232167  1
  Cl  Cl499  1  0.00212059  0.43643765  0.39043440  1
  Cl  Cl500  1  -0.00198717  0.77916357  0.38319855  1
  Cl  Cl501  1  0.51514019  0.10573810  0.40247335  1
  Cl  Cl502  1  0.50248346  0.44321846  0.38284857  1
  Cl  Cl503  1  0.49970708  0.77064795  0.39709645  1
  Cl  Cl504  1  0.36282419  0.14811511  0.75036304  1
  Cl  Cl505  1  0.35586003  0.48869915  0.75409318  1
  Cl  Cl506  1  0.35707643  0.82080902  0.74473993  1
  Cl  Cl507  1  0.86007043  0.14911555  0.74655481  1
  Cl  Cl508  1  0.86107533  0.48548821  0.75899366  1
  Cl  Cl509  1  0.85715286  0.81933799  0.75050935  1
  Cl  Cl510  1  0.13688333  0.18247675  0.25302880  1
  Cl  Cl511  1  0.13471622  0.52202165  0.26056758  1
  Cl  Cl512  1  0.13476397  0.85613080  0.24431083  1
  Cl  Cl513  1  0.64496077  0.18257569  0.24255485  1
  Cl  Cl514  1  0.63504449  0.52001474  0.24701743  1
  Cl  Cl515  1  0.63362792  0.85261884  0.24948663  1
  Cl  Cl516  1  0.14289579  0.15254456  0.75738713  1
  Cl  Cl517  1  0.13677172  0.48042392  0.75691362  1
  Cl  Cl518  1  0.13717736  0.81380337  0.74926960  1
  Cl  Cl519  1  0.63912091  0.14758905  0.75433333  1
  Cl  Cl520  1  0.63820464  0.47945549  0.74885674  1
  Cl  Cl521  1  0.63493786  0.81225027  0.75101905  1
  Cl  Cl522  1  0.35798000  0.18048487  0.25421517  1
  Cl  Cl523  1  0.35933682  0.51544012  0.23982438  1
  Cl  Cl524  1  0.35659778  0.84820701  0.24513497  1
  Cl  Cl525  1  0.86518906  0.18625083  0.25203286  1
  Cl  Cl526  1  0.85669567  0.51579269  0.25052692  1
  Cl  Cl527  1  0.85275691  0.84468136  0.26211777  1
  Cl  Cl528  1  0.10898329  0.31541084  0.75201517  1
  Cl  Cl529  1  0.11461277  0.64836321  0.74656600  1
  Cl  Cl530  1  0.10794264  0.98566665  0.74421717  1
  Cl  Cl531  1  0.61851983  0.31343878  0.75796953  1
  Cl  Cl532  1  0.62133480  0.64395271  0.74156770  1
  Cl  Cl533  1  0.61471533  0.97905230  0.74822842  1
  Cl  Cl534  1  0.39855806  0.01336886  0.25819223  1
  Cl  Cl535  1  0.38650010  0.34838345  0.25195460  1
  Cl  Cl536  1  0.39459689  0.68123704  0.25802581  1
  Cl  Cl537  1  0.88780321  0.01612367  0.24551989  1
  Cl  Cl538  1  0.89440336  0.35014853  0.25183781  1
  Cl  Cl539  1  0.89538664  0.67867415  0.24226373  1
  Cl  Cl540  1  0.39426885  0.31762608  0.74700141  1
  Cl  Cl541  1  0.40006223  0.65435522  0.75090705  1
  Cl  Cl542  1  0.39051141  0.98467754  0.74724705  1
  Cl  Cl543  1  0.89184831  0.31674314  0.74356797  1
  Cl  Cl544  1  0.89149220  0.65256988  0.75121612  1
  Cl  Cl545  1  0.88999792  0.98517102  0.74456460  1
  Cl  Cl546  1  0.11262142  0.01733341  0.25058529  1
  Cl  Cl547  1  0.11495822  0.35348226  0.24624205  1
  Cl  Cl548  1  0.11515954  0.68853464  0.24888150  1
  Cl  Cl549  1  0.61536030  0.01918957  0.25621285  1
  Cl  Cl550  1  0.60921869  0.34919806  0.24395245  1
  Cl  Cl551  1  0.61205340  0.68550575  0.25686230  1
