# generated using pymatgen
data_H8PbC4(N3Cl2)2
_symmetry_space_group_name_H-M   'P 1'
_cell_length_a   16.62482915
_cell_length_b   22.50701627
_cell_length_c   21.59117281
_cell_angle_alpha   90.00045582
_cell_angle_beta   89.99893787
_cell_angle_gamma   89.99820861
_symmetry_Int_Tables_number   1
_chemical_formula_structural   H8PbC4(N3Cl2)2
_chemical_formula_sum   'H192 Pb24 C96 N144 Cl96'
_cell_volume   8078.88356420
_cell_formula_units_Z   24
loop_
 _symmetry_equiv_pos_site_id
 _symmetry_equiv_pos_as_xyz
  1  'x, y, z'
loop_
 _atom_site_type_symbol
 _atom_site_label
 _atom_site_symmetry_multiplicity
 _atom_site_fract_x
 _atom_site_fract_y
 _atom_site_fract_z
 _atom_site_occupancy
  H  H0  1  0.00876948  0.03645127  0.67720151  1
  H  H1  1  -0.00601649  0.36277227  0.67594960  1
  H  H2  1  0.00867916  0.69609928  0.68103104  1
  H  H3  1  0.49075065  0.03207010  0.68208137  1
  H  H4  1  0.49833197  0.36695467  0.67803918  1
  H  H5  1  0.50228844  0.69650554  0.67829185  1
  H  H6  1  0.01420892  0.30392952  0.17868595  1
  H  H7  1  -0.00367270  0.63695292  0.17902135  1
  H  H8  1  -0.00229146  0.96865389  0.18012395  1
  H  H9  1  0.48766189  0.30028337  0.17770089  1
  H  H10  1  0.49119302  0.63287005  0.17766814  1
  H  H11  1  0.49302124  0.96956487  0.17417106  1
  H  H12  1  0.00022269  0.03069687  0.81933521  1
  H  H13  1  -0.01304585  0.36622662  0.82157628  1
  H  H14  1  0.01160289  0.69790943  0.82114414  1
  H  H15  1  0.50248594  0.03135634  0.82471874  1
  H  H16  1  0.51232840  0.36459357  0.82284041  1
  H  H17  1  0.48667472  0.69997625  0.81938794  1
  H  H18  1  -0.00172261  0.30064803  0.32139949  1
  H  H19  1  -0.00387205  0.63390496  0.31907369  1
  H  H20  1  0.00745917  0.96940084  0.31904015  1
  H  H21  1  0.49633202  0.30223076  0.31787139  1
  H  H22  1  0.50239139  0.63836630  0.32193878  1
  H  H23  1  0.49787585  0.96905786  0.31770629  1
  H  H24  1  0.25693541  0.19968705  0.68044629  1
  H  H25  1  0.24265842  0.53025753  0.67659254  1
  H  H26  1  0.24201416  0.86336354  0.68110122  1
  H  H27  1  0.74408055  0.19693761  0.68164480  1
  H  H28  1  0.75872885  0.53010620  0.68223038  1
  H  H29  1  0.74755883  0.86264864  0.68061453  1
  H  H30  1  0.24848043  0.13443661  0.17952851  1
  H  H31  1  0.24886992  0.46763878  0.17473883  1
  H  H32  1  0.25106928  0.80572634  0.18075613  1
  H  H33  1  0.75444773  0.13653412  0.17880750  1
  H  H34  1  0.74947039  0.47886142  0.17537495  1
  H  H35  1  0.75571024  0.80303461  0.17816872  1
  H  H36  1  0.24585660  0.19285927  0.82004042  1
  H  H37  1  0.25036759  0.52859823  0.82217256  1
  H  H38  1  0.25849610  0.86832824  0.82354124  1
  H  H39  1  0.75767876  0.19791416  0.82390649  1
  H  H40  1  0.74615197  0.53131158  0.82009546  1
  H  H41  1  0.75663166  0.86356226  0.82319515  1
  H  H42  1  0.24256927  0.13786724  0.31957760  1
  H  H43  1  0.24541105  0.47057865  0.32019984  1
  H  H44  1  0.24370231  0.80073136  0.31990146  1
  H  H45  1  0.74927496  0.13509582  0.32093613  1
  H  H46  1  0.75693311  0.46825416  0.32428738  1
  H  H47  1  0.74927174  0.80194161  0.32023454  1
  H  H48  1  0.11036125  0.05956395  0.58882808  1
  H  H49  1  0.13532405  0.38322274  0.62515697  1
  H  H50  1  0.11922921  0.72169172  0.59894175  1
  H  H51  1  0.62194731  0.05073030  0.61862233  1
  H  H52  1  0.63498868  0.38430910  0.62126852  1
  H  H53  1  0.61695866  0.72382168  0.59919066  1
  H  H54  1  0.38707716  0.27572164  0.09140501  1
  H  H55  1  0.37602676  0.60927705  0.09942914  1
  H  H56  1  0.38288029  0.94390207  0.09372565  1
  H  H57  1  0.87678159  0.28066408  0.12454338  1
  H  H58  1  0.87365232  0.61099181  0.10681910  1
  H  H59  1  0.88166907  0.94442597  0.10134763  1
  H  H60  1  0.37617100  0.05029851  0.89136141  1
  H  H61  1  0.37356592  0.38452826  0.87796958  1
  H  H62  1  0.38411012  0.72415862  0.90479893  1
  H  H63  1  0.88332677  0.05347095  0.89471243  1
  H  H64  1  0.87965910  0.39350877  0.90640408  1
  H  H65  1  0.87397808  0.71712739  0.87837290  1
  H  H66  1  0.13096390  0.28170333  0.38265683  1
  H  H67  1  0.12893849  0.61368283  0.38098079  1
  H  H68  1  0.11892314  0.94129799  0.39971492  1
  H  H69  1  0.62911087  0.28127564  0.38281288  1
  H  H70  1  0.62012850  0.61248946  0.39833738  1
  H  H71  1  0.62132071  0.94561523  0.39093118  1
  H  H72  1  0.36647530  0.22267615  0.59915804  1
  H  H73  1  0.37829481  0.55163050  0.61919360  1
  H  H74  1  0.37888852  0.88420506  0.62476217  1
  H  H75  1  0.87329339  0.21893430  0.61579348  1
  H  H76  1  0.87280393  0.55431132  0.60447923  1
  H  H77  1  0.87389765  0.88693720  0.61172124  1
  H  H78  1  0.12351076  0.11152734  0.10728401  1
  H  H79  1  0.12646453  0.44391893  0.10553058  1
  H  H80  1  0.12672880  0.77870039  0.10985762  1
  H  H81  1  0.62059762  0.11441798  0.11638756  1
  H  H82  1  0.62544544  0.44619636  0.10818592  1
  H  H83  1  0.62326796  0.78295768  0.11567189  1
  H  H84  1  0.12500920  0.22131226  0.89346256  1
  H  H85  1  0.12388340  0.55312995  0.89204811  1
  H  H86  1  0.11985785  0.88512551  0.87736835  1
  H  H87  1  0.62110047  0.21707753  0.88310692  1
  H  H88  1  0.62360077  0.55555911  0.89143420  1
  H  H89  1  0.61902692  0.88447911  0.87914346  1
  H  H90  1  0.37968663  0.11551582  0.37727272  1
  H  H91  1  0.36383921  0.44481445  0.39573834  1
  H  H92  1  0.38001022  0.78358249  0.37687514  1
  H  H93  1  0.88327407  0.11667480  0.38177060  1
  H  H94  1  0.86011856  0.43722873  0.40866413  1
  H  H95  1  0.87533147  0.77948955  0.38684395  1
  H  H96  1  0.38054560  0.27890022  0.39510694  1
  H  H97  1  0.37228545  0.61288585  0.38675788  1
  H  H98  1  0.37299018  0.94554736  0.39101434  1
  H  H99  1  0.88288721  0.27730959  0.39709771  1
  H  H100  1  0.88037763  0.61327992  0.39557034  1
  H  H101  1  0.87164830  0.94805514  0.37640065  1
  H  H102  1  0.13245087  0.05016484  0.88199941  1
  H  H103  1  0.12521989  0.38519394  0.87872363  1
  H  H104  1  0.11990274  0.72518785  0.90540262  1
  H  H105  1  0.62474434  0.05515569  0.89457982  1
  H  H106  1  0.61973723  0.39411357  0.90586149  1
  H  H107  1  0.62894361  0.71498651  0.87052963  1
  H  H108  1  0.12294359  0.27745517  0.09540642  1
  H  H109  1  0.12196779  0.61131253  0.11006595  1
  H  H110  1  0.12989949  0.94816418  0.11684607  1
  H  H111  1  0.63073453  0.28382989  0.12997562  1
  H  H112  1  0.62393147  0.61517280  0.11752653  1
  H  H113  1  0.62965714  0.95004788  0.11618099  1
  H  H114  1  0.37368836  0.05428988  0.60695412  1
  H  H115  1  0.38793819  0.39093441  0.59820358  1
  H  H116  1  0.36903565  0.71961836  0.61731668  1
  H  H117  1  0.86653830  0.05140978  0.62465800  1
  H  H118  1  0.89073025  0.39235582  0.59094951  1
  H  H119  1  0.87343599  0.71854222  0.62142744  1
  H  H120  1  0.13385178  0.11139029  0.40348578  1
  H  H121  1  0.11616442  0.44556643  0.38743144  1
  H  H122  1  0.13238129  0.77417494  0.39848407  1
  H  H123  1  0.63490939  0.11159438  0.39801925  1
  H  H124  1  0.61590884  0.45214653  0.37867087  1
  H  H125  1  0.62634162  0.77951548  0.39133482  1
  H  H126  1  0.37420730  0.21743491  0.88484951  1
  H  H127  1  0.37230844  0.55260118  0.89547292  1
  H  H128  1  0.36564321  0.89154445  0.90572703  1
  H  H129  1  0.86676223  0.22602430  0.90714495  1
  H  H130  1  0.87240101  0.55449386  0.88958427  1
  H  H131  1  0.86528499  0.89245460  0.90534392  1
  H  H132  1  0.37230609  0.11092669  0.10669323  1
  H  H133  1  0.37473449  0.44735502  0.10767607  1
  H  H134  1  0.37656464  0.78203190  0.11211498  1
  H  H135  1  0.86787093  0.11036729  0.09860167  1
  H  H136  1  0.87390048  0.44412037  0.11046482  1
  H  H137  1  0.87081798  0.77542224  0.09966760  1
  H  H138  1  0.11957009  0.21747250  0.62535296  1
  H  H139  1  0.13186666  0.55829921  0.59537969  1
  H  H140  1  0.13162582  0.89155420  0.59944433  1
  H  H141  1  0.62431933  0.22114216  0.60466994  1
  H  H142  1  0.62452727  0.55112945  0.62385777  1
  H  H143  1  0.62604487  0.88699912  0.60649494  1
  H  H144  1  0.60440860  0.92112944  0.00641538  1
  H  H145  1  0.09864415  0.91970497  0.00446669  1
  H  H146  1  0.46470833  0.24557874  -0.01132421  1
  H  H147  1  0.13635132  0.24734082  0.51055446  1
  H  H148  1  0.15569252  0.41912134  0.49439997  1
  H  H149  1  0.05135318  0.92102723  0.50264207  1
  H  H150  1  0.17923992  0.76522808  0.00164359  1
  H  H151  1  0.04330720  0.74677539  1.00590990  1
  H  H152  1  0.78113910  0.42097882  0.50946960  1
  H  H153  1  0.35899031  0.75308891  0.49024789  1
  H  H154  1  0.79887019  0.08364018  -0.00315405  1
  H  H155  1  0.45930448  0.74974400  1.00965474  1
  H  H156  1  0.96796520  0.41557988  0.49096693  1
  H  H157  1  0.41061719  0.58557386  0.49348689  1
  H  H158  1  0.83219826  0.24785828  0.50515622  1
  H  H159  1  0.92744243  0.58765486  0.00202376  1
  H  H160  1  0.19676138  0.74510809  0.50570463  1
  H  H161  1  0.54519666  0.41798396  1.00665802  1
  H  H162  1  0.95640653  0.41521683  1.00669812  1
  H  H163  1  0.59668402  0.58721888  0.00274351  1
  H  H164  1  0.89742259  0.91681927  0.48859082  1
  H  H165  1  0.33369887  0.24895899  0.99621885  1
  H  H166  1  0.87939965  0.07912365  0.51220168  1
  H  H167  1  0.17393734  0.57681401  0.99801850  1
  H  H168  1  0.04873443  0.25202481  -0.00529197  1
  H  H169  1  0.65390896  0.74910481  0.00513890  1
  H  H170  1  0.81582255  0.42678453  0.00334591  1
  H  H171  1  0.04714778  0.74288355  0.49670118  1
  H  H172  1  0.18162206  0.24056591  0.99952176  1
  H  H173  1  0.62984285  0.41702674  0.48989641  1
  H  H174  1  0.83419994  0.75003429  0.49901814  1
  H  H175  1  0.45292886  0.41804536  0.49083270  1
  H  H176  1  0.65076078  0.58199390  0.51137920  1
  H  H177  1  0.69293628  0.08223856  0.50574400  1
  H  H178  1  0.02910645  0.09510965  0.49576451  1
  H  H179  1  0.33124492  0.75568108  0.00067895  1
  H  H180  1  0.42771156  0.08173210  0.49745773  1
  H  H181  1  0.81152504  0.58397560  0.49650006  1
  H  H182  1  0.20808936  0.08472390  0.50332517  1
  H  H183  1  0.64573165  0.24749303  0.99362977  1
  H  H184  1  0.93897641  0.58769865  0.50631241  1
  H  H185  1  0.68240961  0.91477996  0.50272843  1
  H  H186  1  0.68588425  0.42784461  0.00228365  1
  H  H187  1  0.20064692  0.91162664  0.49706102  1
  H  H188  1  0.35488666  0.91494443  0.51223782  1
  H  H189  1  0.44329123  0.25173036  0.50307385  1
  H  H190  1  0.94047928  0.08088981  1.00504534  1
  H  H191  1  0.29969971  0.24987504  0.49249329  1
  Pb  Pb192  1  0.24946901  0.04571203  0.73799851  1
  Pb  Pb193  1  0.25196577  0.37790980  0.74431072  1
  Pb  Pb194  1  0.24756812  0.71970009  0.75671855  1
  Pb  Pb195  1  0.74564187  0.04753187  0.75979676  1
  Pb  Pb196  1  0.75272490  0.38431570  0.75235117  1
  Pb  Pb197  1  0.74868963  0.71116838  0.74411901  1
  Pb  Pb198  1  0.25560958  0.28582327  0.24055373  1
  Pb  Pb199  1  0.25116733  0.61930891  0.24324082  1
  Pb  Pb200  1  0.25619606  0.95136586  0.25444826  1
  Pb  Pb201  1  0.75399784  0.28526211  0.25604347  1
  Pb  Pb202  1  0.75173330  0.62056262  0.25507267  1
  Pb  Pb203  1  0.75042335  0.95429703  0.25221753  1
  Pb  Pb204  1  -0.00113691  0.21293605  0.76052616  1
  Pb  Pb205  1  0.00498968  0.54805181  0.74792907  1
  Pb  Pb206  1  -0.00689178  0.88294321  0.74603202  1
  Pb  Pb207  1  0.49868032  0.21324036  0.74357924  1
  Pb  Pb208  1  0.49472376  0.54795940  0.75404754  1
  Pb  Pb209  1  0.50142938  0.87968871  0.75502519  1
  Pb  Pb210  1  0.00636873  0.11789517  0.24997888  1
  Pb  Pb211  1  0.00007572  0.45218526  0.25139311  1
  Pb  Pb212  1  0.00169343  0.78674880  0.25119379  1
  Pb  Pb213  1  0.50330319  0.12117534  0.25123318  1
  Pb  Pb214  1  0.50092290  0.45395302  0.24528409  1
  Pb  Pb215  1  0.50491487  0.78522269  0.24797544  1
  C  C216  1  -0.00522237  0.04922756  0.62965501  1
  C  C217  1  0.00655082  0.37793642  0.62914491  1
  C  C218  1  0.00075020  0.71110874  0.63365501  1
  C  C219  1  0.49511921  0.04590715  0.63420953  1
  C  C220  1  0.50721931  0.38025405  0.63016811  1
  C  C221  1  0.49636810  0.71274554  0.63137010  1
  C  C222  1  0.00487989  0.28849479  0.13177795  1
  C  C223  1  -0.00292776  0.62038913  0.13190291  1
  C  C224  1  0.00297603  0.95384318  0.13257591  1
  C  C225  1  0.50189684  0.28656835  0.13068942  1
  C  C226  1  0.49777369  0.61904615  0.12986450  1
  C  C227  1  0.50234555  0.95478664  0.12692616  1
  C  C228  1  0.00501173  0.04499856  0.86709340  1
  C  C229  1  -0.00329205  0.38078809  0.86892155  1
  C  C230  1  0.00239109  0.71256517  0.86844025  1
  C  C231  1  0.50116785  0.04589691  0.87256318  1
  C  C232  1  0.50227098  0.37980400  0.86977927  1
  C  C233  1  0.49967520  0.71310128  0.86670325  1
  C  C234  1  0.00429399  0.28638541  0.36901488  1
  C  C235  1  0.00154920  0.62012370  0.36694013  1
  C  C236  1  -0.00050017  0.95416741  0.36646317  1
  C  C237  1  0.50236539  0.28765655  0.36550611  1
  C  C238  1  0.49782851  0.62171685  0.36896350  1
  C  C239  1  0.49714445  0.95454181  0.36567568  1
  C  C240  1  0.24722032  0.21377494  0.63286497  1
  C  C241  1  0.25082367  0.54627369  0.62978699  1
  C  C242  1  0.25061885  0.87872587  0.63372487  1
  C  C243  1  0.74695916  0.21256374  0.63418409  1
  C  C244  1  0.75164690  0.54519860  0.63474778  1
  C  C245  1  0.74892396  0.87834427  0.63311641  1
  C  C246  1  0.24781375  0.11933088  0.13183174  1
  C  C247  1  0.25002117  0.45282215  0.12709056  1
  C  C248  1  0.25075331  0.78964247  0.13325899  1
  C  C249  1  0.74804399  0.12108401  0.13150715  1
  C  C250  1  0.74961403  0.45839923  0.12974872  1
  C  C251  1  0.75003279  0.78735899  0.13098471  1
  C  C252  1  0.24768396  0.20944597  0.86729430  1
  C  C253  1  0.24838663  0.54444416  0.86953611  1
  C  C254  1  0.24760114  0.88143995  0.87097398  1
  C  C255  1  0.74824865  0.21354337  0.87095418  1
  C  C256  1  0.74769384  0.54693713  0.86735940  1
  C  C257  1  0.74707213  0.87998014  0.86968786  1
  C  C258  1  0.25174342  0.12195322  0.36645303  1
  C  C259  1  0.24113182  0.45457514  0.36749050  1
  C  C260  1  0.25254228  0.78613526  0.36739100  1
  C  C261  1  0.75560298  0.12058459  0.36864299  1
  C  C262  1  0.74400815  0.45323182  0.37126994  1
  C  C263  1  0.75089181  0.78703893  0.36786397  1
  C  C264  1  0.05623481  0.26115265  0.45930078  1
  C  C265  1  0.05656421  0.06991396  0.95750459  1
  C  C266  1  0.94274871  0.92635565  0.45374320  1
  C  C267  1  0.29411141  0.23896651  0.95754614  1
  C  C268  1  0.72925202  0.09293221  0.46504980  1
  C  C269  1  0.46433499  0.07138756  0.53768404  1
  C  C270  1  0.48721694  0.73846975  0.96569459  1
  C  C271  1  0.30871072  0.90559981  0.54663390  1
  C  C272  1  0.44683488  0.74078021  0.54230054  1
  C  C273  1  0.69702592  0.57181279  0.54549256  1
  C  C274  1  0.47614720  0.26175469  0.46067178  1
  C  C275  1  0.54998077  0.59551752  0.03820215  1
  C  C276  1  0.69146250  0.90797201  0.95661779  1
  C  C277  1  0.97544263  0.07097132  0.96369408  1
  C  C278  1  0.94385782  0.25771725  0.04601311  1
  C  C279  1  0.18693190  0.90534985  0.95795434  1
  C  C280  1  0.26870606  0.23943215  0.53547168  1
  C  C281  1  0.97557298  0.25929228  0.46389608  1
  C  C282  1  0.53889009  0.07334714  0.96491633  1
  C  C283  1  0.29284951  0.42673540  0.03539842  1
  C  C284  1  0.48551879  0.40615864  0.53280299  1
  C  C285  1  0.30482460  0.57436480  0.54187358  1
  C  C286  1  0.56690633  0.40301653  0.54107464  1
  C  C287  1  0.70146343  0.75968481  0.04143280  1
  C  C288  1  0.56680028  0.73489818  0.95214099  1
  C  C289  1  0.47810910  0.92686318  0.02997420  1
  C  C290  1  0.26636732  0.90739567  0.96738046  1
  C  C291  1  0.29324192  0.76315000  0.04088098  1
  C  C292  1  0.07194263  0.40547689  0.54457721  1
  C  C293  1  0.18732120  0.23805944  0.54468918  1
  C  C294  1  0.77867904  0.57284639  0.53848004  1
  C  C295  1  0.49156782  0.25874019  0.03255764  1
  C  C296  1  0.21197473  0.42551286  0.03466701  1
  C  C297  1  0.45827464  0.07153201  0.96409937  1
  C  C298  1  0.22863737  0.75799635  0.46380930  1
  C  C299  1  0.57113833  0.26218103  0.04668768  1
  C  C300  1  0.71152770  0.76031400  0.46141992  1
  C  C301  1  0.79029479  0.23828154  0.54278173  1
  C  C302  1  0.44013381  0.40859153  0.95604099  1
  C  C303  1  0.79310940  0.76038640  0.46142606  1
  C  C304  1  0.05082127  0.92946049  0.04176607  1
  C  C305  1  0.71126802  0.57537709  0.96048840  1
  C  C306  1  0.05413939  0.59637027  0.45745236  1
  C  C307  1  0.54563914  0.06990496  0.54305086  1
  C  C308  1  0.31022916  0.76149200  0.45625783  1
  C  C309  1  0.81081526  0.09447007  0.45830780  1
  C  C310  1  0.97306109  0.59619016  0.46425642  1
  C  C311  1  0.46857751  0.59355956  0.03374056  1
  N  N312  1  0.78928786  0.57467032  0.96131638  1
  N  N313  1  0.53207564  0.59306034  0.46299127  1
  N  N314  1  0.94132291  0.73805558  0.95503676  1
  N  N315  1  0.79107259  0.41445648  0.04522580  1
  N  N316  1  0.31167203  0.09474007  0.45290834  1
  N  N317  1  0.55620354  0.92912216  0.03890842  1
  N  N318  1  0.45878815  0.92934604  0.45993805  1
  N  N319  1  0.53515038  0.92896856  0.45978635  1
  N  N320  1  0.23433456  0.09302538  0.46049969  1
  N  N321  1  0.71669003  0.90630347  0.54112240  1
  N  N322  1  0.28536732  0.09125727  0.03845027  1
  N  N323  1  0.04165594  0.59306937  0.04001046  1
  N  N324  1  0.21348091  0.76197829  0.04092484  1
  N  N325  1  0.02191052  0.25818146  0.03717094  1
  N  N326  1  0.22971048  0.90787453  0.53898902  1
  N  N327  1  0.55509618  0.26182732  0.45616019  1
  N  N328  1  0.27631453  0.42646272  0.46147820  1
  N  N329  1  0.05813309  0.40603410  0.95542108  1
  N  N330  1  0.28861464  0.57073126  0.96299029  1
  N  N331  1  0.71121002  0.23881401  0.53880879  1
  N  N332  1  0.20926958  0.09170307  0.03858896  1
  N  N333  1  0.69312656  0.09499906  0.04271713  1
  N  N334  1  0.21067408  0.57138098  0.96041688  1
  N  N335  1  0.19838256  0.42772381  0.45753209  1
  N  N336  1  0.77157621  0.24224872  0.96697894  1
  N  N337  1  0.02186759  0.92404959  0.46078492  1
  N  N338  1  0.77065279  0.09321601  0.03795380  1
  N  N339  1  0.68181335  0.43138368  0.45676039  1
  N  N340  1  0.52378542  0.74253322  0.53505904  1
  N  N341  1  0.94286827  0.73775880  0.54617841  1
  N  N342  1  0.79475629  0.90527454  0.54130771  1
  N  N343  1  0.96307323  0.59151920  0.04056512  1
  N  N344  1  0.76813413  0.91110741  0.96642655  1
  N  N345  1  0.97186422  0.92797552  0.03593511  1
  N  N346  1  0.22776562  0.57736613  0.53334107  1
  N  N347  1  0.00737914  0.06919371  0.53184497  1
  N  N348  1  0.51829076  0.41016221  0.96457151  1
  N  N349  1  0.99415724  0.40832508  0.53393996  1
  N  N350  1  0.75853333  0.41899775  0.46454638  1
  N  N351  1  0.70923697  0.41525825  0.04459488  1
  N  N352  1  0.78022236  0.75737275  0.03541832  1
  N  N353  1  0.93048666  0.07427852  0.54625231  1
  N  N354  1  0.01861252  0.74101145  0.96255823  1
  N  N355  1  0.98098800  0.40869535  0.96345463  1
  N  N356  1  0.02049522  0.73977491  0.53964496  1
  N  N357  1  0.21444993  0.24046147  0.95938866  1
  N  N358  1  0.45359081  0.59248136  0.45778590  1
  N  N359  1  0.69437508  0.23889156  0.95833573  1
  N  N360  1  0.04759042  0.06291018  0.58594963  1
  N  N361  1  0.07980102  0.38790833  0.60409886  1
  N  N362  1  0.05713513  0.72048845  0.59165233  1
  N  N363  1  0.56364719  0.05467002  0.60130554  1
  N  N364  1  0.57887287  0.38732290  0.60102860  1
  N  N365  1  0.55485587  0.72435928  0.59188775  1
  N  N366  1  0.44901894  0.27460554  0.08597140  1
  N  N367  1  0.43713611  0.60763838  0.08896088  1
  N  N368  1  0.44425525  0.94250798  0.08453645  1
  N  N369  1  0.93321706  0.27575484  0.10470811  1
  N  N370  1  0.93461934  0.61094246  0.09526663  1
  N  N371  1  0.94363153  0.94327513  0.09317132  1
  N  N372  1  0.43499585  0.05500916  0.90773338  1
  N  N373  1  0.43016645  0.39025350  0.89725942  1
  N  N374  1  0.44592988  0.72449187  0.91098928  1
  N  N375  1  0.94422676  0.05539415  0.90598419  1
  N  N376  1  0.94162407  0.39110190  0.91189799  1
  N  N377  1  0.93178998  0.72225155  0.89571583  1
  N  N378  1  0.07332849  0.27742455  0.40057868  1
  N  N379  1  0.07082618  0.61046755  0.39869281  1
  N  N380  1  0.05685706  0.94457850  0.40774661  1
  N  N381  1  0.56966226  0.27791347  0.39686822  1
  N  N382  1  0.55875774  0.61026502  0.40731424  1
  N  N383  1  0.56017642  0.94467653  0.40187274  1
  N  N384  1  0.30481289  0.22422011  0.59071181  1
  N  N385  1  0.32101076  0.55597067  0.60079449  1
  N  N386  1  0.32180608  0.88902750  0.60583660  1
  N  N387  1  0.81383600  0.22282927  0.60111746  1
  N  N388  1  0.81153218  0.55631112  0.59448075  1
  N  N389  1  0.81415130  0.88909049  0.59915034  1
  N  N390  1  0.18428241  0.10891143  0.09643784  1
  N  N391  1  0.18568447  0.44110077  0.09063191  1
  N  N392  1  0.18739608  0.78205337  0.09711742  1
  N  N393  1  0.67956829  0.11114823  0.10131378  1
  N  N394  1  0.68603069  0.44583146  0.09541098  1
  N  N395  1  0.68166081  0.77759466  0.09992938  1
  N  N396  1  0.18590624  0.21849687  0.90465967  1
  N  N397  1  0.18436359  0.55402807  0.90438310  1
  N  N398  1  0.17552752  0.88959420  0.89831723  1
  N  N399  1  0.67911686  0.22151664  0.90002006  1
  N  N400  1  0.68380440  0.55867803  0.90383033  1
  N  N401  1  0.67597157  0.88952756  0.89755751  1
  N  N402  1  0.32174659  0.11118926  0.39399685  1
  N  N403  1  0.30244974  0.44275947  0.40532662  1
  N  N404  1  0.32314858  0.77870838  0.39606086  1
  N  N405  1  0.82581179  0.11131592  0.39926660  1
  N  N406  1  0.79782394  0.44163157  0.41490398  1
  N  N407  1  0.81643689  0.77701389  0.40197753  1
  N  N408  1  0.44202307  0.27741729  0.40540554  1
  N  N409  1  0.43199983  0.61096527  0.40121889  1
  N  N410  1  0.43381502  0.94527965  0.40156427  1
  N  N411  1  0.94380444  0.27456234  0.40878229  1
  N  N412  1  0.94106313  0.61079960  0.40646730  1
  N  N413  1  0.92876206  0.94360674  0.39493036  1
  N  N414  1  0.07408396  0.05450638  0.89926298  1
  N  N415  1  0.06741623  0.39037063  0.89603454  1
  N  N416  1  0.05768919  0.72297310  0.91108569  1
  N  N417  1  0.56544776  0.05792864  0.90903762  1
  N  N418  1  0.55790994  0.39050110  0.91222324  1
  N  N419  1  0.57358843  0.71990442  0.89223511  1
  N  N420  1  0.06068322  0.27920837  0.08919735  1
  N  N421  1  0.06168904  0.60849744  0.09782378  1
  N  N422  1  0.07118007  0.94486725  0.10088897  1
  N  N423  1  0.57651614  0.27887087  0.10659201  1
  N  N424  1  0.56653901  0.61138629  0.09925013  1
  N  N425  1  0.57169559  0.94644013  0.09865249  1
  N  N426  1  0.43388937  0.05635686  0.59572820  1
  N  N427  1  0.44960360  0.39169775  0.58913006  1
  N  N428  1  0.42718404  0.72325321  0.60073229  1
  N  N429  1  0.92269782  0.05400637  0.60396000  1
  N  N430  1  0.95318321  0.38854348  0.58529847  1
  N  N431  1  0.93146182  0.72220038  0.60522197  1
  N  N432  1  0.19633429  0.11137366  0.40895013  1
  N  N433  1  0.17565270  0.44548845  0.40082238  1
  N  N434  1  0.19399489  0.77361713  0.40824214  1
  N  N435  1  0.69614923  0.10930470  0.40811852  1
  N  N436  1  0.67252682  0.44475219  0.39681602  1
  N  N437  1  0.68640583  0.77628224  0.40502119  1
  N  N438  1  0.31492948  0.22138924  0.90010423  1
  N  N439  1  0.31156325  0.55538720  0.90583176  1
  N  N440  1  0.30387733  0.89276020  0.91443634  1
  N  N441  1  0.80478281  0.22672711  0.91247020  1
  N  N442  1  0.81181722  0.55681222  0.90187832  1
  N  N443  1  0.80280416  0.89313842  0.91101597  1
  N  N444  1  0.31099342  0.10859436  0.09605407  1
  N  N445  1  0.31607723  0.44311431  0.09193573  1
  N  N446  1  0.31649279  0.77803231  0.09859947  1
  N  N447  1  0.80610372  0.11029664  0.09111228  1
  N  N448  1  0.81382603  0.44460980  0.09653554  1
  N  N449  1  0.80910481  0.77506235  0.09177479  1
  N  N450  1  0.17605743  0.22245152  0.60544648  1
  N  N451  1  0.19399683  0.55937820  0.58929830  1
  N  N452  1  0.19391510  0.88849661  0.59195270  1
  N  N453  1  0.68586869  0.22281562  0.59612194  1
  N  N454  1  0.68190552  0.55480433  0.60533652  1
  N  N455  1  0.68727726  0.88864843  0.59613381  1
  Cl  Cl456  1  0.23217373  0.05765249  0.59812191  1
  Cl  Cl457  1  0.26204944  0.38939145  0.61308347  1
  Cl  Cl458  1  0.23923671  0.72270114  0.62125789  1
  Cl  Cl459  1  0.74414818  0.04998931  0.62683356  1
  Cl  Cl460  1  0.77010741  0.39618265  0.60815240  1
  Cl  Cl461  1  0.74343802  0.72338004  0.61071385  1
  Cl  Cl462  1  0.24797196  0.27347948  0.10092697  1
  Cl  Cl463  1  0.24653616  0.61135308  0.10810979  1
  Cl  Cl464  1  0.25823903  0.94473325  0.12326276  1
  Cl  Cl465  1  0.75487960  0.28230360  0.12590798  1
  Cl  Cl466  1  0.75229180  0.60922075  0.12371616  1
  Cl  Cl467  1  0.75617628  0.94911663  0.12140186  1
  Cl  Cl468  1  0.25471267  0.04826716  0.86806535  1
  Cl  Cl469  1  0.24910470  0.38004202  0.87528892  1
  Cl  Cl470  1  0.24467732  0.72756133  0.89805555  1
  Cl  Cl471  1  0.75895035  0.05873517  0.89506531  1
  Cl  Cl472  1  0.75057751  0.40048906  0.90183921  1
  Cl  Cl473  1  0.75264083  0.71466348  0.87311959  1
  Cl  Cl474  1  0.25943383  0.28072538  0.37509439  1
  Cl  Cl475  1  0.25325343  0.61298794  0.37403370  1
  Cl  Cl476  1  0.24233270  0.94023517  0.39799238  1
  Cl  Cl477  1  0.75801815  0.28151616  0.38707505  1
  Cl  Cl478  1  0.74782821  0.61112732  0.38996204  1
  Cl  Cl479  1  0.74301952  0.94190157  0.38832348  1
  Cl  Cl480  1  -0.00484048  0.21369856  0.63021790  1
  Cl  Cl481  1  0.00114768  0.55282567  0.61383641  1
  Cl  Cl482  1  0.00838629  0.89398225  0.60178351  1
  Cl  Cl483  1  0.49378201  0.22196789  0.61056850  1
  Cl  Cl484  1  0.49939147  0.55478562  0.62261627  1
  Cl  Cl485  1  0.50515352  0.88437380  0.62310061  1
  Cl  Cl486  1  -0.00689784  0.11379172  0.11547354  1
  Cl  Cl487  1  -0.00518950  0.44115362  0.11245386  1
  Cl  Cl488  1  0.00351862  0.77162177  0.10998559  1
  Cl  Cl489  1  0.49464661  0.11325143  0.11904174  1
  Cl  Cl490  1  0.50570179  0.44253798  0.10737396  1
  Cl  Cl491  1  0.49732541  0.78442581  0.11256793  1
  Cl  Cl492  1  -0.00082897  0.22664408  0.89927622  1
  Cl  Cl493  1  -0.00077384  0.55517728  0.88481743  1
  Cl  Cl494  1  -0.01161125  0.88740054  0.87677152  1
  Cl  Cl495  1  0.49730069  0.21835813  0.87884946  1
  Cl  Cl496  1  0.49798738  0.55198258  0.88878041  1
  Cl  Cl497  1  0.49163972  0.89023533  0.88883129  1
  Cl  Cl498  1  0.01412049  0.11187497  0.39490546  1
  Cl  Cl499  1  -0.01665222  0.43762842  0.39579829  1
  Cl  Cl500  1  0.00959356  0.77425144  0.38857852  1
  Cl  Cl501  1  0.50781539  0.11428893  0.38340210  1
  Cl  Cl502  1  0.48707109  0.44855252  0.37951938  1
  Cl  Cl503  1  0.50455880  0.78212273  0.37528549  1
  Cl  Cl504  1  0.35796396  0.14852350  0.74586444  1
  Cl  Cl505  1  0.35866583  0.48086585  0.75219283  1
  Cl  Cl506  1  0.35980113  0.81089401  0.74823411  1
  Cl  Cl507  1  0.86083948  0.14647049  0.75379471  1
  Cl  Cl508  1  0.85539180  0.47949511  0.75530518  1
  Cl  Cl509  1  0.85991571  0.81246051  0.74241726  1
  Cl  Cl510  1  0.13918034  0.18746528  0.25069604  1
  Cl  Cl511  1  0.13625905  0.52004661  0.24900489  1
  Cl  Cl512  1  0.13867259  0.85379449  0.25161366  1
  Cl  Cl513  1  0.63860874  0.18906553  0.24465774  1
  Cl  Cl514  1  0.63741621  0.52089465  0.25513234  1
  Cl  Cl515  1  0.64075893  0.85259923  0.24822673  1
  Cl  Cl516  1  0.13581332  0.14506450  0.74946800  1
  Cl  Cl517  1  0.13928109  0.47825602  0.74872374  1
  Cl  Cl518  1  0.14170014  0.81307570  0.75193843  1
  Cl  Cl519  1  0.64193164  0.14603483  0.75253758  1
  Cl  Cl520  1  0.63815702  0.47474792  0.74491980  1
  Cl  Cl521  1  0.63774654  0.81172765  0.75782477  1
  Cl  Cl522  1  0.35864121  0.18773893  0.25183026  1
  Cl  Cl523  1  0.35961794  0.51753139  0.24598869  1
  Cl  Cl524  1  0.35890357  0.85579575  0.25642055  1
  Cl  Cl525  1  0.85899106  0.18779207  0.25501660  1
  Cl  Cl526  1  0.85842535  0.51776165  0.25260703  1
  Cl  Cl527  1  0.86442137  0.85436137  0.25159951  1
  Cl  Cl528  1  0.11228088  0.31215464  0.74936774  1
  Cl  Cl529  1  0.10696909  0.64538718  0.75161168  1
  Cl  Cl530  1  0.11044283  0.98038193  0.74613726  1
  Cl  Cl531  1  0.61448364  0.31173807  0.74807192  1
  Cl  Cl532  1  0.61304591  0.64390132  0.75264929  1
  Cl  Cl533  1  0.61113254  0.97976643  0.75083366  1
  Cl  Cl534  1  0.38913600  0.02125931  0.25395098  1
  Cl  Cl535  1  0.39293899  0.35100524  0.24676137  1
  Cl  Cl536  1  0.38770402  0.68757317  0.24714164  1
  Cl  Cl537  1  0.88751709  0.02192123  0.25736252  1
  Cl  Cl538  1  0.88635323  0.35440762  0.24600472  1
  Cl  Cl539  1  0.89178767  0.68507884  0.25016491  1
  Cl  Cl540  1  0.39194490  0.31457585  0.75296604  1
  Cl  Cl541  1  0.39137047  0.64573988  0.75056464  1
  Cl  Cl542  1  0.38903854  0.97975966  0.74640400  1
  Cl  Cl543  1  0.88968947  0.31494096  0.75177024  1
  Cl  Cl544  1  0.88675430  0.64561192  0.74730935  1
  Cl  Cl545  1  0.89103906  0.97757967  0.74004079  1
  Cl  Cl546  1  0.10732825  0.02147713  0.25178666  1
  Cl  Cl547  1  0.10694843  0.35474805  0.25324503  1
  Cl  Cl548  1  0.11343889  0.68606431  0.24922307  1
  Cl  Cl549  1  0.61163431  0.01994106  0.24395868  1
  Cl  Cl550  1  0.61630366  0.35539563  0.24926095  1
  Cl  Cl551  1  0.60727929  0.68583649  0.24808384  1
