# generated using pymatgen
data_H8PbC4(N3Cl2)2
_symmetry_space_group_name_H-M   'P 1'
_cell_length_a   16.62246965
_cell_length_b   22.50136329
_cell_length_c   21.58838655
_cell_angle_alpha   89.99904649
_cell_angle_beta   89.99978462
_cell_angle_gamma   90.00336487
_symmetry_Int_Tables_number   1
_chemical_formula_structural   H8PbC4(N3Cl2)2
_chemical_formula_sum   'H192 Pb24 C96 N144 Cl96'
_cell_volume   8074.66595682
_cell_formula_units_Z   24
loop_
 _symmetry_equiv_pos_site_id
 _symmetry_equiv_pos_as_xyz
  1  'x, y, z'
loop_
 _atom_site_type_symbol
 _atom_site_label
 _atom_site_symmetry_multiplicity
 _atom_site_fract_x
 _atom_site_fract_y
 _atom_site_fract_z
 _atom_site_occupancy
  H  H0  1  0.00754852  0.03170312  0.68045883  1
  H  H1  1  0.00539740  0.36348372  0.68165859  1
  H  H2  1  -0.00314269  0.69810361  0.68154592  1
  H  H3  1  0.49527711  0.03281382  0.68190814  1
  H  H4  1  0.49489468  0.36640552  0.67893169  1
  H  H5  1  0.49361953  0.69689311  0.68083466  1
  H  H6  1  -0.00229948  0.30281767  0.18204500  1
  H  H7  1  -0.00103983  0.63501239  0.17868616  1
  H  H8  1  0.00464550  0.96728516  0.18244613  1
  H  H9  1  0.50465527  0.29886317  0.18173349  1
  H  H10  1  0.49856305  0.63347042  0.17629259  1
  H  H11  1  0.50225235  0.96855202  0.18287677  1
  H  H12  1  -0.00391413  0.03320161  0.81690896  1
  H  H13  1  0.00399357  0.36724564  0.81935916  1
  H  H14  1  -0.00064066  0.69588877  0.81975093  1
  H  H15  1  0.50379510  0.03218767  0.82099264  1
  H  H16  1  0.49113637  0.36624640  0.81979181  1
  H  H17  1  0.49569484  0.69879454  0.82254519  1
  H  H18  1  0.00414375  0.30118187  0.31847552  1
  H  H19  1  0.00420407  0.63361465  0.32040848  1
  H  H20  1  0.00923728  0.96886141  0.32316321  1
  H  H21  1  0.49357244  0.30185626  0.32029464  1
  H  H22  1  0.50761754  0.63166880  0.32225917  1
  H  H23  1  0.49096006  0.96834056  0.31885639  1
  H  H24  1  0.25478456  0.19849492  0.68009148  1
  H  H25  1  0.24679378  0.53326175  0.68197868  1
  H  H26  1  0.25546720  0.86527700  0.67925973  1
  H  H27  1  0.74941923  0.19858599  0.68117405  1
  H  H28  1  0.74530389  0.53251105  0.68043333  1
  H  H29  1  0.74306908  0.86646776  0.68007702  1
  H  H30  1  0.24802915  0.13428571  0.18107578  1
  H  H31  1  0.25291157  0.46877301  0.17865056  1
  H  H32  1  0.24978539  0.80155107  0.18162744  1
  H  H33  1  0.74810846  0.13367218  0.18300167  1
  H  H34  1  0.74445694  0.47031046  0.18023791  1
  H  H35  1  0.75148684  0.80208735  0.17901825  1
  H  H36  1  0.24275200  0.19835742  0.81789386  1
  H  H37  1  0.24943797  0.53381171  0.82311930  1
  H  H38  1  0.24563592  0.86541437  0.81869540  1
  H  H39  1  0.75175087  0.19879914  0.81923749  1
  H  H40  1  0.74779334  0.53202723  0.82129764  1
  H  H41  1  0.75610620  0.86482241  0.81809828  1
  H  H42  1  0.25170978  0.13292687  0.31822459  1
  H  H43  1  0.24607620  0.46757392  0.31800228  1
  H  H44  1  0.25615176  0.80161973  0.31783054  1
  H  H45  1  0.74829110  0.13526679  0.32101829  1
  H  H46  1  0.75079719  0.46912184  0.31992264  1
  H  H47  1  0.75266312  0.80175382  0.31835939  1
  H  H48  1  0.12374210  0.05538255  0.60131704  1
  H  H49  1  0.12322723  0.38967541  0.60568791  1
  H  H50  1  0.12947538  0.71998208  0.62037365  1
  H  H51  1  0.62813902  0.05152956  0.62068972  1
  H  H52  1  0.62815703  0.38643645  0.61772326  1
  H  H53  1  0.62796435  0.71802317  0.61952965  1
  H  H54  1  0.37051765  0.28150373  0.12079310  1
  H  H55  1  0.37472302  0.61284586  0.10709753  1
  H  H56  1  0.37431420  0.94696622  0.11349601  1
  H  H57  1  0.87483828  0.27797552  0.10897989  1
  H  H58  1  0.87562199  0.61201475  0.10719763  1
  H  H59  1  0.87187567  0.94692813  0.11745013  1
  H  H60  1  0.37272870  0.05306339  0.88521581  1
  H  H61  1  0.38304358  0.39252411  0.90425973  1
  H  H62  1  0.37824584  0.71992684  0.89932983  1
  H  H63  1  0.87640765  0.05336110  0.89009447  1
  H  H64  1  0.87954930  0.38847308  0.88799306  1
  H  H65  1  0.87270258  0.71921258  0.88939260  1
  H  H66  1  0.12885715  0.27667800  0.38813587  1
  H  H67  1  0.11769655  0.60872163  0.39930227  1
  H  H68  1  0.12062965  0.94305880  0.40307706  1
  H  H69  1  0.63027031  0.28161645  0.37713421  1
  H  H70  1  0.61811660  0.61034259  0.40230146  1
  H  H71  1  0.62634955  0.94912463  0.37977286  1
  H  H72  1  0.36771493  0.22565582  0.60021857  1
  H  H73  1  0.38156292  0.54968973  0.62213092  1
  H  H74  1  0.37019433  0.89096095  0.60045616  1
  H  H75  1  0.87244441  0.22045884  0.61095382  1
  H  H76  1  0.87816091  0.55350772  0.61501726  1
  H  H77  1  0.87820628  0.88547322  0.62120942  1
  H  H78  1  0.12966943  0.11214558  0.10712012  1
  H  H79  1  0.11959367  0.44967253  0.11593721  1
  H  H80  1  0.12551211  0.77734322  0.11126005  1
  H  H81  1  0.62516706  0.11193537  0.11099574  1
  H  H82  1  0.62102646  0.44666130  0.10710272  1
  H  H83  1  0.62486871  0.77793057  0.11053074  1
  H  H84  1  0.12947473  0.22268802  0.89772202  1
  H  H85  1  0.12539674  0.55269325  0.89256382  1
  H  H86  1  0.12840039  0.89021633  0.89607206  1
  H  H87  1  0.62587000  0.21853839  0.88848913  1
  H  H88  1  0.62514285  0.55591743  0.89329092  1
  H  H89  1  0.62687237  0.88612940  0.88600563  1
  H  H90  1  0.36961056  0.11247935  0.39288021  1
  H  H91  1  0.37835054  0.44849870  0.38363726  1
  H  H92  1  0.36827571  0.77504914  0.39931885  1
  H  H93  1  0.87354882  0.11261669  0.39111967  1
  H  H94  1  0.86902694  0.44403613  0.39600498  1
  H  H95  1  0.86856489  0.77717862  0.39670018  1
  H  H96  1  0.38342853  0.27568282  0.40260073  1
  H  H97  1  0.37151987  0.61520104  0.37954783  1
  H  H98  1  0.37946029  0.94245923  0.40108557  1
  H  H99  1  0.88010643  0.27860598  0.39041216  1
  H  H100  1  0.86987887  0.61623145  0.38266968  1
  H  H101  1  0.87382004  0.94933038  0.38271540  1
  H  H102  1  0.12571921  0.05253957  0.88306822  1
  H  H103  1  0.12903778  0.38871822  0.89007016  1
  H  H104  1  0.12117902  0.71896484  0.89304517  1
  H  H105  1  0.62117524  0.05640424  0.89622991  1
  H  H106  1  0.62855447  0.38466917  0.87754801  1
  H  H107  1  0.62683120  0.71852339  0.88728637  1
  H  H108  1  0.12446693  0.28115869  0.11480951  1
  H  H109  1  0.12487995  0.61181175  0.10883350  1
  H  H110  1  0.12063649  0.94535118  0.10397893  1
  H  H111  1  0.61864558  0.27741093  0.10422262  1
  H  H112  1  0.62378486  0.61343989  0.10820887  1
  H  H113  1  0.62332871  0.94524532  0.10976377  1
  H  H114  1  0.37950774  0.05411091  0.60477190  1
  H  H115  1  0.38088306  0.39087271  0.59911740  1
  H  H116  1  0.38161674  0.72298347  0.59937326  1
  H  H117  1  0.87575598  0.05293283  0.61418320  1
  H  H118  1  0.87396492  0.38519368  0.61835889  1
  H  H119  1  0.88119606  0.72495059  0.60377208  1
  H  H120  1  0.12041068  0.11415973  0.38265431  1
  H  H121  1  0.12956597  0.44395388  0.39569512  1
  H  H122  1  0.12177333  0.78280779  0.37987200  1
  H  H123  1  0.62427583  0.11218287  0.39121308  1
  H  H124  1  0.62121102  0.44821393  0.38715489  1
  H  H125  1  0.62006209  0.77997933  0.38001973  1
  H  H126  1  0.37746430  0.21786565  0.88078221  1
  H  H127  1  0.37464549  0.55448225  0.89124084  1
  H  H128  1  0.37753798  0.88444717  0.88159826  1
  H  H129  1  0.87421284  0.22278078  0.89135585  1
  H  H130  1  0.87451165  0.55364380  0.89065043  1
  H  H131  1  0.87511045  0.88881753  0.89566877  1
  H  H132  1  0.37874477  0.11501054  0.11636574  1
  H  H133  1  0.36810864  0.44486447  0.09960202  1
  H  H134  1  0.37460711  0.77768677  0.11004932  1
  H  H135  1  0.87447073  0.11320385  0.11158755  1
  H  H136  1  0.86941447  0.44717523  0.10979678  1
  H  H137  1  0.87365962  0.77801170  0.10753050  1
  H  H138  1  0.11942541  0.21705769  0.62048090  1
  H  H139  1  0.13344863  0.55591375  0.60320037  1
  H  H140  1  0.12196267  0.88635278  0.61826933  1
  H  H141  1  0.62326910  0.22090853  0.61354664  1
  H  H142  1  0.63041535  0.55579341  0.60015976  1
  H  H143  1  0.63056544  0.88979797  0.60156907  1
  H  H144  1  0.09824557  0.75074362  0.50845933  1
  H  H145  1  0.45802328  0.41934218  1.00367627  1
  H  H146  1  0.45199378  0.74240581  0.49660162  1
  H  H147  1  0.35946440  0.57941044  0.50866802  1
  H  H148  1  0.55756182  0.25076169  -0.00587051  1
  H  H149  1  0.34432069  0.91367156  0.99386575  1
  H  H150  1  0.18089040  0.08307404  -0.00203071  1
  H  H151  1  0.18866469  0.91587910  0.99964456  1
  H  H152  1  0.14605212  0.24521680  0.50696007  1
  H  H153  1  0.31367871  0.08504549  0.50417580  1
  H  H154  1  0.92413376  0.41947105  0.99954570  1
  H  H155  1  0.67470170  0.08315310  0.00233439  1
  H  H156  1  0.94381634  0.74573685  0.49923893  1
  H  H157  1  0.67751986  0.26092343  0.98753595  1
  H  H158  1  0.19576377  0.24653652  1.00490932  1
  H  H159  1  0.40794014  0.08301273  0.99198941  1
  H  H160  1  0.45119393  0.91857288  0.50239817  1
  H  H161  1  0.30231397  0.24631113  0.49679782  1
  H  H162  1  0.45437065  0.25347519  0.50471855  1
  H  H163  1  0.81674806  0.22459905  0.99792636  1
  H  H164  1  0.90291463  0.57988190  0.48691876  1
  H  H165  1  0.57085826  0.91619579  0.00178318  1
  H  H166  1  0.06360497  0.40950400  0.50034550  1
  H  H167  1  0.08133296  0.25617667  0.00155242  1
  H  H168  1  0.66129687  0.42061392  0.49316541  1
  H  H169  1  0.43790476  0.08023970  0.49533123  1
  H  H170  1  0.66159928  0.24914842  0.50243645  1
  H  H171  1  0.17497908  0.74615075  0.00305436  1
  H  H172  1  0.29814091  0.74859236  0.50056067  1
  H  H173  1  0.59998840  0.07972904  0.50764117  1
  H  H174  1  0.65184316  0.74998744  0.49198595  1
  H  H175  1  0.05746696  0.92050812  -0.00401099  1
  H  H176  1  0.89987931  0.91859353  0.49145733  1
  H  H177  1  0.90889815  0.41254746  0.50613284  1
  H  H178  1  0.82585234  0.08312645  0.49606387  1
  H  H179  1  0.92960705  0.26471900  0.00135457  1
  H  H180  1  0.92727094  0.07888351  1.00130480  1
  H  H181  1  0.30324258  0.42016107  -0.00399465  1
  H  H182  1  0.19502225  0.58125464  0.49464252  1
  H  H183  1  0.67270267  0.42024190  0.00355855  1
  H  H184  1  0.30426335  0.91794359  0.49743944  1
  H  H185  1  0.05034555  0.59410530  0.50294614  1
  H  H186  1  0.80564234  0.75793137  0.50155691  1
  H  H187  1  0.19190837  0.41841491  0.50353993  1
  H  H188  1  0.91996545  0.74686190  0.99409152  1
  H  H189  1  0.68964420  0.91876533  0.49484383  1
  H  H190  1  0.58936017  0.74505286  0.99458445  1
  H  H191  1  0.82701965  0.24863450  0.50012797  1
  Pb  Pb192  1  0.25079370  0.04587155  0.74611467  1
  Pb  Pb193  1  0.25465479  0.38364129  0.75135731  1
  Pb  Pb194  1  0.25669764  0.71454532  0.74913142  1
  Pb  Pb195  1  0.75476509  0.04819907  0.75058801  1
  Pb  Pb196  1  0.75444804  0.38051508  0.75087616  1
  Pb  Pb197  1  0.75120313  0.71220201  0.74539410  1
  Pb  Pb198  1  0.24944845  0.28570055  0.25722578  1
  Pb  Pb199  1  0.24772449  0.62128960  0.25160370  1
  Pb  Pb200  1  0.24876655  0.95079858  0.25060788  1
  Pb  Pb201  1  0.75057505  0.28764029  0.24426598  1
  Pb  Pb202  1  0.74825364  0.61832095  0.24844937  1
  Pb  Pb203  1  0.74872045  0.95484632  0.24903316  1
  Pb  Pb204  1  0.00429768  0.21504282  0.75818472  1
  Pb  Pb205  1  0.00401441  0.54899008  0.74439627  1
  Pb  Pb206  1  0.00145488  0.87867155  0.75368704  1
  Pb  Pb207  1  0.50101238  0.21403576  0.74511507  1
  Pb  Pb208  1  0.50488613  0.54567666  0.74940778  1
  Pb  Pb209  1  0.50478731  0.88214037  0.74420009  1
  Pb  Pb210  1  -0.00238694  0.11994133  0.24731828  1
  Pb  Pb211  1  -0.00035111  0.45399306  0.25525286  1
  Pb  Pb212  1  -0.00686650  0.78552854  0.25053303  1
  Pb  Pb213  1  0.50102773  0.12053537  0.25065824  1
  Pb  Pb214  1  0.49705475  0.45364154  0.24328974  1
  Pb  Pb215  1  0.50200035  0.78387614  0.24946745  1
  C  C216  1  0.00225252  0.04641023  0.63277413  1
  C  C217  1  0.00115652  0.37917121  0.63410074  1
  C  C218  1  0.00231184  0.71303027  0.63381181  1
  C  C219  1  0.50127751  0.04668865  0.63393178  1
  C  C220  1  0.50111479  0.38077801  0.63140638  1
  C  C221  1  0.50096477  0.71160766  0.63328119  1
  C  C222  1  -0.00169281  0.28772767  0.13420755  1
  C  C223  1  0.00002955  0.61972495  0.13127653  1
  C  C224  1  -0.00117006  0.95320272  0.13459185  1
  C  C225  1  0.49811288  0.28595683  0.13371644  1
  C  C226  1  0.49907386  0.61941228  0.12807678  1
  C  C227  1  0.49966808  0.95366262  0.13513657  1
  C  C228  1  -0.00095106  0.04669474  0.86499399  1
  C  C229  1  0.00377949  0.38130831  0.86732298  1
  C  C230  1  -0.00257953  0.71162324  0.86718543  1
  C  C231  1  0.49877437  0.04704411  0.86856111  1
  C  C232  1  0.50068298  0.38042303  0.86729072  1
  C  C233  1  0.50065795  0.71276082  0.87039801  1
  C  C234  1  0.00417929  0.28609516  0.36594039  1
  C  C235  1  -0.00307498  0.61924623  0.36820230  1
  C  C236  1  0.00073937  0.95347442  0.37030626  1
  C  C237  1  0.50213467  0.28741326  0.36776862  1
  C  C238  1  0.49884518  0.61888159  0.37008085  1
  C  C239  1  0.49855676  0.95367432  0.36639380  1
  C  C240  1  0.24755212  0.21275979  0.63225111  1
  C  C241  1  0.25429256  0.54657209  0.63395733  1
  C  C242  1  0.24947165  0.88003657  0.63178353  1
  C  C243  1  0.74822068  0.21336866  0.63327119  1
  C  C244  1  0.75154370  0.54684280  0.63263858  1
  C  C245  1  0.75036150  0.88073168  0.63246448  1
  C  C246  1  0.25189146  0.12016488  0.13323354  1
  C  C247  1  0.24712372  0.45487617  0.13086035  1
  C  C248  1  0.25011527  0.78619782  0.13405338  1
  C  C249  1  0.74948733  0.11962747  0.13496740  1
  C  C250  1  0.74447735  0.45453775  0.13276089  1
  C  C251  1  0.74975377  0.78654358  0.13177123  1
  C  C252  1  0.25018443  0.21307554  0.86539975  1
  C  C253  1  0.24978042  0.54746537  0.87142782  1
  C  C254  1  0.25028377  0.87999147  0.86658743  1
  C  C255  1  0.75070151  0.21359468  0.86718060  1
  C  C256  1  0.74935843  0.54711069  0.86877405  1
  C  C257  1  0.75292064  0.87957406  0.86584503  1
  C  C258  1  0.24755108  0.11950635  0.36626277  1
  C  C259  1  0.25150505  0.45314840  0.36575999  1
  C  C260  1  0.24892840  0.78676425  0.36532560  1
  C  C261  1  0.74919567  0.11974261  0.36852295  1
  C  C262  1  0.74677625  0.45401099  0.36752551  1
  C  C263  1  0.74728998  0.78737703  0.36628464  1
  C  C264  1  0.19480673  0.90869094  0.54263734  1
  C  C265  1  0.96402279  0.59075440  0.03898873  1
  C  C266  1  0.46764959  0.73828581  0.96659515  1
  C  C267  1  0.80685013  0.90552188  0.54338155  1
  C  C268  1  0.56192597  0.26145965  0.45584665  1
  C  C269  1  0.22683197  0.23795515  0.96147184  1
  C  C270  1  0.96403188  0.40750523  0.96166546  1
  C  C271  1  0.52469653  0.26163112  0.03615519  1
  C  C272  1  0.78711956  0.23878943  0.53871705  1
  C  C273  1  0.22482926  0.42782586  0.46111070  1
  C  C274  1  0.70732499  0.09177720  0.46197133  1
  C  C275  1  0.55138600  0.40710718  0.54171458  1
  C  C276  1  0.04285520  0.26283135  0.04177080  1
  C  C277  1  0.19204630  0.23736441  0.54320619  1
  C  C278  1  0.78537655  0.75767459  0.03871550  1
  C  C279  1  0.54017024  0.59376840  0.03631743  1
  C  C280  1  0.21981297  0.09382227  0.03735024  1
  C  C281  1  0.30136510  0.90466198  0.95708311  1
  C  C282  1  0.19325447  0.42892013  0.04057718  1
  C  C283  1  0.05479447  0.74050235  0.54466031  1
  C  C284  1  0.44189707  0.59555763  0.45880763  1
  C  C285  1  0.69513181  0.76023083  0.45567886  1
  C  C286  1  0.30142165  0.09537069  0.04184493  1
  C  C287  1  0.53318617  0.92726034  0.04141796  1
  C  C288  1  0.72565093  0.90745646  0.53519452  1
  C  C289  1  0.21037878  0.57155382  0.96392254  1
  C  C290  1  0.44384083  0.26339216  0.04376390  1
  C  C291  1  0.04314449  0.25798957  0.45859033  1
  C  C292  1  0.52179745  0.59390080  0.46621694  1
  C  C293  1  0.47201005  0.07123050  0.53715935  1
  C  C294  1  0.04573343  0.40623744  0.96098311  1
  C  C295  1  0.45978257  0.59378202  0.03578419  1
  C  C296  1  0.71372362  0.09398630  0.04149147  1
  C  C297  1  0.70482759  0.23887678  0.53974808  1
  C  C298  1  0.95118304  0.40472587  0.54361133  1
  C  C299  1  0.30992131  0.56947519  0.54372160  1
  C  C300  1  0.21349970  0.75853987  0.04155089  1
  C  C301  1  0.27858627  0.09473496  0.46285739  1
  C  C302  1  0.22820908  0.57108081  0.53685787  1
  C  C303  1  0.29066663  0.57236117  0.96344404  1
  C  C304  1  0.04643939  0.07010179  0.95720153  1
  C  C305  1  0.96509461  0.07026025  0.96131602  1
  C  C306  1  0.53158016  0.07558088  0.96404675  1
  C  C307  1  0.71437420  0.57634982  0.96125391  1
  C  C308  1  0.55381544  0.07037776  0.54290893  1
  C  C309  1  0.02644803  0.92383338  0.46673835  1
  C  C310  1  0.19729890  0.09550449  0.45749130  1
  C  C311  1  0.02493039  0.92925508  0.03879302  1
  N  N312  1  0.02315490  0.58726857  0.46077260  1
  N  N313  1  0.27202480  0.42726997  0.03635158  1
  N  N314  1  0.47417934  0.40822554  0.53430912  1
  N  N315  1  0.96538463  0.25891052  0.46088173  1
  N  N316  1  0.29273457  0.75938700  0.04050635  1
  N  N317  1  0.78885852  0.24133744  0.95923273  1
  N  N318  1  0.54651432  0.73792939  0.96111990  1
  N  N319  1  0.47872886  0.92654042  0.46066239  1
  N  N320  1  0.80038606  0.57060694  0.54094956  1
  N  N321  1  0.96305204  0.26151179  0.04092000  1
  N  N322  1  0.30380669  0.42875001  0.45701357  1
  N  N323  1  0.94488042  0.59892725  0.45761881  1
  N  N324  1  0.72405183  0.57210124  0.53630731  1
  N  N325  1  0.97531678  0.74253066  0.54008647  1
  N  N326  1  0.45265453  0.07388555  0.95880067  1
  N  N327  1  0.77463032  0.75907219  0.46039910  1
  N  N328  1  0.70726809  0.75761235  0.03864964  1
  N  N329  1  0.70970399  0.42735691  0.04107629  1
  N  N330  1  0.22193120  0.90715602  0.96073545  1
  N  N331  1  0.04141871  0.59078396  0.03810875  1
  N  N332  1  0.03074406  0.40785420  0.54044638  1
  N  N333  1  0.95491502  0.07211220  0.54127969  1
  N  N334  1  0.94818653  0.92641120  0.45869644  1
  N  N335  1  0.55724472  0.73665841  0.54462902  1
  N  N336  1  0.03131667  0.07337919  0.53718038  1
  N  N337  1  0.78440971  0.90644233  0.96093342  1
  N  N338  1  0.70797645  0.90578629  0.95791648  1
  N  N339  1  0.95872436  0.73957526  0.95769120  1
  N  N340  1  0.30562513  0.23756728  0.95543779  1
  N  N341  1  0.79319009  0.09511514  0.04102222  1
  N  N342  1  0.47954252  0.73940102  0.53923004  1
  N  N343  1  0.55637698  0.92899767  0.45462976  1
  N  N344  1  0.78654925  0.09229781  0.46078382  1
  N  N345  1  0.27137258  0.24107343  0.53768036  1
  N  N346  1  0.79184956  0.57540407  0.96193936  1
  N  N347  1  0.03705188  0.73872121  0.96075746  1
  N  N348  1  0.27342969  0.90893533  0.53755518  1
  N  N349  1  0.78816254  0.42797061  0.04016890  1
  N  N350  1  0.48333608  0.25983456  0.46320320  1
  N  N351  1  0.70822648  0.23107303  0.96056974  1
  N  N352  1  0.45381558  0.92825746  0.04208809  1
  N  N353  1  0.19248000  0.76426170  0.45466541  1
  N  N354  1  0.70353151  0.42859820  0.45783267  1
  N  N355  1  0.78213245  0.42735345  0.46208267  1
  N  N356  1  0.27015265  0.76208581  0.46026027  1
  N  N357  1  0.48422131  0.40649076  0.96234055  1
  N  N358  1  0.94603381  0.92899878  0.04340607  1
  N  N359  1  0.56158925  0.40379343  0.95473221  1
  N  N360  1  0.06203223  0.05758797  0.59368042  1
  N  N361  1  0.06154488  0.38925782  0.59564104  1
  N  N362  1  0.07166696  0.72342722  0.60315061  1
  N  N363  1  0.57022786  0.05527184  0.60331417  1
  N  N364  1  0.57017715  0.39038372  0.60066101  1
  N  N365  1  0.56983582  0.72148858  0.60376505  1
  N  N366  1  0.42816591  0.27772499  0.10256244  1
  N  N367  1  0.43398784  0.60914055  0.09189943  1
  N  N368  1  0.43463684  0.94474999  0.10097201  1
  N  N369  1  0.93573327  0.28034288  0.09726580  1
  N  N370  1  0.93578721  0.60828872  0.09497634  1
  N  N371  1  0.93157588  0.94378794  0.10307925  1
  N  N372  1  0.43205158  0.05627698  0.90013770  1
  N  N373  1  0.44552471  0.39167954  0.90978326  1
  N  N374  1  0.43887976  0.72302700  0.91038181  1
  N  N375  1  0.93656803  0.05579964  0.90268370  1
  N  N376  1  0.93907730  0.39153348  0.90232582  1
  N  N377  1  0.93320806  0.72238475  0.90147191  1
  N  N378  1  0.06922926  0.27455392  0.40125031  1
  N  N379  1  0.05568805  0.61057023  0.40867313  1
  N  N380  1  0.05951152  0.94059900  0.41204930  1
  N  N381  1  0.57354924  0.27748639  0.39642903  1
  N  N382  1  0.55691338  0.60801438  0.41227150  1
  N  N383  1  0.56788593  0.94435077  0.39565969  1
  N  N384  1  0.30560216  0.22296408  0.59167210  1
  N  N385  1  0.32407389  0.55431839  0.60425053  1
  N  N386  1  0.30835263  0.89004448  0.59190653  1
  N  N387  1  0.81248442  0.22300578  0.59715573  1
  N  N388  1  0.81867052  0.55529508  0.60093547  1
  N  N389  1  0.82080627  0.88971758  0.60245488  1
  N  N390  1  0.19016097  0.10943908  0.09543209  1
  N  N391  1  0.17768507  0.44527249  0.09929031  1
  N  N392  1  0.18565161  0.77526718  0.09849818  1
  N  N393  1  0.68560847  0.10926492  0.09869447  1
  N  N394  1  0.68173064  0.44445581  0.09662740  1
  N  N395  1  0.68529663  0.77608478  0.09782153  1
  N  N396  1  0.19090623  0.22348279  0.90636051  1
  N  N397  1  0.18461383  0.55655647  0.90784228  1
  N  N398  1  0.19029942  0.89083876  0.90520070  1
  N  N399  1  0.68603681  0.22586735  0.90052725  1
  N  N400  1  0.68550175  0.55926086  0.90526310  1
  N  N401  1  0.68716622  0.88929851  0.89896081  1
  N  N402  1  0.30911766  0.10974439  0.40471524  1
  N  N403  1  0.31855440  0.44460545  0.39770332  1
  N  N404  1  0.30600179  0.77503294  0.40602729  1
  N  N405  1  0.81291891  0.10965209  0.40323309  1
  N  N406  1  0.80801072  0.44257576  0.40543611  1
  N  N407  1  0.80664266  0.77928518  0.40614366  1
  N  N408  1  0.44556064  0.27796887  0.40955073  1
  N  N409  1  0.42779360  0.61083695  0.39931980  1
  N  N410  1  0.44178893  0.94327748  0.40782658  1
  N  N411  1  0.94116591  0.27684100  0.40177067  1
  N  N412  1  0.92855775  0.60886842  0.39768133  1
  N  N413  1  0.93202311  0.94416737  0.39909761  1
  N  N414  1  0.06659104  0.05606510  0.89886936  1
  N  N415  1  0.06928569  0.39068407  0.90376605  1
  N  N416  1  0.06034320  0.72214003  0.90373395  1
  N  N417  1  0.56036858  0.05884607  0.90804016  1
  N  N418  1  0.57102004  0.38810948  0.89540567  1
  N  N419  1  0.56741495  0.72194824  0.90193734  1
  N  N420  1  0.06486442  0.27718837  0.09999553  1
  N  N421  1  0.06414212  0.60908628  0.09682866  1
  N  N422  1  0.05913379  0.94370757  0.09448012  1
  N  N423  1  0.55779662  0.27604892  0.09361267  1
  N  N424  1  0.56483078  0.60918767  0.09266469  1
  N  N425  1  0.56263022  0.94259448  0.09813668  1
  N  N426  1  0.44054239  0.05667553  0.59432719  1
  N  N427  1  0.44265101  0.39154222  0.59151751  1
  N  N428  1  0.44380530  0.72120983  0.59192850  1
  N  N429  1  0.93583895  0.05544065  0.60054537  1
  N  N430  1  0.93270793  0.38884061  0.60211939  1
  N  N431  1  0.94300761  0.72239374  0.59425049  1
  N  N432  1  0.17908293  0.11018308  0.39913676  1
  N  N433  1  0.19087109  0.44232431  0.40527328  1
  N  N434  1  0.17990044  0.77972375  0.39569870  1
  N  N435  1  0.68403520  0.10862252  0.40485874  1
  N  N436  1  0.68119615  0.44541545  0.40087908  1
  N  N437  1  0.67806569  0.77646638  0.39694192  1
  N  N438  1  0.31834114  0.22214070  0.89575823  1
  N  N439  1  0.31546418  0.55782047  0.90683395  1
  N  N440  1  0.31918003  0.88850971  0.89843175  1
  N  N441  1  0.81388779  0.21940984  0.90390529  1
  N  N442  1  0.81387592  0.55677452  0.90306749  1
  N  N443  1  0.81364495  0.89022716  0.90403860  1
  N  N444  1  0.32000692  0.11115902  0.10013966  1
  N  N445  1  0.30632533  0.44494255  0.09129015  1
  N  N446  1  0.31375636  0.77632739  0.09853469  1
  N  N447  1  0.81361730  0.11065311  0.09976684  1
  N  N448  1  0.80887212  0.44393290  0.09776330  1
  N  N449  1  0.81336227  0.77505153  0.09494228  1
  N  N450  1  0.17729156  0.22125340  0.60243825  1
  N  N451  1  0.19476562  0.55688207  0.59345235  1
  N  N452  1  0.17987662  0.89097676  0.60098150  1
  N  N453  1  0.68239524  0.22301218  0.59897102  1
  N  N454  1  0.69255538  0.55743538  0.59276504  1
  N  N455  1  0.69160152  0.89171026  0.59209957  1
  Cl  Cl456  1  0.25143050  0.05174447  0.61218152  1
  Cl  Cl457  1  0.24754824  0.38733113  0.61569428  1
  Cl  Cl458  1  0.26136330  0.72713210  0.60636879  1
  Cl  Cl459  1  0.75433633  0.05507190  0.61481278  1
  Cl  Cl460  1  0.75061147  0.38707485  0.61894632  1
  Cl  Cl461  1  0.75853519  0.72760604  0.60571368  1
  Cl  Cl462  1  0.24488421  0.28368768  0.12379821  1
  Cl  Cl463  1  0.24813991  0.61395191  0.12250195  1
  Cl  Cl464  1  0.24546626  0.94282493  0.10983314  1
  Cl  Cl465  1  0.75010073  0.27368534  0.10309254  1
  Cl  Cl466  1  0.75136398  0.61670851  0.12013348  1
  Cl  Cl467  1  0.74679458  0.94874862  0.12180815  1
  Cl  Cl468  1  0.24955660  0.05056397  0.87938263  1
  Cl  Cl469  1  0.26143874  0.39323710  0.89321374  1
  Cl  Cl470  1  0.24754568  0.71891387  0.88174989  1
  Cl  Cl471  1  0.74515363  0.05663743  0.88219081  1
  Cl  Cl472  1  0.75223506  0.38468510  0.88453659  1
  Cl  Cl473  1  0.75061951  0.71699966  0.87768617  1
  Cl  Cl474  1  0.25943196  0.27308382  0.39635123  1
  Cl  Cl475  1  0.23735769  0.61252840  0.38713530  1
  Cl  Cl476  1  0.25685239  0.94137944  0.39503749  1
  Cl  Cl477  1  0.75656913  0.27978080  0.37763889  1
  Cl  Cl478  1  0.74634770  0.61746841  0.38176105  1
  Cl  Cl479  1  0.75001353  0.95028693  0.38402139  1
  Cl  Cl480  1  -0.00398791  0.21934673  0.62775091  1
  Cl  Cl481  1  0.00647738  0.55878593  0.60392483  1
  Cl  Cl482  1  0.00078534  0.88409970  0.62044016  1
  Cl  Cl483  1  0.48967872  0.22734164  0.60665554  1
  Cl  Cl484  1  0.50916662  0.55215930  0.61680980  1
  Cl  Cl485  1  0.49273403  0.89082055  0.60527837  1
  Cl  Cl486  1  0.00008161  0.11559291  0.11441316  1
  Cl  Cl487  1  -0.00726267  0.44789660  0.12263505  1
  Cl  Cl488  1  -0.00219394  0.77809355  0.11776000  1
  Cl  Cl489  1  0.50219266  0.11370257  0.11689253  1
  Cl  Cl490  1  0.49253315  0.44276857  0.10297445  1
  Cl  Cl491  1  0.50108053  0.77632369  0.11567396  1
  Cl  Cl492  1  -0.00121262  0.22741243  0.89626243  1
  Cl  Cl493  1  -0.00173185  0.55180390  0.87497690  1
  Cl  Cl494  1  0.00485285  0.88843337  0.88947274  1
  Cl  Cl495  1  0.50542679  0.21547403  0.87969439  1
  Cl  Cl496  1  0.50089954  0.55046175  0.88077208  1
  Cl  Cl497  1  0.50367668  0.88418503  0.87793413  1
  Cl  Cl498  1  -0.00435546  0.11623517  0.37821222  1
  Cl  Cl499  1  0.00187102  0.44276574  0.39581856  1
  Cl  Cl500  1  -0.00909545  0.77459349  0.39526384  1
  Cl  Cl501  1  0.49799002  0.11527173  0.38417188  1
  Cl  Cl502  1  0.50209365  0.44846748  0.37447316  1
  Cl  Cl503  1  0.48853637  0.77509667  0.39211978  1
  Cl  Cl504  1  0.36400718  0.14486371  0.75120615  1
  Cl  Cl505  1  0.36116129  0.47676579  0.74931447  1
  Cl  Cl506  1  0.35814692  0.81011752  0.75116384  1
  Cl  Cl507  1  0.85853603  0.14357014  0.75229473  1
  Cl  Cl508  1  0.86106399  0.47640871  0.74791372  1
  Cl  Cl509  1  0.86531500  0.81091334  0.74608525  1
  Cl  Cl510  1  0.13770486  0.19020795  0.25273031  1
  Cl  Cl511  1  0.13461377  0.52180698  0.24988470  1
  Cl  Cl512  1  0.13969554  0.85696384  0.25462415  1
  Cl  Cl513  1  0.63724879  0.18853997  0.25206235  1
  Cl  Cl514  1  0.64003476  0.52264364  0.24800305  1
  Cl  Cl515  1  0.63548417  0.85475999  0.25406162  1
  Cl  Cl516  1  0.13874803  0.14546792  0.74964897  1
  Cl  Cl517  1  0.13860576  0.47714382  0.74991321  1
  Cl  Cl518  1  0.13654436  0.81033425  0.74571374  1
  Cl  Cl519  1  0.63631290  0.14480713  0.74796369  1
  Cl  Cl520  1  0.63726052  0.47627474  0.75265127  1
  Cl  Cl521  1  0.63819332  0.81144205  0.74753776  1
  Cl  Cl522  1  0.36193692  0.19012801  0.24701511  1
  Cl  Cl523  1  0.36126815  0.52120313  0.25329232  1
  Cl  Cl524  1  0.35907872  0.85768428  0.24835321  1
  Cl  Cl525  1  0.86249769  0.18839840  0.24624136  1
  Cl  Cl526  1  0.86110279  0.52226119  0.25356528  1
  Cl  Cl527  1  0.86237761  0.85578239  0.25108972  1
  Cl  Cl528  1  0.10958358  0.30994730  0.75159230  1
  Cl  Cl529  1  0.10844327  0.64412280  0.74467396  1
  Cl  Cl530  1  0.11417179  0.97795755  0.75287021  1
  Cl  Cl531  1  0.61296074  0.31026254  0.75202091  1
  Cl  Cl532  1  0.61365720  0.64619861  0.74835307  1
  Cl  Cl533  1  0.60851207  0.97661188  0.74726709  1
  Cl  Cl534  1  0.38719251  0.02202313  0.24668456  1
  Cl  Cl535  1  0.38811480  0.35512049  0.24826785  1
  Cl  Cl536  1  0.38552917  0.68822984  0.25229138  1
  Cl  Cl537  1  0.88567649  0.02242394  0.25017433  1
  Cl  Cl538  1  0.88645290  0.35456158  0.25039555  1
  Cl  Cl539  1  0.89004537  0.69046205  0.25486449  1
  Cl  Cl540  1  0.38853650  0.31137041  0.75042449  1
  Cl  Cl541  1  0.39011705  0.64507672  0.74883778  1
  Cl  Cl542  1  0.38696884  0.97752654  0.75165494  1
  Cl  Cl543  1  0.88663540  0.31056698  0.75152981  1
  Cl  Cl544  1  0.88810134  0.64408353  0.74649203  1
  Cl  Cl545  1  0.88691991  0.97755011  0.74673215  1
  Cl  Cl546  1  0.11103247  0.02167539  0.25360828  1
  Cl  Cl547  1  0.11244694  0.35564882  0.25092807  1
  Cl  Cl548  1  0.11161870  0.68902338  0.25295639  1
  Cl  Cl549  1  0.61217788  0.02260574  0.25525357  1
  Cl  Cl550  1  0.61390207  0.35551552  0.25084631  1
  Cl  Cl551  1  0.60929922  0.69082766  0.25012908  1
