# generated using pymatgen
data_H8PbC4(N3Cl2)2
_symmetry_space_group_name_H-M   'P 1'
_cell_length_a   16.62088714
_cell_length_b   22.49752097
_cell_length_c   21.58730713
_cell_angle_alpha   90.00007784
_cell_angle_beta   90.00655070
_cell_angle_gamma   89.99769296
_symmetry_Int_Tables_number   1
_chemical_formula_structural   H8PbC4(N3Cl2)2
_chemical_formula_sum   'H192 Pb24 C96 N144 Cl96'
_cell_volume   8072.11486183
_cell_formula_units_Z   24
loop_
 _symmetry_equiv_pos_site_id
 _symmetry_equiv_pos_as_xyz
  1  'x, y, z'
loop_
 _atom_site_type_symbol
 _atom_site_label
 _atom_site_symmetry_multiplicity
 _atom_site_fract_x
 _atom_site_fract_y
 _atom_site_fract_z
 _atom_site_occupancy
  H  H0  1  0.00435750  0.03372172  0.68278799  1
  H  H1  1  0.00362588  0.36583793  0.67931286  1
  H  H2  1  0.00370021  0.70096018  0.67981693  1
  H  H3  1  0.50260992  0.03285109  0.68330311  1
  H  H4  1  0.50157446  0.36661661  0.68062418  1
  H  H5  1  0.49976225  0.69945099  0.68262464  1
  H  H6  1  -0.00504618  0.29781500  0.17989257  1
  H  H7  1  -0.00267856  0.63432778  0.18239656  1
  H  H8  1  -0.00044832  0.96618231  0.17808828  1
  H  H9  1  0.49828544  0.30005443  0.18073211  1
  H  H10  1  0.49903676  0.63302125  0.18134087  1
  H  H11  1  0.49916194  0.96669234  0.18247263  1
  H  H12  1  0.00227689  0.03265137  0.82112814  1
  H  H13  1  0.00083714  0.36494063  0.81817056  1
  H  H14  1  -0.00052503  0.69962698  0.81736143  1
  H  H15  1  0.49914307  0.03358832  0.81671302  1
  H  H16  1  0.49634109  0.36726180  0.81858297  1
  H  H17  1  0.50099867  0.69926411  0.81873087  1
  H  H18  1  0.00136690  0.30004234  0.31964347  1
  H  H19  1  -0.00243281  0.63338981  0.31786521  1
  H  H20  1  0.00185978  0.96636620  0.31655135  1
  H  H21  1  0.49973902  0.30013884  0.31785244  1
  H  H22  1  0.49893607  0.63361753  0.32028988  1
  H  H23  1  0.49973466  0.96687508  0.31743704  1
  H  H24  1  0.24626874  0.20056144  0.68269881  1
  H  H25  1  0.25290818  0.53165587  0.68216701  1
  H  H26  1  0.24392066  0.86622239  0.68365230  1
  H  H27  1  0.75312129  0.20001502  0.68028693  1
  H  H28  1  0.75635317  0.53351095  0.68123169  1
  H  H29  1  0.74729851  0.86586460  0.68234152  1
  H  H30  1  0.25416540  0.13382838  0.18086282  1
  H  H31  1  0.24720207  0.46722229  0.18268688  1
  H  H32  1  0.24915784  0.80047896  0.17956349  1
  H  H33  1  0.74460150  0.13346213  0.17990115  1
  H  H34  1  0.75336867  0.46725635  0.18019619  1
  H  H35  1  0.75405154  0.79994924  0.18401954  1
  H  H36  1  0.25146885  0.20002417  0.81799313  1
  H  H37  1  0.25276824  0.53350338  0.82039506  1
  H  H38  1  0.25370809  0.86667097  0.82001396  1
  H  H39  1  0.75335127  0.20093128  0.82021331  1
  H  H40  1  0.74912766  0.53272002  0.81668002  1
  H  H41  1  0.74504724  0.86615873  0.81752888  1
  H  H42  1  0.24565842  0.13448132  0.31643638  1
  H  H43  1  0.24988793  0.46754797  0.31987861  1
  H  H44  1  0.24481107  0.80034622  0.31639395  1
  H  H45  1  0.74806184  0.13420404  0.31781666  1
  H  H46  1  0.74668418  0.46576320  0.32037419  1
  H  H47  1  0.75084728  0.80129748  0.31956367  1
  H  H48  1  0.12088022  0.05638970  0.60384427  1
  H  H49  1  0.12048162  0.38882163  0.60257344  1
  H  H50  1  0.11876867  0.72467670  0.60181669  1
  H  H51  1  0.62109184  0.05461255  0.60861903  1
  H  H52  1  0.61919161  0.38912697  0.60306263  1
  H  H53  1  0.62464410  0.71981296  0.61348780  1
  H  H54  1  0.37788791  0.27773406  0.10456515  1
  H  H55  1  0.37414832  0.61305756  0.11026508  1
  H  H56  1  0.37464262  0.94647797  0.11148547  1
  H  H57  1  0.87664033  0.27865133  0.10477561  1
  H  H58  1  0.87639723  0.61240057  0.10867697  1
  H  H59  1  0.87653519  0.94606734  0.10816897  1
  H  H60  1  0.37496994  0.05315581  0.88703121  1
  H  H61  1  0.38175557  0.38829534  0.89541304  1
  H  H62  1  0.37261950  0.71950505  0.88728556  1
  H  H63  1  0.87297317  0.05406359  0.88890503  1
  H  H64  1  0.87481441  0.38500538  0.88727720  1
  H  H65  1  0.87679435  0.72105584  0.89199038  1
  H  H66  1  0.12450678  0.27997607  0.39221862  1
  H  H67  1  0.12911165  0.61355688  0.38118547  1
  H  H68  1  0.12147538  0.94583249  0.39071193  1
  H  H69  1  0.62601239  0.28052972  0.38584814  1
  H  H70  1  0.62668574  0.61326655  0.38920240  1
  H  H71  1  0.62419940  0.94560608  0.38962116  1
  H  H72  1  0.37424723  0.22129827  0.61278414  1
  H  H73  1  0.37229324  0.55449388  0.60517168  1
  H  H74  1  0.37747862  0.88586232  0.61955470  1
  H  H75  1  0.87203126  0.22226372  0.60339123  1
  H  H76  1  0.86798194  0.55725366  0.59852515  1
  H  H77  1  0.87549904  0.88620595  0.61244109  1
  H  H78  1  0.12230678  0.11383054  0.11704090  1
  H  H79  1  0.12480691  0.44477212  0.11053462  1
  H  H80  1  0.12671118  0.77985169  0.10618804  1
  H  H81  1  0.63293963  0.10999706  0.09843671  1
  H  H82  1  0.62121969  0.44768002  0.11693119  1
  H  H83  1  0.62656740  0.77907256  0.11402328  1
  H  H84  1  0.12428516  0.21952309  0.88741167  1
  H  H85  1  0.12467217  0.55432946  0.88816462  1
  H  H86  1  0.12165736  0.88632790  0.88334200  1
  H  H87  1  0.62564366  0.22059971  0.88549504  1
  H  H88  1  0.62540511  0.55320989  0.89031734  1
  H  H89  1  0.62877429  0.88859537  0.89573721  1
  H  H90  1  0.37810654  0.11403053  0.38145495  1
  H  H91  1  0.37522531  0.44634683  0.39128650  1
  H  H92  1  0.37798326  0.78011631  0.38077910  1
  H  H93  1  0.87805768  0.11600345  0.38331078  1
  H  H94  1  0.87959561  0.44849639  0.38367514  1
  H  H95  1  0.87828771  0.77995261  0.38688801  1
  H  H96  1  0.37645540  0.28133592  0.38914680  1
  H  H97  1  0.37779984  0.61086677  0.39308015  1
  H  H98  1  0.37486273  0.94600232  0.38846109  1
  H  H99  1  0.87521393  0.27937398  0.39000692  1
  H  H100  1  0.87974085  0.61060216  0.39527136  1
  H  H101  1  0.87199293  0.94779554  0.38130585  1
  H  H102  1  0.12099359  0.05421397  0.89850320  1
  H  H103  1  0.12500917  0.38894744  0.89022824  1
  H  H104  1  0.12528726  0.72119585  0.88874973  1
  H  H105  1  0.62497627  0.05409395  0.88494555  1
  H  H106  1  0.63002089  0.38446039  0.88052430  1
  H  H107  1  0.62211888  0.72079911  0.89206410  1
  H  H108  1  0.12514543  0.28022916  0.11580358  1
  H  H109  1  0.12543911  0.61404992  0.11394919  1
  H  H110  1  0.12507363  0.94674164  0.11012312  1
  H  H111  1  0.62691872  0.28098767  0.11325956  1
  H  H112  1  0.62366621  0.61289666  0.11292847  1
  H  H113  1  0.62525228  0.94653879  0.11136641  1
  H  H114  1  0.37202999  0.05234750  0.61971811  1
  H  H115  1  0.37002711  0.38677525  0.61636105  1
  H  H116  1  0.37529758  0.71943692  0.61271785  1
  H  H117  1  0.87309139  0.05306236  0.61733478  1
  H  H118  1  0.87205895  0.38536402  0.61422243  1
  H  H119  1  0.87078587  0.71756089  0.61626910  1
  H  H120  1  0.12954527  0.11291322  0.39424313  1
  H  H121  1  0.12654829  0.44480444  0.39098211  1
  H  H122  1  0.12962032  0.77755971  0.39472602  1
  H  H123  1  0.62881249  0.11055407  0.39336682  1
  H  H124  1  0.63173296  0.44191214  0.39887764  1
  H  H125  1  0.62974296  0.77765632  0.39353033  1
  H  H126  1  0.37367516  0.22184235  0.89213740  1
  H  H127  1  0.37372578  0.55558164  0.89381413  1
  H  H128  1  0.37041718  0.88997767  0.89809654  1
  H  H129  1  0.87488291  0.22089028  0.89401626  1
  H  H130  1  0.87397722  0.55430000  0.88920625  1
  H  H131  1  0.87761315  0.88609194  0.88275212  1
  H  H132  1  0.37113783  0.11133962  0.10289097  1
  H  H133  1  0.37490065  0.44630953  0.11371759  1
  H  H134  1  0.37598725  0.77783761  0.11210277  1
  H  H135  1  0.88028678  0.11600120  0.12089794  1
  H  H136  1  0.86968384  0.44254747  0.10234323  1
  H  H137  1  0.87574288  0.78052300  0.11009741  1
  H  H138  1  0.12550377  0.22220224  0.60603025  1
  H  H139  1  0.12392010  0.55249936  0.61208285  1
  H  H140  1  0.12902247  0.88844623  0.60504545  1
  H  H141  1  0.62330572  0.22119759  0.61478775  1
  H  H142  1  0.62132227  0.55141884  0.62048476  1
  H  H143  1  0.62706599  0.88867477  0.60580479  1
  H  H144  1  0.57971527  0.58292886  0.00064834  1
  H  H145  1  0.58303061  0.58503263  0.49488007  1
  H  H146  1  0.57645412  0.92188987  0.00465760  1
  H  H147  1  0.19195626  0.91451204  0.49753191  1
  H  H148  1  0.06887365  0.92072679  0.50151276  1
  H  H149  1  0.30744318  0.08793490  -0.00210377  1
  H  H150  1  0.41257847  0.74542840  0.99317887  1
  H  H151  1  0.30647341  0.91629694  1.00232933  1
  H  H152  1  0.90641539  0.92037955  0.49363708  1
  H  H153  1  0.66201703  0.25014234  0.99881634  1
  H  H154  1  0.93927065  0.58596097  0.49942631  1
  H  H155  1  0.17816432  0.42282556  -0.00238894  1
  H  H156  1  0.58084184  0.08083263  0.99813194  1
  H  H157  1  0.05318523  0.74106534  0.49769853  1
  H  H158  1  0.17871793  0.75076057  0.00225547  1
  H  H159  1  0.32824466  0.42507068  0.00582124  1
  H  H160  1  0.42248918  0.08028041  0.99960969  1
  H  H161  1  0.19202135  0.75140586  0.50214583  1
  H  H162  1  0.93037127  0.58595467  -0.00019698  1
  H  H163  1  0.90349173  0.75070158  0.51079665  1
  H  H164  1  0.42107200  0.25233273  0.49910057  1
  H  H165  1  0.92130253  0.40807755  1.00077451  1
  H  H166  1  0.69276428  0.91294338  1.00439325  1
  H  H167  1  0.69800666  0.42685497  0.50316400  1
  H  H168  1  0.07084401  0.40205403  0.99851898  1
  H  H169  1  0.41834368  0.74746825  0.50196053  1
  H  H170  1  0.91358252  0.08171208  0.99505032  1
  H  H171  1  0.16785682  0.58410544  0.99398175  1
  H  H172  1  0.42345260  0.91852929  0.49789716  1
  H  H173  1  0.44275885  0.41312202  1.00685014  1
  H  H174  1  0.79650057  0.58185729  0.49733829  1
  H  H175  1  0.16719937  0.24748231  0.99704080  1
  H  H176  1  0.84551287  0.41300470  0.48836982  1
  H  H177  1  0.68641656  0.08954107  0.49893399  1
  H  H178  1  0.56649818  0.07858034  0.49740900  1
  H  H179  1  0.58765662  0.25209037  0.49727974  1
  H  H180  1  0.58226279  0.74860597  0.50273921  1
  H  H181  1  0.40540405  0.08045598  0.50711694  1
  H  H182  1  0.05545464  0.08496195  0.50146034  1
  H  H183  1  0.84174504  0.08710711  0.49493604  1
  H  H184  1  0.70154417  0.08679942  -0.00452975  1
  H  H185  1  0.55696384  0.41426607  0.49863888  1
  H  H186  1  0.82303741  0.75287825  0.00147792  1
  H  H187  1  0.42311140  0.92192991  -0.00080362  1
  H  H188  1  0.80569325  0.41745835  -0.00196092  1
  H  H189  1  0.19095119  0.08758118  0.50239183  1
  H  H190  1  0.09488230  0.58340285  0.49294811  1
  H  H191  1  0.57219094  0.74666210  1.00185385  1
  Pb  Pb192  1  0.24639130  0.04723935  0.75210424  1
  Pb  Pb193  1  0.24943368  0.38133238  0.75491397  1
  Pb  Pb194  1  0.24959277  0.71598030  0.74987476  1
  Pb  Pb195  1  0.75126214  0.05055382  0.74923094  1
  Pb  Pb196  1  0.75083119  0.38002808  0.74619660  1
  Pb  Pb197  1  0.74983276  0.71346152  0.75283266  1
  Pb  Pb198  1  0.25112062  0.28605604  0.24957500  1
  Pb  Pb199  1  0.25063839  0.61862505  0.24728954  1
  Pb  Pb200  1  0.25084931  0.95115930  0.24920439  1
  Pb  Pb201  1  0.75044060  0.28483233  0.24879549  1
  Pb  Pb202  1  0.75204675  0.61774294  0.25314680  1
  Pb  Pb203  1  0.74959262  0.95320059  0.24754485  1
  Pb  Pb204  1  0.00316919  0.21510883  0.74812591  1
  Pb  Pb205  1  0.00015243  0.54794874  0.74663315  1
  Pb  Pb206  1  -0.00193726  0.88045184  0.74613874  1
  Pb  Pb207  1  0.49768263  0.21451380  0.74991584  1
  Pb  Pb208  1  0.49828729  0.54713246  0.74911511  1
  Pb  Pb209  1  0.50229308  0.88225695  0.75399903  1
  Pb  Pb210  1  0.00247432  0.11925693  0.25357393  1
  Pb  Pb211  1  0.00050949  0.45026358  0.24490715  1
  Pb  Pb212  1  0.00014864  0.78524460  0.25386698  1
  Pb  Pb213  1  0.50018990  0.11888763  0.24678597  1
  Pb  Pb214  1  0.50040313  0.45176383  0.25455959  1
  Pb  Pb215  1  0.50324558  0.78436839  0.24945817  1
  C  C216  1  -0.00038611  0.04773582  0.63481919  1
  C  C217  1  -0.00172011  0.38011665  0.63175028  1
  C  C218  1  -0.00234806  0.71408124  0.63153028  1
  C  C219  1  0.49831432  0.04686524  0.63528351  1
  C  C220  1  0.49724551  0.38056536  0.63280869  1
  C  C221  1  0.49985177  0.71345212  0.63448165  1
  C  C222  1  -0.00096968  0.28527960  0.13158711  1
  C  C223  1  -0.00007971  0.61972826  0.13461301  1
  C  C224  1  0.00041398  0.95251544  0.13002801  1
  C  C225  1  0.50082965  0.28596270  0.13290867  1
  C  C226  1  0.49944639  0.61933673  0.13325757  1
  C  C227  1  0.50017160  0.95250009  0.13431191  1
  C  C228  1  -0.00162897  0.04694979  0.86903236  1
  C  C229  1  0.00101036  0.37926860  0.86630408  1
  C  C230  1  0.00044575  0.71374572  0.86536216  1
  C  C231  1  0.49969487  0.04735096  0.86493922  1
  C  C232  1  0.50253308  0.38023108  0.86664059  1
  C  C233  1  0.49815146  0.71383737  0.86672295  1
  C  C234  1  0.00018074  0.28602992  0.36748074  1
  C  C235  1  0.00183741  0.61934962  0.36590660  1
  C  C236  1  -0.00176940  0.95272371  0.36473494  1
  C  C237  1  0.50071129  0.28636408  0.36608900  1
  C  C238  1  0.50159998  0.61911756  0.36805639  1
  C  C239  1  0.49958925  0.95247544  0.36531598  1
  C  C240  1  0.24866901  0.21437282  0.63458940  1
  C  C241  1  0.24938637  0.54609692  0.63432094  1
  C  C242  1  0.25044328  0.88045181  0.63592513  1
  C  C243  1  0.74963160  0.21443237  0.63264506  1
  C  C244  1  0.74890314  0.54722592  0.63341581  1
  C  C245  1  0.74999866  0.88001364  0.63436732  1
  C  C246  1  0.24960573  0.11990143  0.13305319  1
  C  C247  1  0.24943413  0.45325123  0.13448387  1
  C  C248  1  0.25022894  0.78577246  0.13178819  1
  C  C249  1  0.75225067  0.11991395  0.13201937  1
  C  C250  1  0.74845184  0.45309293  0.13243304  1
  C  C251  1  0.75187231  0.78626029  0.13592149  1
  C  C252  1  0.24989014  0.21417783  0.86592334  1
  C  C253  1  0.24991855  0.54787017  0.86819957  1
  C  C254  1  0.24900574  0.88073631  0.86781060  1
  C  C255  1  0.75066920  0.21443461  0.86830406  1
  C  C256  1  0.74960789  0.54686266  0.86470057  1
  C  C257  1  0.75056545  0.88062217  0.86525654  1
  C  C258  1  0.25143925  0.12013007  0.36419855  1
  C  C259  1  0.25089872  0.45280154  0.36747699  1
  C  C260  1  0.25115908  0.78611646  0.36416049  1
  C  C261  1  0.75141330  0.12025491  0.36595570  1
  C  C262  1  0.75282823  0.45232103  0.36855347  1
  C  C263  1  0.75287499  0.78635830  0.36704531  1
  C  C264  1  0.19733211  0.09361392  0.04221562  1
  C  C265  1  0.05215835  0.59383031  0.45635233  1
  C  C266  1  0.79998794  0.09566317  0.45729036  1
  C  C267  1  0.54448150  0.26170437  0.04059127  1
  C  C268  1  0.69530822  0.42656783  0.04185558  1
  C  C269  1  0.78557947  0.76239109  0.04158574  1
  C  C270  1  0.04739603  0.26253824  0.04003054  1
  C  C271  1  0.22479886  0.90501292  0.54008771  1
  C  C272  1  0.46256614  0.92836135  0.45880416  1
  C  C273  1  0.20959961  0.23782556  0.95877728  1
  C  C274  1  0.81056312  0.09555432  0.04269460  1
  C  C275  1  0.96743217  0.59511250  0.04021338  1
  C  C276  1  0.79553411  0.76040336  0.45935571  1
  C  C277  1  0.45990430  0.07059496  0.95950895  1
  C  C278  1  0.44910407  0.07043525  0.54322041  1
  C  C279  1  0.22421755  0.09603886  0.45979959  1
  C  C280  1  0.45908771  0.73777562  0.54011192  1
  C  C281  1  0.45969981  0.92887615  0.04040858  1
  C  C282  1  0.21150895  0.42723682  0.04067841  1
  C  C283  1  0.95783982  0.40405207  0.95906276  1
  C  C284  1  0.02709658  0.40699770  0.53685637  1
  C  C285  1  0.28768062  0.57558966  0.96289482  1
  C  C286  1  0.53459001  0.73784888  0.96169161  1
  C  C287  1  0.96169421  0.92765523  0.03708034  1
  C  C288  1  0.19618486  0.90740580  0.95839526  1
  C  C289  1  0.03576146  0.26041577  0.46094661  1
  C  C290  1  0.96637710  0.26186571  0.03618443  1
  C  C291  1  0.54412986  0.26174809  0.45988157  1
  C  C292  1  0.78750202  0.23928936  0.96309586  1
  C  C293  1  0.44583536  0.40665799  0.54166394  1
  C  C294  1  0.46172790  0.26207930  0.46094412  1
  C  C295  1  0.45810924  0.59425927  0.03972122  1
  C  C296  1  0.95018382  0.92976842  0.45735165  1
  C  C297  1  0.04245880  0.92798713  0.03773890  1
  C  C298  1  0.53975984  0.59378386  0.03883392  1
  C  C299  1  0.29593990  0.75811496  0.03932074  1
  C  C300  1  0.72435429  0.90473833  0.96109853  1
  C  C301  1  0.70567923  0.23968119  0.96171325  1
  C  C302  1  0.70471827  0.24097060  0.54140449  1
  C  C303  1  0.22516811  0.76136047  0.45984389  1
  C  C304  1  0.47534349  0.40398069  0.96423739  1
  C  C305  1  0.55644129  0.40259299  0.95721453  1
  C  C306  1  0.21426300  0.42514854  0.46025230  1
  C  C307  1  0.46351746  0.59184310  0.46270549  1
  C  C308  1  0.53109249  0.07040782  0.53894774  1
  C  C309  1  0.54131363  0.73839589  0.54053482  1
  C  C310  1  0.54206168  0.07081862  0.95885254  1
  C  C311  1  0.03221446  0.92943316  0.46088014  1
  N  N312  1  0.54188648  0.92825316  0.45969200  1
  N  N313  1  0.71757606  0.75891440  0.46264241  1
  N  N314  1  0.80333778  0.90474252  0.95640388  1
  N  N315  1  0.94953630  0.40581150  0.53940424  1
  N  N316  1  0.21510460  0.23888797  0.53921979  1
  N  N317  1  0.97264511  0.59304908  0.46015322  1
  N  N318  1  0.02476871  0.74677487  0.53951537  1
  N  N319  1  0.30384640  0.90421772  0.54480710  1
  N  N320  1  0.03349154  0.07153410  0.96412574  1
  N  N321  1  0.95839828  0.25988169  0.46142534  1
  N  N322  1  0.27501104  0.90777445  0.96247588  1
  N  N323  1  0.46697369  0.26063637  0.03649857  1
  N  N324  1  0.72522280  0.42054765  0.46092332  1
  N  N325  1  0.71162680  0.57093306  0.95918337  1
  N  N326  1  0.28216007  0.57261755  0.53923788  1
  N  N327  1  0.71700089  0.90615276  0.53922298  1
  N  N328  1  0.52453828  0.40637707  0.53813517  1
  N  N329  1  0.27606685  0.09374064  0.03822882  1
  N  N330  1  0.04696563  0.59478698  0.04161560  1
  N  N331  1  0.54252346  0.59362579  0.46015053  1
  N  N332  1  0.69110779  0.56971094  0.54449054  1
  N  N333  1  0.95543383  0.07147811  0.95963976  1
  N  N334  1  0.96426113  0.73919190  0.95989859  1
  N  N335  1  0.94765763  0.07033634  0.54382748  1
  N  N336  1  0.20865437  0.57414084  0.95993645  1
  N  N337  1  0.80365660  0.43134397  0.45829724  1
  N  N338  1  0.03772312  0.40747124  0.95888998  1
  N  N339  1  0.28893703  0.23839636  0.96122409  1
  N  N340  1  0.72041991  0.09231337  0.45949409  1
  N  N341  1  0.04118221  0.73966822  0.95864440  1
  N  N342  1  0.29156632  0.23860621  0.54138292  1
  N  N343  1  0.78848504  0.57123278  0.95894978  1
  N  N344  1  0.70615374  0.76202979  0.04249032  1
  N  N345  1  0.53920699  0.92750010  0.04183869  1
  N  N346  1  0.30325555  0.09563070  0.45555489  1
  N  N347  1  0.73169677  0.09377726  0.03617802  1
  N  N348  1  0.77410637  0.42557416  0.03790250  1
  N  N349  1  0.45487523  0.73775400  0.95862053  1
  N  N350  1  0.94683139  0.73334193  0.54144316  1
  N  N351  1  0.21660503  0.75939458  0.03841671  1
  N  N352  1  0.30424127  0.76196218  0.45522383  1
  N  N353  1  0.29167606  0.42575189  0.46170335  1
  N  N354  1  0.20597734  0.57175992  0.54151904  1
  N  N355  1  0.76885561  0.57235947  0.53868027  1
  N  N356  1  0.02552796  0.07066686  0.54015833  1
  N  N357  1  0.78219195  0.24126653  0.53641752  1
  N  N358  1  0.79323158  0.90556522  0.54152123  1
  N  N359  1  0.29102824  0.42586411  0.04341899  1
  N  N360  1  0.05890926  0.05843695  0.59557609  1
  N  N361  1  0.05942252  0.39159560  0.59222753  1
  N  N362  1  0.05706121  0.72287000  0.59160222  1
  N  N363  1  0.56038140  0.05593248  0.59677659  1
  N  N364  1  0.55750328  0.38953949  0.59395845  1
  N  N365  1  0.56501417  0.72330152  0.59944086  1
  N  N366  1  0.43961109  0.27582078  0.09546281  1
  N  N367  1  0.43418795  0.60957488  0.09676708  1
  N  N368  1  0.43503543  0.94347290  0.09806118  1
  N  N369  1  0.93716949  0.27571422  0.09241647  1
  N  N370  1  0.93721029  0.60977086  0.09695857  1
  N  N371  1  0.93574934  0.94245112  0.09331954  1
  N  N372  1  0.43480093  0.05599520  0.90079891  1
  N  N373  1  0.44244351  0.39003304  0.90656552  1
  N  N374  1  0.43284720  0.72296683  0.90021133  1
  N  N375  1  0.93284699  0.05654971  0.90206223  1
  N  N376  1  0.93491514  0.38885458  0.90136925  1
  N  N377  1  0.93801049  0.72312807  0.90221168  1
  N  N378  1  0.06433042  0.27614108  0.40437694  1
  N  N379  1  0.07045890  0.60964163  0.39771180  1
  N  N380  1  0.06080798  0.94354600  0.40276568  1
  N  N381  1  0.56651679  0.27679005  0.40039056  1
  N  N382  1  0.56673260  0.61037908  0.40178338  1
  N  N383  1  0.56312973  0.94294900  0.40103896  1
  N  N384  1  0.31365167  0.22325524  0.60037922  1
  N  N385  1  0.31066643  0.55693394  0.59655638  1
  N  N386  1  0.31795148  0.88896490  0.60469495  1
  N  N387  1  0.81037052  0.22463874  0.59466941  1
  N  N388  1  0.80570434  0.55741711  0.59203084  1
  N  N389  1  0.81514031  0.88938821  0.60043920  1
  N  N390  1  0.18084880  0.10951013  0.10085154  1
  N  N391  1  0.18505536  0.44270738  0.09762939  1
  N  N392  1  0.18776847  0.77684602  0.09532206  1
  N  N393  1  0.69485735  0.11026211  0.09096724  1
  N  N394  1  0.67934214  0.44329289  0.10039204  1
  N  N395  1  0.68704347  0.77674944  0.10165738  1
  N  N396  1  0.18424215  0.22314523  0.90062220  1
  N  N397  1  0.18460921  0.55734510  0.90146906  1
  N  N398  1  0.18004196  0.89074204  0.89992778  1
  N  N399  1  0.68429091  0.22399343  0.90148751  1
  N  N400  1  0.68646864  0.55567601  0.90107379  1
  N  N401  1  0.69007176  0.89056972  0.90522838  1
  N  N402  1  0.31854004  0.11085404  0.39570509  1
  N  N403  1  0.31474558  0.44328013  0.40250799  1
  N  N404  1  0.31853690  0.77734957  0.39547358  1
  N  N405  1  0.81941082  0.11151299  0.39890855  1
  N  N406  1  0.82069619  0.44222472  0.39872239  1
  N  N407  1  0.81919537  0.77655115  0.40128474  1
  N  N408  1  0.43639142  0.27733424  0.40230750  1
  N  N409  1  0.43796788  0.60768338  0.40585197  1
  N  N410  1  0.43496378  0.94305347  0.40111655  1
  N  N411  1  0.93590547  0.27595051  0.40199305  1
  N  N412  1  0.94160106  0.61031385  0.40471188  1
  N  N413  1  0.93071129  0.94409279  0.39739173  1
  N  N414  1  0.05975797  0.05632064  0.90767059  1
  N  N415  1  0.06419796  0.38760286  0.90239791  1
  N  N416  1  0.06456088  0.72388864  0.90023246  1
  N  N417  1  0.56545875  0.05635739  0.89974104  1
  N  N418  1  0.57215846  0.38835945  0.89818052  1
  N  N419  1  0.56172670  0.72347436  0.90439515  1
  N  N420  1  0.06693725  0.27662269  0.09850193  1
  N  N421  1  0.06517926  0.61022798  0.10109102  1
  N  N422  1  0.06620138  0.94305308  0.09453031  1
  N  N423  1  0.56760562  0.27690827  0.09888162  1
  N  N424  1  0.56432831  0.60967314  0.09826214  1
  N  N425  1  0.56425435  0.94303649  0.09943566  1
  N  N426  1  0.43029114  0.05584907  0.60320271  1
  N  N427  1  0.42862183  0.39078123  0.60020204  1
  N  N428  1  0.43479541  0.72234891  0.59888907  1
  N  N429  1  0.93223463  0.05517713  0.60263878  1
  N  N430  1  0.93148527  0.38907764  0.60019850  1
  N  N431  1  0.92978342  0.72332884  0.60110051  1
  N  N432  1  0.19097574  0.11042434  0.40398024  1
  N  N433  1  0.18647053  0.44155865  0.40366837  1
  N  N434  1  0.19111887  0.77610520  0.40428346  1
  N  N435  1  0.69043781  0.11030200  0.40377708  1
  N  N436  1  0.69345519  0.44387213  0.40850806  1
  N  N437  1  0.69113013  0.77556477  0.40370171  1
  N  N438  1  0.31232884  0.22389820  0.90274793  1
  N  N439  1  0.31353261  0.55895186  0.90622725  1
  N  N440  1  0.30892064  0.89047950  0.90685147  1
  N  N441  1  0.81436328  0.22417126  0.90671185  1
  N  N442  1  0.81306900  0.55667736  0.90033738  1
  N  N443  1  0.81775753  0.88980970  0.89691025  1
  N  N444  1  0.30970774  0.11108554  0.09394970  1
  N  N445  1  0.31432769  0.44515531  0.10029331  1
  N  N446  1  0.31670041  0.77447723  0.09717714  1
  N  N447  1  0.82295137  0.11131771  0.10224290  1
  N  N448  1  0.80819707  0.44319215  0.09334555  1
  N  N449  1  0.81512410  0.77720737  0.09851313  1
  N  N450  1  0.18710738  0.22421372  0.59688886  1
  N  N451  1  0.18424451  0.55527032  0.60044930  1
  N  N452  1  0.19046881  0.89079587  0.59571563  1
  N  N453  1  0.68224638  0.22470459  0.59960460  1
  N  N454  1  0.67950120  0.55526902  0.60396608  1
  N  N455  1  0.68860568  0.89039864  0.59664305  1
  Cl  Cl456  1  0.24073102  0.05333149  0.61745515  1
  Cl  Cl457  1  0.24526497  0.38520299  0.62410801  1
  Cl  Cl458  1  0.24079300  0.72222476  0.61651065  1
  Cl  Cl459  1  0.74648596  0.05837696  0.61201973  1
  Cl  Cl460  1  0.74270907  0.39219849  0.60480636  1
  Cl  Cl461  1  0.75038703  0.71558858  0.62047929  1
  Cl  Cl462  1  0.25267893  0.28114832  0.11584500  1
  Cl  Cl463  1  0.24932966  0.61450672  0.11098263  1
  Cl  Cl464  1  0.25495092  0.94613567  0.11071286  1
  Cl  Cl465  1  0.75030371  0.28262933  0.11542615  1
  Cl  Cl466  1  0.75240821  0.61450960  0.12494411  1
  Cl  Cl467  1  0.74608308  0.94969449  0.11205579  1
  Cl  Cl468  1  0.24892831  0.05347196  0.88987650  1
  Cl  Cl469  1  0.25027944  0.39241366  0.89275286  1
  Cl  Cl470  1  0.24847721  0.72070336  0.89008419  1
  Cl  Cl471  1  0.74880937  0.05706914  0.88832536  1
  Cl  Cl472  1  0.75638829  0.38694626  0.88379418  1
  Cl  Cl473  1  0.75193834  0.72089176  0.88580154  1
  Cl  Cl474  1  0.24906287  0.28415520  0.37753684  1
  Cl  Cl475  1  0.25334667  0.61627693  0.37563774  1
  Cl  Cl476  1  0.24627280  0.94692571  0.38171327  1
  Cl  Cl477  1  0.75070023  0.28367866  0.37927176  1
  Cl  Cl478  1  0.75648084  0.60893328  0.39489828  1
  Cl  Cl479  1  0.74717128  0.95110608  0.37716824  1
  Cl  Cl480  1  0.00071500  0.21825539  0.61534480  1
  Cl  Cl481  1  -0.00802175  0.55844978  0.60310134  1
  Cl  Cl482  1  0.00262522  0.88578508  0.61064946  1
  Cl  Cl483  1  0.49853248  0.22216824  0.61578500  1
  Cl  Cl484  1  0.49660031  0.55229598  0.61253058  1
  Cl  Cl485  1  0.50299796  0.88737198  0.62153280  1
  Cl  Cl486  1  0.00041104  0.11490829  0.12131839  1
  Cl  Cl487  1  -0.00288678  0.44137963  0.10652268  1
  Cl  Cl488  1  0.00272925  0.78301806  0.12273506  1
  Cl  Cl489  1  0.50252770  0.11061227  0.11087764  1
  Cl  Cl490  1  0.49563402  0.44773946  0.12096056  1
  Cl  Cl491  1  0.49986314  0.77930212  0.11260133  1
  Cl  Cl492  1  -0.00086856  0.21822200  0.88052798  1
  Cl  Cl493  1  -0.00199662  0.55101288  0.88091260  1
  Cl  Cl494  1  0.00012900  0.88480744  0.87627079  1
  Cl  Cl495  1  0.49775468  0.21835030  0.87735827  1
  Cl  Cl496  1  0.50111242  0.55291946  0.88146590  1
  Cl  Cl497  1  0.49973037  0.88937684  0.89513170  1
  Cl  Cl498  1  0.00706693  0.11194370  0.39045201  1
  Cl  Cl499  1  0.00169562  0.45056349  0.37725170  1
  Cl  Cl500  1  0.00533284  0.77376749  0.39623557  1
  Cl  Cl501  1  0.50633110  0.11182439  0.38147512  1
  Cl  Cl502  1  0.50958274  0.44448443  0.39454950  1
  Cl  Cl503  1  0.50487298  0.77782615  0.38221578  1
  Cl  Cl504  1  0.36435581  0.14218837  0.75067326  1
  Cl  Cl505  1  0.36251895  0.47615389  0.75117355  1
  Cl  Cl506  1  0.36141158  0.80778540  0.75021720  1
  Cl  Cl507  1  0.86031229  0.14126960  0.74936649  1
  Cl  Cl508  1  0.86112608  0.47504429  0.74905084  1
  Cl  Cl509  1  0.86382517  0.80931912  0.74923766  1
  Cl  Cl510  1  0.13775465  0.19035909  0.24692976  1
  Cl  Cl511  1  0.13793846  0.52490051  0.24834281  1
  Cl  Cl512  1  0.13949507  0.85761494  0.25028645  1
  Cl  Cl513  1  0.63939832  0.19116177  0.25044407  1
  Cl  Cl514  1  0.63910014  0.52404343  0.25099532  1
  Cl  Cl515  1  0.63644839  0.85751168  0.24795298  1
  Cl  Cl516  1  0.13694849  0.14219946  0.75032823  1
  Cl  Cl517  1  0.13572831  0.47633805  0.75309397  1
  Cl  Cl518  1  0.13825872  0.80902365  0.75163703  1
  Cl  Cl519  1  0.63620215  0.14186387  0.75005640  1
  Cl  Cl520  1  0.63700815  0.47615661  0.74708798  1
  Cl  Cl521  1  0.63615933  0.80906053  0.75078332  1
  Cl  Cl522  1  0.36327070  0.19091164  0.25191493  1
  Cl  Cl523  1  0.36282607  0.52414029  0.24912342  1
  Cl  Cl524  1  0.36211782  0.85791489  0.24826596  1
  Cl  Cl525  1  0.86251544  0.19042513  0.24981402  1
  Cl  Cl526  1  0.86194000  0.52458913  0.25326780  1
  Cl  Cl527  1  0.86352332  0.85719492  0.25243593  1
  Cl  Cl528  1  0.11115680  0.30918876  0.75122564  1
  Cl  Cl529  1  0.11000290  0.64157073  0.74957783  1
  Cl  Cl530  1  0.11248774  0.97682251  0.75071602  1
  Cl  Cl531  1  0.61321507  0.30964172  0.75108226  1
  Cl  Cl532  1  0.61183067  0.64266719  0.74859698  1
  Cl  Cl533  1  0.60967955  0.97516811  0.75216385  1
  Cl  Cl534  1  0.38823435  0.02466702  0.24928643  1
  Cl  Cl535  1  0.38799880  0.35841393  0.24951823  1
  Cl  Cl536  1  0.38755769  0.69101860  0.24903178  1
  Cl  Cl537  1  0.88704298  0.02433250  0.24975531  1
  Cl  Cl538  1  0.88738750  0.35866902  0.25073929  1
  Cl  Cl539  1  0.88932107  0.69145134  0.25263559  1
  Cl  Cl540  1  0.38744511  0.30923967  0.74924298  1
  Cl  Cl541  1  0.38794201  0.64281261  0.75140914  1
  Cl  Cl542  1  0.38737407  0.97514700  0.74964058  1
  Cl  Cl543  1  0.88558309  0.31056049  0.74855153  1
  Cl  Cl544  1  0.88814942  0.64232491  0.74738779  1
  Cl  Cl545  1  0.88798081  0.97671846  0.74918863  1
  Cl  Cl546  1  0.11209623  0.02396306  0.24853945  1
  Cl  Cl547  1  0.11202077  0.35811143  0.24643449  1
  Cl  Cl548  1  0.11248995  0.69071141  0.25051503  1
  Cl  Cl549  1  0.61291891  0.02353074  0.24891876  1
  Cl  Cl550  1  0.61299931  0.35825130  0.25124614  1
  Cl  Cl551  1  0.61171077  0.69122129  0.25042847  1
