# generated using pymatgen
data_H8PbC4(N3Cl2)2
_symmetry_space_group_name_H-M   'P 1'
_cell_length_a   16.62672450
_cell_length_b   22.52018406
_cell_length_c   21.59633875
_cell_angle_alpha   90.00017897
_cell_angle_beta   89.99482516
_cell_angle_gamma   89.99660161
_symmetry_Int_Tables_number   1
_chemical_formula_structural   H8PbC4(N3Cl2)2
_chemical_formula_sum   'H192 Pb24 C96 N144 Cl96'
_cell_volume   8086.46600321
_cell_formula_units_Z   24
loop_
 _symmetry_equiv_pos_site_id
 _symmetry_equiv_pos_as_xyz
  1  'x, y, z'
loop_
 _atom_site_type_symbol
 _atom_site_label
 _atom_site_symmetry_multiplicity
 _atom_site_fract_x
 _atom_site_fract_y
 _atom_site_fract_z
 _atom_site_occupancy
  H  H0  1  -0.01037255  0.03102066  0.68000529  1
  H  H1  1  -0.00847353  0.36430993  0.67842138  1
  H  H2  1  -0.01757428  0.69677478  0.68117844  1
  H  H3  1  0.51014564  0.02492285  0.67630846  1
  H  H4  1  0.51725082  0.36187490  0.67782839  1
  H  H5  1  0.51387829  0.69344338  0.67377701  1
  H  H6  1  0.00352288  0.30684355  0.17604666  1
  H  H7  1  -0.00351838  0.63845661  0.18003942  1
  H  H8  1  -0.00154781  0.97156203  0.17182115  1
  H  H9  1  0.50730388  0.30570035  0.17821810  1
  H  H10  1  0.50530789  0.63526706  0.17842778  1
  H  H11  1  0.49340640  0.97039368  0.18078274  1
  H  H12  1  0.01169258  0.02724039  0.82358742  1
  H  H13  1  -0.00523538  0.35905787  0.82405256  1
  H  H14  1  0.00326560  0.69617340  0.81876618  1
  H  H15  1  0.48687886  0.03185719  0.82565340  1
  H  H16  1  0.50704135  0.36136286  0.82553356  1
  H  H17  1  0.50466844  0.69336983  0.82165850  1
  H  H18  1  -0.00094542  0.30409853  0.31442339  1
  H  H19  1  0.00080544  0.63957819  0.31707146  1
  H  H20  1  -0.01886214  0.97548513  0.32213657  1
  H  H21  1  0.51304928  0.30220607  0.32654560  1
  H  H22  1  0.50610948  0.63645813  0.31833056  1
  H  H23  1  0.51936354  0.97287997  0.32712340  1
  H  H24  1  0.23158808  0.19573096  0.67726185  1
  H  H25  1  0.24984554  0.52728415  0.68068557  1
  H  H26  1  0.24128622  0.86208513  0.67531651  1
  H  H27  1  0.77539101  0.19554870  0.67684265  1
  H  H28  1  0.74380927  0.53076920  0.67715702  1
  H  H29  1  0.75859300  0.86548251  0.68048504  1
  H  H30  1  0.23609376  0.13963730  0.17559311  1
  H  H31  1  0.24318940  0.47141541  0.17574462  1
  H  H32  1  0.23963352  0.80554513  0.18098490  1
  H  H33  1  0.77091258  0.13770791  0.16984121  1
  H  H34  1  0.74329185  0.46994478  0.17606469  1
  H  H35  1  0.74588035  0.80382634  0.18073185  1
  H  H36  1  0.24807160  0.19815264  0.82199365  1
  H  H37  1  0.23746781  0.52975760  0.81940566  1
  H  H38  1  0.26254700  0.86656113  0.82211339  1
  H  H39  1  0.74468457  0.19526790  0.82196538  1
  H  H40  1  0.75068180  0.52614045  0.82176644  1
  H  H41  1  0.73872156  0.86252567  0.82479757  1
  H  H42  1  0.24387878  0.13841052  0.32183738  1
  H  H43  1  0.25703452  0.46838727  0.32005445  1
  H  H44  1  0.24397749  0.80641541  0.32530633  1
  H  H45  1  0.75160367  0.13276353  0.31894476  1
  H  H46  1  0.74117064  0.47390481  0.32331729  1
  H  H47  1  0.75785803  0.80395308  0.31663636  1
  H  H48  1  0.13037650  0.04737116  0.62925026  1
  H  H49  1  0.12155059  0.38763349  0.61323119  1
  H  H50  1  0.12093947  0.72024289  0.62539952  1
  H  H51  1  0.62497310  0.05428740  0.59868804  1
  H  H52  1  0.61366544  0.39577685  0.58904059  1
  H  H53  1  0.61220749  0.72581972  0.58694116  1
  H  H54  1  0.37425932  0.28145231  0.11588602  1
  H  H55  1  0.37036421  0.61729306  0.12163959  1
  H  H56  1  0.37863808  0.94621933  0.10031347  1
  H  H57  1  0.86875185  0.28289611  0.11768823  1
  H  H58  1  0.86396606  0.61241333  0.11620508  1
  H  H59  1  0.88093444  0.94288955  0.09876933  1
  H  H60  1  0.37771393  0.05637771  0.90644237  1
  H  H61  1  0.37118553  0.38382488  0.88348536  1
  H  H62  1  0.37070675  0.71840041  0.87951852  1
  H  H63  1  0.87199777  0.05116370  0.87714235  1
  H  H64  1  0.86528138  0.38689034  0.88943477  1
  H  H65  1  0.86747823  0.72068508  0.87767482  1
  H  H66  1  0.12500048  0.28167228  0.38192167  1
  H  H67  1  0.12346088  0.61210758  0.38940387  1
  H  H68  1  0.12517758  0.95341566  0.36666893  1
  H  H69  1  0.62438578  0.27502208  0.40835170  1
  H  H70  1  0.62364165  0.60842202  0.39532080  1
  H  H71  1  0.62382698  0.94090518  0.41057264  1
  H  H72  1  0.37567259  0.21281880  0.63319408  1
  H  H73  1  0.37538689  0.55150964  0.61282902  1
  H  H74  1  0.37385665  0.88315598  0.61651915  1
  H  H75  1  0.87240815  0.22725262  0.58778342  1
  H  H76  1  0.87232824  0.55169702  0.61308504  1
  H  H77  1  0.86972566  0.89008846  0.60108461  1
  H  H78  1  0.13616065  0.10616766  0.08975390  1
  H  H79  1  0.13642530  0.43944086  0.09393032  1
  H  H80  1  0.13446199  0.77682573  0.09593073  1
  H  H81  1  0.62674479  0.12054751  0.12283299  1
  H  H82  1  0.63514094  0.43932358  0.09522807  1
  H  H83  1  0.63393969  0.77499266  0.10174928  1
  H  H84  1  0.12734746  0.22272422  0.89389064  1
  H  H85  1  0.12740410  0.55596616  0.90075719  1
  H  H86  1  0.12006288  0.88438302  0.87105930  1
  H  H87  1  0.63458837  0.22462785  0.90326613  1
  H  H88  1  0.63180036  0.55124896  0.89624695  1
  H  H89  1  0.62362362  0.88787532  0.90301850  1
  H  H90  1  0.36692937  0.11220557  0.39348785  1
  H  H91  1  0.37894398  0.44595840  0.39045602  1
  H  H92  1  0.37832668  0.78283709  0.38650208  1
  H  H93  1  0.86782036  0.11030968  0.39386331  1
  H  H94  1  0.88409142  0.45176463  0.36964462  1
  H  H95  1  0.87959950  0.78022610  0.38824896  1
  H  H96  1  0.37799224  0.28003366  0.38564271  1
  H  H97  1  0.37585759  0.61270052  0.38438273  1
  H  H98  1  0.37889769  0.95221354  0.37966793  1
  H  H99  1  0.87544494  0.28117217  0.38482129  1
  H  H100  1  0.87514141  0.61164110  0.38700205  1
  H  H101  1  0.88318729  0.94083377  0.40889237  1
  H  H102  1  0.11682882  0.06002592  0.90779469  1
  H  H103  1  0.11369968  0.38735785  0.89844722  1
  H  H104  1  0.11466459  0.72210520  0.89955790  1
  H  H105  1  0.62441771  0.05069290  0.88098668  1
  H  H106  1  0.61727112  0.39096060  0.90434667  1
  H  H107  1  0.61814226  0.72154030  0.90013388  1
  H  H108  1  0.11634000  0.27636802  0.09668836  1
  H  H109  1  0.11185961  0.60972741  0.10202542  1
  H  H110  1  0.12939668  0.94839094  0.10792447  1
  H  H111  1  0.62223087  0.27805219  0.10173288  1
  H  H112  1  0.61688527  0.60712134  0.10000188  1
  H  H113  1  0.62622340  0.94899441  0.11616373  1
  H  H114  1  0.37752650  0.05117057  0.61476126  1
  H  H115  1  0.37324464  0.38117664  0.63055470  1
  H  H116  1  0.37036413  0.71735249  0.62938246  1
  H  H117  1  0.88519392  0.05712344  0.59632854  1
  H  H118  1  0.87257336  0.39190453  0.60538475  1
  H  H119  1  0.87476977  0.72032909  0.59717191  1
  H  H120  1  0.11805981  0.11130906  0.38909642  1
  H  H121  1  0.12999707  0.44715478  0.38778643  1
  H  H122  1  0.13161062  0.77669464  0.40458255  1
  H  H123  1  0.61925314  0.11550515  0.38255026  1
  H  H124  1  0.64167172  0.44075673  0.41019061  1
  H  H125  1  0.63010810  0.78329047  0.38261476  1
  H  H126  1  0.37631500  0.21849454  0.88703740  1
  H  H127  1  0.37471934  0.54907540  0.87895692  1
  H  H128  1  0.36283412  0.89349581  0.91109284  1
  H  H129  1  0.88184185  0.21602476  0.87932637  1
  H  H130  1  0.88126159  0.55316121  0.88542105  1
  H  H131  1  0.87079501  0.89029233  0.88391207  1
  H  H132  1  0.37906439  0.12043774  0.12781097  1
  H  H133  1  0.38225842  0.44971179  0.12257262  1
  H  H134  1  0.37850848  0.78226791  0.12693006  1
  H  H135  1  0.86800323  0.10176835  0.08382650  1
  H  H136  1  0.88118980  0.44798009  0.11991944  1
  H  H137  1  0.88139603  0.78282110  0.12026210  1
  H  H138  1  0.13422501  0.22613592  0.59051115  1
  H  H139  1  0.12557351  0.55124886  0.61200163  1
  H  H140  1  0.12575807  0.88881457  0.59781117  1
  H  H141  1  0.63091533  0.21412553  0.62849540  1
  H  H142  1  0.62329592  0.55615729  0.60503763  1
  H  H143  1  0.62206131  0.88172451  0.62203388  1
  H  H144  1  0.52955925  0.75161831  0.49011444  1
  H  H145  1  0.92210005  0.42000405  0.49692098  1
  H  H146  1  0.16943149  0.58259725  0.50218999  1
  H  H147  1  0.68711452  0.93213839  0.99513490  1
  H  H148  1  0.84369273  0.58090431  0.99139315  1
  H  H149  1  0.21224484  0.75086178  -0.00286005  1
  H  H150  1  0.19641255  0.58719758  1.00423880  1
  H  H151  1  0.34556683  0.91408266  0.50306254  1
  H  H152  1  0.34623332  0.75407625  0.49498146  1
  H  H153  1  0.03818533  0.08602627  1.00591675  1
  H  H154  1  0.20876591  0.41130289  -0.00546430  1
  H  H155  1  0.33325037  0.41952316  0.50188731  1
  H  H156  1  0.89792457  0.24923693  0.00667046  1
  H  H157  1  0.11954285  0.91778905  0.47837492  1
  H  H158  1  0.33331819  0.58154362  0.50268312  1
  H  H159  1  0.39881692  0.75166692  0.99095642  1
  H  H160  1  0.80532162  0.91919205  0.49367894  1
  H  H161  1  0.78561003  0.25042839  0.49206298  1
  H  H162  1  0.55564321  0.24219797  0.50620329  1
  H  H163  1  0.39679921  0.41315886  0.99330262  1
  H  H164  1  0.08268154  0.25306611  0.49361564  1
  H  H165  1  0.44016175  0.08497618  1.01238009  1
  H  H166  1  0.70168307  0.74744251  -0.00392183  1
  H  H167  1  0.81031640  0.08321570  0.50485319  1
  H  H168  1  0.21773707  0.08089193  -0.00765084  1
  H  H169  1  0.66969547  0.75612157  0.49560765  1
  H  H170  1  0.09423007  0.91568730  0.00144365  1
  H  H171  1  0.39425922  0.58510413  1.00766385  1
  H  H172  1  0.90793035  0.41424068  0.99494158  1
  H  H173  1  0.21417661  0.25453626  0.48939593  1
  H  H174  1  0.83571325  0.90641989  0.99242963  1
  H  H175  1  0.68669310  0.58369759  1.00347132  1
  H  H176  1  0.95738456  0.08611075  0.49231560  1
  H  H177  1  0.33926963  0.24980122  0.99884684  1
  H  H178  1  0.11828962  0.07739299  0.51499969  1
  H  H179  1  0.94924054  0.74346202  0.49195005  1
  H  H180  1  0.63520312  0.08608872  0.01258672  1
  H  H181  1  0.96574740  0.91716940  0.50548325  1
  H  H182  1  0.52751277  0.41835297  0.49313364  1
  H  H183  1  0.83481245  0.58636938  0.50135727  1
  H  H184  1  0.41714472  0.08087969  0.50808151  1
  H  H185  1  0.92157446  0.25116149  0.49469319  1
  H  H186  1  0.55199884  0.74400045  1.00372414  1
  H  H187  1  0.37099009  0.24533821  0.51987247  1
  H  H188  1  0.04687914  0.75171336  1.00370266  1
  H  H189  1  0.82941498  0.75406090  0.49960750  1
  H  H190  1  0.72403045  0.41853506  0.50806347  1
  H  H191  1  0.08353561  0.41794496  0.50773020  1
  Pb  Pb192  1  0.25607123  0.05067824  0.76207121  1
  Pb  Pb193  1  0.24706838  0.37918126  0.75803071  1
  Pb  Pb194  1  0.24654688  0.71561154  0.76218018  1
  Pb  Pb195  1  0.74844695  0.04720799  0.74194201  1
  Pb  Pb196  1  0.75235404  0.38419593  0.74627960  1
  Pb  Pb197  1  0.75174065  0.71757322  0.74221902  1
  Pb  Pb198  1  0.25094914  0.28574921  0.24323911  1
  Pb  Pb199  1  0.24672842  0.61623739  0.24886744  1
  Pb  Pb200  1  0.25500400  0.95369879  0.24410983  1
  Pb  Pb201  1  0.75329487  0.28237866  0.25737918  1
  Pb  Pb202  1  0.75122960  0.61821672  0.24773350  1
  Pb  Pb203  1  0.75171190  0.95271496  0.25358831  1
  Pb  Pb204  1  0.00079235  0.21391138  0.73767727  1
  Pb  Pb205  1  0.00316095  0.54882155  0.75241106  1
  Pb  Pb206  1  0.00275194  0.88448707  0.74054397  1
  Pb  Pb207  1  0.50529855  0.21719635  0.75525390  1
  Pb  Pb208  1  0.50015694  0.54872626  0.75283445  1
  Pb  Pb209  1  0.49876937  0.88033550  0.75935789  1
  Pb  Pb210  1  0.00524975  0.11643114  0.24123910  1
  Pb  Pb211  1  0.00387464  0.45134047  0.24685139  1
  Pb  Pb212  1  0.00445427  0.78715927  0.24955111  1
  Pb  Pb213  1  0.49960174  0.11970533  0.25696354  1
  Pb  Pb214  1  0.50762964  0.44836842  0.25276452  1
  Pb  Pb215  1  0.50001430  0.78344463  0.24764474  1
  C  C216  1  0.00242134  0.04531074  0.63289663  1
  C  C217  1  -0.00434973  0.38063818  0.63107594  1
  C  C218  1  -0.00710543  0.71189179  0.63416491  1
  C  C219  1  0.50391815  0.04244627  0.62978729  1
  C  C220  1  0.50159485  0.37826043  0.63217741  1
  C  C221  1  0.49899365  0.71054589  0.62814512  1
  C  C222  1  -0.00375219  0.28885151  0.12984506  1
  C  C223  1  -0.00938664  0.62147454  0.13319526  1
  C  C224  1  0.00336538  0.95408095  0.12525502  1
  C  C225  1  0.50094875  0.28885890  0.13163703  1
  C  C226  1  0.49660201  0.62018313  0.13131481  1
  C  C227  1  0.49944627  0.95531514  0.13327669  1
  C  C228  1  0.00061452  0.04499203  0.86945142  1
  C  C229  1  -0.00919618  0.37688187  0.87054200  1
  C  C230  1  -0.00505039  0.71217155  0.86566252  1
  C  C231  1  0.49603736  0.04633095  0.87303568  1
  C  C232  1  0.49782931  0.37725025  0.87235706  1
  C  C233  1  0.49780406  0.70939833  0.86886798  1
  C  C234  1  -0.00028499  0.28884204  0.36217195  1
  C  C235  1  -0.00027640  0.62215237  0.36388195  1
  C  C236  1  -0.00348353  0.95768134  0.36757583  1
  C  C237  1  0.50551241  0.28580642  0.37332237  1
  C  C238  1  0.50204385  0.62002331  0.36544162  1
  C  C239  1  0.50713934  0.95568930  0.37284296  1
  C  C240  1  0.24789257  0.21141899  0.63136103  1
  C  C241  1  0.25030276  0.54368593  0.63336192  1
  C  C242  1  0.24763965  0.87779729  0.62821606  1
  C  C243  1  0.76000846  0.21130126  0.63086384  1
  C  C244  1  0.74712249  0.54682282  0.62995646  1
  C  C245  1  0.75030401  0.87916164  0.63282046  1
  C  C246  1  0.25031535  0.12358720  0.12960616  1
  C  C247  1  0.25368927  0.45480112  0.12922271  1
  C  C248  1  0.25083962  0.78963779  0.13435364  1
  C  C249  1  0.75469785  0.12090727  0.12449109  1
  C  C250  1  0.75362230  0.45343621  0.12983477  1
  C  C251  1  0.75403720  0.78795178  0.13378344  1
  C  C252  1  0.25121328  0.21322731  0.86953771  1
  C  C253  1  0.24683553  0.54519805  0.86646160  1
  C  C254  1  0.24857890  0.88118180  0.86858355  1
  C  C255  1  0.75356005  0.21142183  0.86862460  1
  C  C256  1  0.75501860  0.54368226  0.86860194  1
  C  C257  1  0.74453059  0.87976050  0.87168449  1
  C  C258  1  0.24319036  0.12117424  0.36852482  1
  C  C259  1  0.25582878  0.45425035  0.36798576  1
  C  C260  1  0.25179615  0.78972962  0.37202331  1
  C  C261  1  0.74638956  0.11968870  0.36698649  1
  C  C262  1  0.75555545  0.45747758  0.36919944  1
  C  C263  1  0.75576578  0.78904421  0.36444515  1
  C  C264  1  0.69478010  0.09687597  0.45784374  1
  C  C265  1  0.29204133  0.57148883  0.54035722  1
  C  C266  1  0.73452569  0.42023613  0.03549893  1
  C  C267  1  0.04251361  0.26294566  0.45533054  1
  C  C268  1  0.23933551  0.24155548  0.53384522  1
  C  C269  1  0.77327621  0.90665241  0.53565429  1
  C  C270  1  0.18478006  0.90532541  0.95336253  1
  C  C271  1  0.79240449  0.76389205  0.45936160  1
  C  C272  1  0.06649776  0.92655718  0.44780514  1
  C  C273  1  0.96104714  0.40953326  0.53706349  1
  C  C274  1  0.97655692  0.73629504  0.53713116  1
  C  C275  1  0.71096986  0.57712470  0.53687513  1
  C  C276  1  0.44322325  0.74099316  0.95561927  1
  C  C277  1  0.52771463  0.25619819  0.03837575  1
  C  C278  1  0.21129647  0.43006969  0.46106517  1
  C  C279  1  0.72173497  0.57343684  0.96227660  1
  C  C280  1  0.31917172  0.09327976  0.04740758  1
  C  C281  1  0.79256025  0.57570431  0.53810869  1
  C  C282  1  0.21493351  0.24151522  0.96327346  1
  C  C283  1  0.52202770  0.59057568  0.03588872  1
  C  C284  1  0.55568244  0.07171016  0.96054498  1
  C  C285  1  0.98632049  0.07342499  0.53544799  1
  C  C286  1  0.20985218  0.57168147  0.54006309  1
  C  C287  1  0.31871064  0.23683408  0.54899112  1
  C  C288  1  0.31568555  0.42573533  0.04376258  1
  C  C289  1  0.22666440  0.57509265  0.96127398  1
  C  C290  1  0.29936136  0.90467624  0.53769007  1
  C  C291  1  0.06703682  0.06946526  0.54681361  1
  C  C292  1  0.29294679  0.42930885  0.46335843  1
  C  C293  1  0.20308269  0.09090779  0.45995307  1
  C  C294  1  0.42898631  0.74038214  0.54663666  1
  C  C295  1  0.76457868  0.08573557  0.02848661  1
  C  C296  1  0.52259966  0.40973599  0.96773964  1
  C  C297  1  0.80774904  0.23846787  0.95637373  1
  C  C298  1  0.44109995  0.59393651  0.04188159  1
  C  C299  1  0.82508717  0.42922677  0.45166531  1
  C  C300  1  0.21800328  0.90579782  0.53288011  1
  C  C301  1  0.69256711  0.90326566  0.54433154  1
  C  C302  1  0.29640850  0.24007506  0.96222054  1
  C  C303  1  0.71051430  0.76487265  0.45736111  1
  C  C304  1  0.52191596  0.92064645  0.46682622  1
  C  C305  1  0.96985653  0.92082212  0.03156098  1
  C  C306  1  0.47502129  0.07387878  0.97063168  1
  C  C307  1  0.94506805  0.25886624  0.04220342  1
  C  C308  1  0.96055969  0.26224699  0.45602161  1
  C  C309  1  0.77591527  0.09453731  0.46370039  1
  C  C310  1  0.01596545  0.74100286  0.96066155  1
  C  C311  1  0.73255756  0.75917998  0.03884239  1
  N  N312  1  0.53530052  0.07541401  0.53658709  1
  N  N313  1  0.44551124  0.92420123  0.45787922  1
  N  N314  1  0.81144693  0.42341546  0.04244951  1
  N  N315  1  0.45756718  0.07486472  0.54330021  1
  N  N316  1  0.22391261  0.75919231  0.46658982  1
  N  N317  1  0.98886024  0.92250288  0.46136907  1
  N  N318  1  0.26023546  0.90909630  0.96732853  1
  N  N319  1  0.74791831  0.42586584  0.46421229  1
  N  N320  1  0.54870800  0.92901866  0.04250220  1
  N  N321  1  0.93735146  0.07572141  0.95310580  1
  N  N322  1  0.95988266  0.59165232  0.45592252  1
  N  N323  1  0.47242798  0.92798177  0.03755005  1
  N  N324  1  0.93735981  0.74201225  0.95318587  1
  N  N325  1  0.80112658  0.57532483  0.95700233  1
  N  N326  1  0.30523802  0.57357089  0.95369403  1
  N  N327  1  0.50673627  0.41084845  0.53846137  1
  N  N328  1  0.24171849  0.08951687  0.03587129  1
  N  N329  1  0.50621782  0.74369722  0.53364992  1
  N  N330  1  0.94204953  0.59176525  0.04368351  1
  N  N331  1  0.68840181  0.09355178  0.04200404  1
  N  N332  1  0.79559776  0.91447407  0.95693284  1
  N  N333  1  0.23754291  0.42213991  0.03528843  1
  N  N334  1  0.94854490  0.40751635  0.95902358  1
  N  N335  1  0.02381723  0.25591858  0.03504155  1
  N  N336  1  0.04881907  0.92387441  0.03589708  1
  N  N337  1  0.68913073  0.23759925  0.54919613  1
  N  N338  1  0.71715965  0.90294598  0.96699520  1
  N  N339  1  0.44453945  0.40561743  0.95995398  1
  N  N340  1  0.44885659  0.25749807  0.46027928  1
  N  N341  1  0.31354348  0.76140912  0.04962419  1
  N  N342  1  0.52622109  0.25555617  0.46660563  1
  N  N343  1  0.02662724  0.40757360  0.96352954  1
  N  N344  1  0.05454098  0.73804220  0.54698329  1
  N  N345  1  0.01429920  0.07862917  0.96206708  1
  N  N346  1  0.76533938  0.24266130  0.53677386  1
  N  N347  1  0.45041350  0.25733698  0.04207152  1
  N  N348  1  0.81132857  0.76136911  0.04507183  1
  N  N349  1  0.52245092  0.74162393  0.96197491  1
  N  N350  1  0.53193420  0.59031356  0.45994704  1
  N  N351  1  0.04057849  0.40728415  0.54070394  1
  N  N352  1  0.45568951  0.59164452  0.45640243  1
  N  N353  1  0.03662310  0.59159312  0.45667061  1
  N  N354  1  0.43080596  0.40559125  0.55088931  1
  N  N355  1  0.73113563  0.24210099  0.96538915  1
  N  N356  1  0.01840710  0.59067170  0.03879486  1
  N  N357  1  0.23654422  0.75825857  0.04077690  1
  N  N358  1  0.28088182  0.09078616  0.46253191  1
  N  N359  1  0.30150045  0.76168655  0.45954116  1
  N  N360  1  0.07512335  0.05232139  0.60752157  1
  N  N361  1  0.06165349  0.38922051  0.59826102  1
  N  N362  1  0.06295974  0.72255245  0.60719312  1
  N  N363  1  0.56362953  0.05653728  0.59125837  1
  N  N364  1  0.55129405  0.39178939  0.58654422  1
  N  N365  1  0.55010270  0.72221767  0.58300822  1
  N  N366  1  0.43355012  0.27779573  0.10147058  1
  N  N367  1  0.42666480  0.61216828  0.10231419  1
  N  N368  1  0.44062980  0.94413089  0.09345319  1
  N  N369  1  0.92686301  0.27808048  0.10054568  1
  N  N370  1  0.92355265  0.61091909  0.10208128  1
  N  N371  1  0.94155882  0.93955771  0.08700395  1
  N  N372  1  0.43896019  0.05775737  0.91452707  1
  N  N373  1  0.42866411  0.38456806  0.90121950  1
  N  N374  1  0.42790818  0.72247814  0.89741480  1
  N  N375  1  0.92946010  0.05644828  0.89492779  1
  N  N376  1  0.92526812  0.38768097  0.90329424  1
  N  N377  1  0.92603837  0.72395685  0.89412101  1
  N  N378  1  0.06557703  0.27933442  0.39677921  1
  N  N379  1  0.06237719  0.61019038  0.39978146  1
  N  N380  1  0.07085366  0.94646087  0.38904128  1
  N  N381  1  0.56244556  0.27292585  0.41398494  1
  N  N382  1  0.56210429  0.60789005  0.40380247  1
  N  N383  1  0.56207437  0.93966335  0.41587831  1
  N  N384  1  0.32240138  0.21839050  0.60929420  1
  N  N385  1  0.31562249  0.55440691  0.59877474  1
  N  N386  1  0.31630312  0.88751200  0.59810401  1
  N  N387  1  0.81007827  0.22388089  0.58509049  1
  N  N388  1  0.81377661  0.55683516  0.59725131  1
  N  N389  1  0.80839069  0.89124262  0.59200442  1
  N  N390  1  0.19826035  0.11093748  0.08530498  1
  N  N391  1  0.19854340  0.44201752  0.08739968  1
  N  N392  1  0.19695301  0.77818972  0.09096288  1
  N  N393  1  0.68191337  0.11571623  0.10105273  1
  N  N394  1  0.69691200  0.43861873  0.08770466  1
  N  N395  1  0.69575093  0.77520541  0.09295947  1
  N  N396  1  0.18762831  0.22538707  0.90749496  1
  N  N397  1  0.18943505  0.55786753  0.90809989  1
  N  N398  1  0.17495482  0.88891764  0.89302454  1
  N  N399  1  0.69707222  0.22466183  0.90923730  1
  N  N400  1  0.69284450  0.55505387  0.90705455  1
  N  N401  1  0.68531054  0.89326409  0.91004903  1
  N  N402  1  0.30569903  0.11000824  0.40418904  1
  N  N403  1  0.31950742  0.44448225  0.40417160  1
  N  N404  1  0.31965921  0.78114686  0.40245636  1
  N  N405  1  0.80719420  0.10916741  0.40590777  1
  N  N406  1  0.82984297  0.44714242  0.39227993  1
  N  N407  1  0.81935086  0.77882228  0.40116585  1
  N  N408  1  0.43624253  0.27583638  0.40220322  1
  N  N409  1  0.43577659  0.60986011  0.39781846  1
  N  N410  1  0.43614054  0.94602796  0.39817772  1
  N  N411  1  0.93527001  0.27820846  0.39770745  1
  N  N412  1  0.93592054  0.61057373  0.39857758  1
  N  N413  1  0.94570033  0.94493701  0.41291939  1
  N  N414  1  0.05450828  0.05782332  0.91251485  1
  N  N415  1  0.05233418  0.38940217  0.90782510  1
  N  N416  1  0.05288801  0.72319348  0.90729900  1
  N  N417  1  0.56772827  0.05535473  0.90117577  1
  N  N418  1  0.55595369  0.39208058  0.91377554  1
  N  N419  1  0.55599253  0.71870770  0.90948460  1
  N  N420  1  0.05406817  0.27498389  0.09004970  1
  N  N421  1  0.04977190  0.60909415  0.09414079  1
  N  N422  1  0.06987655  0.94418484  0.09365921  1
  N  N423  1  0.56107889  0.27520605  0.09206283  1
  N  N424  1  0.55544719  0.60632076  0.08983305  1
  N  N425  1  0.56669828  0.94546107  0.10208583  1
  N  N426  1  0.43682969  0.05299727  0.59894899  1
  N  N427  1  0.42824637  0.38702213  0.60966409  1
  N  N428  1  0.42443067  0.72156062  0.60585832  1
  N  N429  1  0.94721584  0.05814187  0.58948596  1
  N  N430  1  0.93295585  0.39300430  0.59359696  1
  N  N431  1  0.93672438  0.72111625  0.59048896  1
  N  N432  1  0.17775186  0.10899443  0.40301849  1
  N  N433  1  0.18954777  0.44490718  0.40324141  1
  N  N434  1  0.19336582  0.77618350  0.41194836  1
  N  N435  1  0.67741440  0.11161436  0.39942806  1
  N  N436  1  0.70404300  0.44629013  0.41430785  1
  N  N437  1  0.68902463  0.78020033  0.39810974  1
  N  N438  1  0.31776149  0.22248937  0.90268703  1
  N  N439  1  0.31620773  0.55500326  0.89458999  1
  N  N440  1  0.30030121  0.89376651  0.91308156  1
  N  N441  1  0.82422986  0.22050637  0.89746706  1
  N  N442  1  0.82135887  0.55586125  0.89965195  1
  N  N443  1  0.81262854  0.88916232  0.90170946  1
  N  N444  1  0.32441459  0.11342168  0.10594648  1
  N  N445  1  0.32610727  0.44492566  0.10247293  1
  N  N446  1  0.32182268  0.77898390  0.10842622  1
  N  N447  1  0.80624720  0.10268821  0.07935555  1
  N  N448  1  0.82338213  0.44430290  0.10246771  1
  N  N449  1  0.82291207  0.77917723  0.10422506  1
  N  N450  1  0.19625139  0.22550693  0.58581408  1
  N  N451  1  0.18542905  0.55459579  0.59826492  1
  N  N452  1  0.18690031  0.88985501  0.58785407  1
  N  N453  1  0.68671305  0.22027468  0.60823900  1
  N  N454  1  0.68375034  0.55978444  0.59222670  1
  N  N455  1  0.67924453  0.88697778  0.60301611  1
  Cl  Cl456  1  0.25696962  0.05034928  0.63139780  1
  Cl  Cl457  1  0.24303154  0.38790011  0.62701627  1
  Cl  Cl458  1  0.24584729  0.72496470  0.63251438  1
  Cl  Cl459  1  0.75636518  0.05560795  0.60676929  1
  Cl  Cl460  1  0.73648777  0.39660530  0.60154900  1
  Cl  Cl461  1  0.74348710  0.72467348  0.60617564  1
  Cl  Cl462  1  0.24299567  0.27907207  0.10935771  1
  Cl  Cl463  1  0.23403658  0.61076853  0.11366433  1
  Cl  Cl464  1  0.25400383  0.95008868  0.11212602  1
  Cl  Cl465  1  0.74436775  0.28390251  0.12739899  1
  Cl  Cl466  1  0.73952815  0.60650067  0.11138733  1
  Cl  Cl467  1  0.75431728  0.94705583  0.11102634  1
  Cl  Cl468  1  0.23957584  0.06116644  0.90086616  1
  Cl  Cl469  1  0.23767691  0.39004648  0.89644362  1
  Cl  Cl470  1  0.23743905  0.72753435  0.90064430  1
  Cl  Cl471  1  0.74811815  0.05004308  0.87472250  1
  Cl  Cl472  1  0.74217467  0.39024348  0.87951341  1
  Cl  Cl473  1  0.73683524  0.72448457  0.88076336  1
  Cl  Cl474  1  0.25138369  0.27771182  0.37711840  1
  Cl  Cl475  1  0.24878085  0.61231572  0.38337305  1
  Cl  Cl476  1  0.25231749  0.95141987  0.37538721  1
  Cl  Cl477  1  0.74846519  0.27656902  0.39884700  1
  Cl  Cl478  1  0.75044291  0.60796236  0.38098671  1
  Cl  Cl479  1  0.75801064  0.94245685  0.38891964  1
  Cl  Cl480  1  0.00000142  0.22868622  0.60168808  1
  Cl  Cl481  1  0.00027674  0.54836475  0.62214017  1
  Cl  Cl482  1  -0.00283464  0.89343373  0.60173997  1
  Cl  Cl483  1  0.50720864  0.21977527  0.61791616  1
  Cl  Cl484  1  0.50018689  0.55086691  0.62208185  1
  Cl  Cl485  1  0.49852079  0.88036074  0.62706180  1
  Cl  Cl486  1  0.00963254  0.10123048  0.10109126  1
  Cl  Cl487  1  0.01197000  0.44026431  0.11555166  1
  Cl  Cl488  1  0.01502939  0.78003037  0.11321787  1
  Cl  Cl489  1  0.50285373  0.11832308  0.12508552  1
  Cl  Cl490  1  0.51093765  0.44106447  0.11967869  1
  Cl  Cl491  1  0.51146072  0.77103352  0.11000264  1
  Cl  Cl492  1  0.00607776  0.21792594  0.86928763  1
  Cl  Cl493  1  0.00469198  0.55325391  0.88523926  1
  Cl  Cl494  1  -0.00669977  0.89280925  0.87467467  1
  Cl  Cl495  1  0.51050024  0.22364601  0.88630382  1
  Cl  Cl496  1  0.50649048  0.54979095  0.88619585  1
  Cl  Cl497  1  0.49779039  0.88594608  0.89134612  1
  Cl  Cl498  1  -0.00716532  0.10865945  0.37525875  1
  Cl  Cl499  1  0.01012273  0.44228420  0.38282444  1
  Cl  Cl500  1  0.00555716  0.77821945  0.38497250  1
  Cl  Cl501  1  0.49064962  0.11313317  0.38986239  1
  Cl  Cl502  1  0.51984212  0.43388218  0.39946565  1
  Cl  Cl503  1  0.50394453  0.77566007  0.38854995  1
  Cl  Cl504  1  0.35950890  0.14598909  0.74857027  1
  Cl  Cl505  1  0.36400853  0.47615671  0.75939653  1
  Cl  Cl506  1  0.35738869  0.81518358  0.75172760  1
  Cl  Cl507  1  0.86232451  0.14701506  0.75213651  1
  Cl  Cl508  1  0.85665022  0.47869315  0.74812983  1
  Cl  Cl509  1  0.85615097  0.81386844  0.75427668  1
  Cl  Cl510  1  0.14031383  0.18357965  0.25011180  1
  Cl  Cl511  1  0.14554813  0.51463857  0.25224081  1
  Cl  Cl512  1  0.14524852  0.85183446  0.25375717  1
  Cl  Cl513  1  0.63763328  0.18428166  0.25317177  1
  Cl  Cl514  1  0.64474578  0.51414201  0.25029239  1
  Cl  Cl515  1  0.64617300  0.85013099  0.25240409  1
  Cl  Cl516  1  0.14159048  0.14980771  0.74748750  1
  Cl  Cl517  1  0.14178053  0.48372551  0.75094200  1
  Cl  Cl518  1  0.13464653  0.81620106  0.75548402  1
  Cl  Cl519  1  0.64145553  0.15076094  0.74549553  1
  Cl  Cl520  1  0.63987147  0.48471263  0.74834140  1
  Cl  Cl521  1  0.63919139  0.81803059  0.74967291  1
  Cl  Cl522  1  0.36058685  0.18423164  0.24639885  1
  Cl  Cl523  1  0.36380448  0.52058722  0.24691567  1
  Cl  Cl524  1  0.36610609  0.85255535  0.25080595  1
  Cl  Cl525  1  0.85486162  0.18432385  0.24859291  1
  Cl  Cl526  1  0.86758474  0.52038251  0.24616521  1
  Cl  Cl527  1  0.86779998  0.85504357  0.24130381  1
  Cl  Cl528  1  0.10332504  0.31940848  0.75133404  1
  Cl  Cl529  1  0.10819676  0.64993952  0.74526773  1
  Cl  Cl530  1  0.10810802  0.98069718  0.74922012  1
  Cl  Cl531  1  0.60268976  0.31647625  0.74978433  1
  Cl  Cl532  1  0.60125921  0.65098428  0.74873824  1
  Cl  Cl533  1  0.60822750  0.98281739  0.75311841  1
  Cl  Cl534  1  0.39323100  0.01668395  0.25541078  1
  Cl  Cl535  1  0.38573040  0.35418684  0.25310668  1
  Cl  Cl536  1  0.38963749  0.69007114  0.24214218  1
  Cl  Cl537  1  0.89072973  0.01747516  0.24102641  1
  Cl  Cl538  1  0.88583163  0.35401444  0.25418482  1
  Cl  Cl539  1  0.88336458  0.69167017  0.24826889  1
  Cl  Cl540  1  0.38140684  0.31029397  0.74513215  1
  Cl  Cl541  1  0.37986299  0.64523044  0.75298004  1
  Cl  Cl542  1  0.38934859  0.98254576  0.75406071  1
  Cl  Cl543  1  0.88535880  0.31353702  0.74506038  1
  Cl  Cl544  1  0.88594079  0.64719184  0.75700534  1
  Cl  Cl545  1  0.88730534  0.98249341  0.75101358  1
  Cl  Cl546  1  0.10875953  0.01875485  0.24985248  1
  Cl  Cl547  1  0.10816723  0.34710688  0.24756728  1
  Cl  Cl548  1  0.10724600  0.68126082  0.24833361  1
  Cl  Cl549  1  0.61310777  0.01908794  0.25264000  1
  Cl  Cl550  1  0.60327233  0.34903877  0.25694687  1
  Cl  Cl551  1  0.61065168  0.68210453  0.24969831  1
