# generated using pymatgen
data_H8PbC4(N3Cl2)2
_symmetry_space_group_name_H-M   'P 1'
_cell_length_a   16.62584097
_cell_length_b   22.51222499
_cell_length_c   21.59283354
_cell_angle_alpha   90.00067106
_cell_angle_beta   89.99288288
_cell_angle_gamma   90.00129052
_symmetry_Int_Tables_number   1
_chemical_formula_structural   H8PbC4(N3Cl2)2
_chemical_formula_sum   'H192 Pb24 C96 N144 Cl96'
_cell_volume   8081.86656759
_cell_formula_units_Z   24
loop_
 _symmetry_equiv_pos_site_id
 _symmetry_equiv_pos_as_xyz
  1  'x, y, z'
loop_
 _atom_site_type_symbol
 _atom_site_label
 _atom_site_symmetry_multiplicity
 _atom_site_fract_x
 _atom_site_fract_y
 _atom_site_fract_z
 _atom_site_occupancy
  H  H0  1  -0.00769021  0.03169159  0.67467368  1
  H  H1  1  0.00040073  0.36447443  0.68221106  1
  H  H2  1  0.00942039  0.69721497  0.67796471  1
  H  H3  1  0.50268911  0.03137223  0.68088467  1
  H  H4  1  0.50513578  0.36317298  0.67951624  1
  H  H5  1  0.49052385  0.69590380  0.67851514  1
  H  H6  1  -0.00268021  0.30450911  0.17771292  1
  H  H7  1  -0.00198699  0.63789130  0.17854953  1
  H  H8  1  0.00505149  0.96921614  0.17786473  1
  H  H9  1  0.50736412  0.30223116  0.18087855  1
  H  H10  1  0.49245994  0.63962019  0.18103361  1
  H  H11  1  0.49146338  0.96978187  0.17736053  1
  H  H12  1  0.00157505  0.03313688  0.81837008  1
  H  H13  1  -0.01136008  0.36114644  0.82132707  1
  H  H14  1  -0.00208157  0.69757929  0.81991709  1
  H  H15  1  0.49516729  0.03146332  0.81993826  1
  H  H16  1  0.51131019  0.36541296  0.81969435  1
  H  H17  1  0.50964320  0.69412008  0.82361167  1
  H  H18  1  0.01514956  0.30218881  0.32053844  1
  H  H19  1  0.00468431  0.63730299  0.32088792  1
  H  H20  1  -0.00943116  0.96903899  0.32466308  1
  H  H21  1  0.48701748  0.30579149  0.32318815  1
  H  H22  1  0.50167846  0.63889679  0.32229669  1
  H  H23  1  0.50711057  0.96734273  0.31631274  1
  H  H24  1  0.25188569  0.19443736  0.68149937  1
  H  H25  1  0.25347576  0.53122126  0.67991057  1
  H  H26  1  0.25970038  0.86283830  0.67638193  1
  H  H27  1  0.74685864  0.19353917  0.67462839  1
  H  H28  1  0.75391784  0.52793406  0.67576360  1
  H  H29  1  0.73804400  0.86457437  0.68057164  1
  H  H30  1  0.25210813  0.13985161  0.17674330  1
  H  H31  1  0.26465576  0.47192673  0.17803324  1
  H  H32  1  0.25627755  0.80275751  0.18070704  1
  H  H33  1  0.75329006  0.13766121  0.17691626  1
  H  H34  1  0.73808303  0.46926983  0.18415529  1
  H  H35  1  0.73842327  0.80083395  0.17596245  1
  H  H36  1  0.24362751  0.19498908  0.82356859  1
  H  H37  1  0.25306759  0.53264135  0.82241438  1
  H  H38  1  0.25765461  0.86466508  0.82076043  1
  H  H39  1  0.75976742  0.19654421  0.82144461  1
  H  H40  1  0.75355795  0.53373781  0.82113902  1
  H  H41  1  0.74936715  0.86108995  0.82254419  1
  H  H42  1  0.25963919  0.13527961  0.32187222  1
  H  H43  1  0.25563226  0.47048211  0.31707966  1
  H  H44  1  0.24898529  0.80312057  0.32118129  1
  H  H45  1  0.74521441  0.13883361  0.32243758  1
  H  H46  1  0.75065704  0.47141510  0.31834675  1
  H  H47  1  0.74320592  0.80241716  0.31885503  1
  H  H48  1  0.12994950  0.04934886  0.62118997  1
  H  H49  1  0.12462631  0.38734813  0.61313468  1
  H  H50  1  0.12426805  0.72155743  0.60038479  1
  H  H51  1  0.63554811  0.05154511  0.61841262  1
  H  H52  1  0.62767087  0.38905850  0.60697501  1
  H  H53  1  0.62430771  0.71717104  0.61674359  1
  H  H54  1  0.37519839  0.28098259  0.11731296  1
  H  H55  1  0.38027597  0.60871371  0.10088890  1
  H  H56  1  0.38680626  0.93988961  0.09341134  1
  H  H57  1  0.87556950  0.27639633  0.10674342  1
  H  H58  1  0.88357889  0.61374749  0.10052462  1
  H  H59  1  0.88696410  0.94278633  0.10171492  1
  H  H60  1  0.38654270  0.05850751  0.90167734  1
  H  H61  1  0.37997370  0.38630676  0.88343931  1
  H  H62  1  0.37465094  0.71684279  0.88356207  1
  H  H63  1  0.88668862  0.05578556  0.89478782  1
  H  H64  1  0.88156680  0.38897513  0.90537943  1
  H  H65  1  0.87182231  0.71773203  0.88743057  1
  H  H66  1  0.11750492  0.27353380  0.40625065  1
  H  H67  1  0.12536714  0.61323583  0.39390382  1
  H  H68  1  0.12728590  0.94794453  0.38254023  1
  H  H69  1  0.62395872  0.28081512  0.37736916  1
  H  H70  1  0.62830041  0.61280751  0.39122872  1
  H  H71  1  0.62975391  0.94708212  0.38804287  1
  H  H72  1  0.37509261  0.22070242  0.61168849  1
  H  H73  1  0.37429776  0.55607875  0.60548515  1
  H  H74  1  0.36716516  0.88985973  0.59383613  1
  H  H75  1  0.87669805  0.21868756  0.60891657  1
  H  H76  1  0.87294279  0.55675746  0.60287580  1
  H  H77  1  0.87481734  0.88368182  0.61996877  1
  H  H78  1  0.11874792  0.11597603  0.11515893  1
  H  H79  1  0.12378276  0.44653833  0.12958151  1
  H  H80  1  0.12844053  0.78042952  0.11479239  1
  H  H81  1  0.61796552  0.11504740  0.11778092  1
  H  H82  1  0.62043069  0.44589346  0.10891966  1
  H  H83  1  0.63163557  0.77556532  0.09430943  1
  H  H84  1  0.12693901  0.22131715  0.90046245  1
  H  H85  1  0.11521801  0.55274468  0.87826020  1
  H  H86  1  0.11702527  0.88379669  0.87435589  1
  H  H87  1  0.62569288  0.21941918  0.88201190  1
  H  H88  1  0.61696970  0.55086386  0.87682983  1
  H  H89  1  0.62175557  0.88353865  0.88966476  1
  H  H90  1  0.36554668  0.10748889  0.40574496  1
  H  H91  1  0.37467802  0.44348710  0.39081186  1
  H  H92  1  0.37465911  0.77868441  0.39215065  1
  H  H93  1  0.87028837  0.11119406  0.39234955  1
  H  H94  1  0.87288386  0.44678139  0.39235615  1
  H  H95  1  0.87572402  0.78296343  0.38193989  1
  H  H96  1  0.37795877  0.27541361  0.40455818  1
  H  H97  1  0.37998345  0.61202514  0.39460003  1
  H  H98  1  0.38006664  0.94613873  0.38333646  1
  H  H99  1  0.87285403  0.28367106  0.37282426  1
  H  H100  1  0.87680015  0.61473148  0.38939651  1
  H  H101  1  0.88087009  0.94251896  0.40633874  1
  H  H102  1  0.13502754  0.05153876  0.88053436  1
  H  H103  1  0.12681761  0.38388628  0.87388893  1
  H  H104  1  0.12083935  0.72145709  0.88993558  1
  H  H105  1  0.63309091  0.05200484  0.87750544  1
  H  H106  1  0.62720883  0.38959260  0.89694865  1
  H  H107  1  0.62228968  0.72370821  0.90164650  1
  H  H108  1  0.12448811  0.28008317  0.10996379  1
  H  H109  1  0.13217014  0.61256807  0.11843136  1
  H  H110  1  0.13548320  0.94758964  0.11319111  1
  H  H111  1  0.62373463  0.27704146  0.10384634  1
  H  H112  1  0.62761555  0.61901766  0.11827180  1
  H  H113  1  0.63147027  0.94681374  0.12628053  1
  H  H114  1  0.38649774  0.05472526  0.60564698  1
  H  H115  1  0.37922483  0.38744581  0.61072849  1
  H  H116  1  0.37607338  0.72354621  0.60105590  1
  H  H117  1  0.88453609  0.05665311  0.59286336  1
  H  H118  1  0.87523291  0.38715808  0.61407993  1
  H  H119  1  0.87661267  0.71558589  0.61866085  1
  H  H120  1  0.11948779  0.11430368  0.37552467  1
  H  H121  1  0.12603136  0.44883908  0.38415833  1
  H  H122  1  0.12560419  0.77857682  0.39454018  1
  H  H123  1  0.62171402  0.11351699  0.39534930  1
  H  H124  1  0.62455623  0.44447052  0.38718593  1
  H  H125  1  0.62678080  0.77810862  0.39373492  1
  H  H126  1  0.37490176  0.22061432  0.88700798  1
  H  H127  1  0.36125712  0.55818436  0.90596381  1
  H  H128  1  0.36308752  0.89020048  0.90535228  1
  H  H129  1  0.87348699  0.22387725  0.89934944  1
  H  H130  1  0.86360069  0.55783118  0.90240560  1
  H  H131  1  0.87130566  0.88761552  0.89484630  1
  H  H132  1  0.36546271  0.10925797  0.09825598  1
  H  H133  1  0.36742742  0.44400371  0.09157602  1
  H  H134  1  0.37812616  0.77966908  0.10915099  1
  H  H135  1  0.86483498  0.11071094  0.09705162  1
  H  H136  1  0.86956790  0.44901378  0.12126861  1
  H  H137  1  0.87700479  0.78415492  0.12274890  1
  H  H138  1  0.12534197  0.22025087  0.61297397  1
  H  H139  1  0.12451139  0.55517124  0.61473371  1
  H  H140  1  0.12179253  0.88209682  0.62002211  1
  H  H141  1  0.62885694  0.22242987  0.59925664  1
  H  H142  1  0.62457228  0.55352267  0.61244848  1
  H  H143  1  0.62733586  0.88945711  0.59952242  1
  H  H144  1  0.81729656  0.58637129  0.49985731  1
  H  H145  1  0.95532007  0.40838172  1.00628154  1
  H  H146  1  0.67622128  0.42168108  -0.00150659  1
  H  H147  1  0.42154376  0.92324134  0.49725372  1
  H  H148  1  0.29146612  0.89773713  0.49219723  1
  H  H149  1  0.55980813  0.43604690  0.98865987  1
  H  H150  1  0.83472085  0.24841866  0.50327928  1
  H  H151  1  0.14556995  0.91612482  0.51379869  1
  H  H152  1  0.08097947  0.41787793  0.50292464  1
  H  H153  1  0.45066243  0.24904915  0.50536349  1
  H  H154  1  0.64821096  0.08146699  0.01152301  1
  H  H155  1  0.29614927  0.08316072  -0.00425530  1
  H  H156  1  0.68153831  0.74920937  0.50252147  1
  H  H157  1  0.32042650  0.58923643  0.50406783  1
  H  H158  1  0.10848352  0.41226553  0.98872296  1
  H  H159  1  0.28668229  0.42291664  -0.00799875  1
  H  H160  1  0.13424206  0.91327173  0.98395085  1
  H  H161  1  0.90875174  0.74958713  0.99861756  1
  H  H162  1  0.94577876  0.08167460  1.00517730  1
  H  H163  1  0.16585146  0.74996226  0.00394706  1
  H  H164  1  0.32615000  0.25107656  0.50164407  1
  H  H165  1  0.17338575  0.24304695  0.50577185  1
  H  H166  1  0.81870418  0.90993308  1.00031062  1
  H  H167  1  0.66068615  0.91160097  1.00088210  1
  H  H168  1  0.03956080  0.24516937  0.50757118  1
  H  H169  1  0.16157459  0.58576691  0.50419317  1
  H  H170  1  0.11133214  0.07933900  0.50537288  1
  H  H171  1  0.44431473  0.08374607  0.49562338  1
  H  H172  1  0.46315855  0.91258984  -0.00568107  1
  H  H173  1  0.90262458  0.74890519  0.50477719  1
  H  H174  1  0.91774508  0.41687734  0.50330894  1
  H  H175  1  0.33140662  0.74830964  0.00063857  1
  H  H176  1  0.57346910  0.41491707  0.50287907  1
  H  H177  1  0.31862926  0.41439232  0.49811390  1
  H  H178  1  0.45697856  0.08516302  1.00653283  1
  H  H179  1  0.94543745  0.58463020  -0.00683601  1
  H  H180  1  0.28995714  0.91749475  1.00915462  1
  H  H181  1  0.63886573  0.58293367  -0.00915462  1
  H  H182  1  0.83506080  0.42699300  0.00630591  1
  H  H183  1  0.10281657  0.58643660  0.00909977  1
  H  H184  1  0.69745084  0.91564995  0.49335105  1
  H  H185  1  0.33450937  0.24838629  0.99349021  1
  H  H186  1  0.58297595  0.58645287  0.49580976  1
  H  H187  1  0.29021352  0.08109376  0.50597013  1
  H  H188  1  0.79478583  0.09643440  -0.00553725  1
  H  H189  1  0.42499661  0.38872716  0.99289887  1
  H  H190  1  0.56515634  0.24900434  -0.00205662  1
  H  H191  1  0.58124853  0.92502387  0.50070413  1
  Pb  Pb192  1  0.25706427  0.04878134  0.75029789  1
  Pb  Pb193  1  0.25198937  0.38065804  0.75167770  1
  Pb  Pb194  1  0.25346730  0.71557211  0.75037057  1
  Pb  Pb195  1  0.75771445  0.04827309  0.75389892  1
  Pb  Pb196  1  0.75457233  0.38292958  0.75762364  1
  Pb  Pb197  1  0.74890687  0.71283623  0.75218519  1
  Pb  Pb198  1  0.24581366  0.28249260  0.25764240  1
  Pb  Pb199  1  0.25090022  0.61988594  0.25435616  1
  Pb  Pb200  1  0.25080083  0.95428245  0.24918425  1
  Pb  Pb201  1  0.74846552  0.28712568  0.24416346  1
  Pb  Pb202  1  0.75157354  0.62111207  0.25269594  1
  Pb  Pb203  1  0.75698516  0.95070149  0.24923959  1
  Pb  Pb204  1  0.00147412  0.21306578  0.75210523  1
  Pb  Pb205  1  0.00209472  0.54966122  0.75263199  1
  Pb  Pb206  1  -0.00056150  0.88019408  0.75054299  1
  Pb  Pb207  1  0.50624363  0.21554218  0.74503250  1
  Pb  Pb208  1  0.49784351  0.54709526  0.74867405  1
  Pb  Pb209  1  0.50411915  0.88196202  0.74899261  1
  Pb  Pb210  1  -0.00579339  0.11950105  0.24614022  1
  Pb  Pb211  1  -0.00162257  0.45297848  0.25100202  1
  Pb  Pb212  1  0.00331454  0.78696283  0.25196947  1
  Pb  Pb213  1  0.50221946  0.11784256  0.25251475  1
  Pb  Pb214  1  0.49469074  0.45011173  0.24463506  1
  Pb  Pb215  1  0.50040841  0.78696012  0.24898905  1
  C  C216  1  0.00314033  0.04605946  0.62754620  1
  C  C217  1  0.00010602  0.37993628  0.63453932  1
  C  C218  1  0.00265928  0.71172892  0.63043603  1
  C  C219  1  0.50802516  0.04598957  0.63329986  1
  C  C220  1  0.50428726  0.37952385  0.63229258  1
  C  C221  1  0.49720604  0.71221328  0.63172244  1
  C  C222  1  -0.00061985  0.28735028  0.13106246  1
  C  C223  1  0.00524310  0.62149957  0.13143097  1
  C  C224  1  0.00905113  0.95372703  0.13053703  1
  C  C225  1  0.50194511  0.28684129  0.13342656  1
  C  C226  1  0.49996936  0.62345100  0.13404732  1
  C  C227  1  0.50313369  0.95364358  0.13087920  1
  C  C228  1  0.00766206  0.04627983  0.86633775  1
  C  C229  1  -0.00110662  0.37670303  0.86839097  1
  C  C230  1  -0.00362238  0.71259196  0.86759811  1
  C  C231  1  0.50549562  0.04625034  0.86712516  1
  C  C232  1  0.50600587  0.38023015  0.86741607  1
  C  C233  1  0.50180694  0.71122481  0.87001619  1
  C  C234  1  0.00145917  0.28707504  0.36717389  1
  C  C235  1  0.00194426  0.62215210  0.36828314  1
  C  C236  1  -0.00001824  0.95432886  0.37174610  1
  C  C237  1  0.49592272  0.28901761  0.36961632  1
  C  C238  1  0.50372973  0.62182624  0.36923133  1
  C  C239  1  0.50550842  0.95398984  0.36464814  1
  C  C240  1  0.25013424  0.21084512  0.63414647  1
  C  C241  1  0.25111463  0.54737384  0.63245726  1
  C  C242  1  0.24939212  0.87798077  0.62920598  1
  C  C243  1  0.75118711  0.21059082  0.62779190  1
  C  C244  1  0.75084983  0.54500843  0.62890944  1
  C  C245  1  0.74691191  0.87909763  0.63316540  1
  C  C246  1  0.24567805  0.12282583  0.12997934  1
  C  C247  1  0.25206823  0.45608077  0.13155785  1
  C  C248  1  0.25413635  0.78711558  0.13310945  1
  C  C249  1  0.74505198  0.12132841  0.12987773  1
  C  C250  1  0.74293710  0.45520453  0.13617685  1
  C  C251  1  0.74945641  0.78649894  0.12881790  1
  C  C252  1  0.24880647  0.21195815  0.87039148  1
  C  C253  1  0.24317323  0.54769875  0.86934136  1
  C  C254  1  0.24514540  0.87986259  0.86764489  1
  C  C255  1  0.75260775  0.21292418  0.86810459  1
  C  C256  1  0.74380429  0.54757858  0.86861518  1
  C  C257  1  0.74773807  0.87760216  0.86986680  1
  C  C258  1  0.24864751  0.11988656  0.36873185  1
  C  C259  1  0.25189592  0.45432642  0.36429845  1
  C  C260  1  0.24973479  0.78715297  0.36860254  1
  C  C261  1  0.74552375  0.12165909  0.36934282  1
  C  C262  1  0.74941558  0.45508655  0.36559279  1
  C  C263  1  0.74825029  0.78770315  0.36648575  1
  C  C264  1  0.28248008  0.42592745  0.45788144  1
  C  C265  1  0.48665691  0.07307903  0.96325879  1
  C  C266  1  0.72668235  0.90589549  0.53727771  1
  C  C267  1  0.29157211  0.75964414  0.03889303  1
  C  C268  1  0.81060852  0.76120867  0.04257700  1
  C  C269  1  0.06065505  0.40386257  0.95409490  1
  C  C270  1  0.03627275  0.59443432  0.46203841  1
  C  C271  1  0.73056878  0.75792061  0.03303686  1
  C  C272  1  0.70165212  0.57594241  0.53884324  1
  C  C273  1  0.96529452  0.25449424  0.03977280  1
  C  C274  1  0.18588061  0.42623701  0.04817956  1
  C  C275  1  0.04068248  0.40674078  0.54089819  1
  C  C276  1  0.28963499  0.24102720  0.54216714  1
  C  C277  1  0.47175616  0.74476646  0.53848660  1
  C  C278  1  0.26225484  0.90720354  0.96463975  1
  C  C279  1  0.03544947  0.74050614  0.96085341  1
  C  C280  1  0.77740396  0.24533755  0.96160658  1
  C  C281  1  0.71860490  0.76024739  0.46257467  1
  C  C282  1  0.55620062  0.25635580  0.45498773  1
  C  C283  1  0.05450066  0.92758615  0.03942343  1
  C  C284  1  0.97973076  0.07088645  0.96356268  1
  C  C285  1  0.56754429  0.92352730  0.04671477  1
  C  C286  1  0.52555337  0.74542697  0.96304545  1
  C  C287  1  0.47887509  0.07278061  0.53690671  1
  C  C288  1  0.76740438  0.57481855  0.96513852  1
  C  C289  1  0.18587130  0.09142136  0.45399412  1
  C  C290  1  0.71087033  0.43235473  0.03966642  1
  C  C291  1  0.52932661  0.25966746  0.03873825  1
  C  C292  1  0.18721903  0.57325725  0.95691735  1
  C  C293  1  0.06238502  0.07123325  0.53916062  1
  C  C294  1  0.06081540  0.06905103  0.95675759  1
  C  C295  1  0.95848526  0.40647574  0.54113656  1
  C  C296  1  0.68649401  0.57327896  0.95751765  1
  C  C297  1  0.20436326  0.57484560  0.54137853  1
  C  C298  1  0.70257275  0.90346843  0.96202809  1
  C  C299  1  0.80007271  0.76223328  0.45689705  1
  C  C300  1  0.54364061  0.93255525  0.46025095  1
  C  C301  1  0.97931866  0.92691049  0.46784244  1
  C  C302  1  0.79262696  0.43410001  0.04385524  1
  C  C303  1  0.94992086  0.73847787  0.53997445  1
  C  C304  1  0.95376136  0.73927150  0.96123183  1
  C  C305  1  0.01295166  0.25799129  0.46337414  1
  C  C306  1  0.55994437  0.07125163  0.54318889  1
  C  C307  1  0.97754736  0.59420631  0.03593170  1
  C  C308  1  0.20936771  0.76017716  0.04066185  1
  C  C309  1  0.98170650  0.07370956  0.53095940  1
  C  C310  1  0.03130900  0.74002747  0.53520246  1
  C  C311  1  0.46171945  0.93203312  0.45860082  1
  N  N312  1  0.21572597  0.24090869  0.96473600  1
  N  N313  1  0.93515083  0.26138493  0.45246358  1
  N  N314  1  0.47808204  0.25627531  0.46337146  1
  N  N315  1  0.47607856  0.59137959  0.03954581  1
  N  N316  1  0.45554727  0.40705850  0.95628774  1
  N  N317  1  0.56509554  0.06932298  0.95565978  1
  N  N318  1  0.05661711  0.59324525  0.04345789  1
  N  N319  1  0.53687746  0.40154875  0.96299876  1
  N  N320  1  0.26324448  0.42635634  0.03611366  1
  N  N321  1  0.98193316  0.40639027  0.96339849  1
  N  N322  1  0.78096109  0.57659348  0.53664968  1
  N  N323  1  0.78485149  0.09069524  0.46129067  1
  N  N324  1  0.54294395  0.59261908  0.45926340  1
  N  N325  1  0.97705475  0.92560916  0.03453579  1
  N  N326  1  0.69993148  0.24371317  0.95750436  1
  N  N327  1  0.19075737  0.89898228  0.54247482  1
  N  N328  1  0.69104639  0.09923080  0.04186139  1
  N  N329  1  0.21304744  0.75908205  0.46207914  1
  N  N330  1  0.44983717  0.26077343  0.04229891  1
  N  N331  1  0.79448084  0.24056083  0.53908888  1
  N  N332  1  0.19072342  0.09282133  0.04237793  1
  N  N333  1  0.26383070  0.57530502  0.96720892  1
  N  N334  1  0.54926233  0.74296000  0.54225877  1
  N  N335  1  0.28938465  0.75980132  0.46157556  1
  N  N336  1  0.78494124  0.42656815  0.45929514  1
  N  N337  1  0.46438642  0.59291831  0.46210961  1
  N  N338  1  0.05620360  0.92926261  0.46134775  1
  N  N339  1  0.20310262  0.42776145  0.45597614  1
  N  N340  1  0.26848158  0.09045517  0.03783363  1
  N  N341  1  0.70800866  0.42571420  0.45755391  1
  N  N342  1  0.29360672  0.24089962  0.95860775  1
  N  N343  1  0.45941063  0.40663346  0.54017544  1
  N  N344  1  0.80511848  0.90498705  0.54468361  1
  N  N345  1  0.28405713  0.57369189  0.53883672  1
  N  N346  1  0.04266447  0.25595876  0.03923336  1
  N  N347  1  0.26896378  0.90906555  0.53497211  1
  N  N348  1  0.95842198  0.59469699  0.46157733  1
  N  N349  1  0.20995788  0.24176141  0.54385321  1
  N  N350  1  0.53780287  0.40833478  0.54095789  1
  N  N351  1  0.78222105  0.90689839  0.96213336  1
  N  N352  1  0.55158329  0.59502440  0.04543165  1
  N  N353  1  0.71638241  0.24182993  0.53462946  1
  N  N354  1  0.48980888  0.92200913  0.03627874  1
  N  N355  1  0.44831101  0.74303634  0.95863277  1
  N  N356  1  0.76921114  0.08896744  0.03714198  1
  N  N357  1  0.26377568  0.08904344  0.46358357  1
  N  N358  1  0.70868406  0.09180745  0.46225552  1
  N  N359  1  0.18410304  0.90606903  0.95264649  1
  N  N360  1  0.07432293  0.05419397  0.60055690  1
  N  N361  1  0.06506771  0.39028404  0.59923156  1
  N  N362  1  0.06312404  0.72405241  0.58972218  1
  N  N363  1  0.57721417  0.05532498  0.60135721  1
  N  N364  1  0.56656694  0.38995125  0.59580858  1
  N  N365  1  0.56501458  0.72258127  0.60184793  1
  N  N366  1  0.43473223  0.27735571  0.10219574  1
  N  N367  1  0.44237492  0.60913984  0.09424371  1
  N  N368  1  0.44900578  0.94293562  0.08749408  1
  N  N369  1  0.93591790  0.27353144  0.09492826  1
  N  N370  1  0.94498115  0.61078091  0.09076727  1
  N  N371  1  0.94885594  0.94244486  0.09258225  1
  N  N372  1  0.44874139  0.05876410  0.90936022  1
  N  N373  1  0.43879202  0.38365236  0.89989696  1
  N  N374  1  0.43343430  0.72145796  0.89917013  1
  N  N375  1  0.94759634  0.05632842  0.90602928  1
  N  N376  1  0.94388426  0.38635065  0.91147353  1
  N  N377  1  0.93104511  0.72166529  0.90202662  1
  N  N378  1  0.05514979  0.27371314  0.41146976  1
  N  N379  1  0.06508031  0.61077040  0.40566337  1
  N  N380  1  0.06933885  0.94671007  0.40026245  1
  N  N381  1  0.56737116  0.27594245  0.39686384  1
  N  N382  1  0.56791607  0.61138214  0.40357603  1
  N  N383  1  0.56964014  0.94604383  0.40146311  1
  N  N384  1  0.31489895  0.22337499  0.59864550  1
  N  N385  1  0.31279116  0.55811095  0.59550997  1
  N  N386  1  0.30529996  0.88631078  0.58633938  1
  N  N387  1  0.81702101  0.22033843  0.59507381  1
  N  N388  1  0.81193708  0.55627969  0.59182357  1
  N  N389  1  0.81593481  0.88819132  0.60416331  1
  N  N390  1  0.17713144  0.11149638  0.10038836  1
  N  N391  1  0.17867171  0.44320092  0.10769488  1
  N  N392  1  0.18776123  0.77702056  0.09964215  1
  N  N393  1  0.67617063  0.10925147  0.10184445  1
  N  N394  1  0.68106392  0.44549543  0.09749255  1
  N  N395  1  0.69332596  0.77346703  0.08572972  1
  N  N396  1  0.18831080  0.22376918  0.90905155  1
  N  N397  1  0.17192738  0.55680784  0.89721411  1
  N  N398  1  0.17414303  0.88937267  0.89301313  1
  N  N399  1  0.68457758  0.22341878  0.89769044  1
  N  N400  1  0.67325152  0.55611436  0.89649147  1
  N  N401  1  0.68104209  0.88720330  0.90398507  1
  N  N402  1  0.30333450  0.10894307  0.41151249  1
  N  N403  1  0.31384434  0.44187450  0.40192762  1
  N  N404  1  0.31368394  0.77704678  0.40370026  1
  N  N405  1  0.80929070  0.10883446  0.40363936  1
  N  N406  1  0.81161480  0.44463046  0.40234906  1
  N  N407  1  0.81737207  0.77856349  0.39867821  1
  N  N408  1  0.43965028  0.27840428  0.41151039  1
  N  N409  1  0.44089586  0.60978837  0.40539161  1
  N  N410  1  0.43927517  0.94536287  0.39889691  1
  N  N411  1  0.92986926  0.27938007  0.39229246  1
  N  N412  1  0.93719624  0.61240695  0.40207314  1
  N  N413  1  0.94254915  0.94196858  0.41412230  1
  N  N414  1  0.07720807  0.05444498  0.89806474  1
  N  N415  1  0.07105983  0.38742548  0.89454678  1
  N  N416  1  0.06094438  0.72452144  0.90423182  1
  N  N417  1  0.57533276  0.05297212  0.89545316  1
  N  N418  1  0.56583859  0.39563883  0.90446504  1
  N  N419  1  0.56072993  0.72636912  0.91008116  1
  N  N420  1  0.06415740  0.27649223  0.09751045  1
  N  N421  1  0.07326585  0.61087415  0.10193471  1
  N  N422  1  0.07677975  0.94430211  0.09787866  1
  N  N423  1  0.56239409  0.27538021  0.09415558  1
  N  N424  1  0.56820242  0.61490027  0.10373252  1
  N  N425  1  0.57604080  0.94232771  0.10555738  1
  N  N426  1  0.44743522  0.05693682  0.59438387  1
  N  N427  1  0.43941490  0.39053620  0.59803509  1
  N  N428  1  0.43735044  0.72623936  0.59200110  1
  N  N429  1  0.94602488  0.05857179  0.58411857  1
  N  N430  1  0.93480082  0.38994494  0.59968142  1
  N  N431  1  0.93378817  0.72072958  0.60037424  1
  N  N432  1  0.17606656  0.10936460  0.39503386  1
  N  N433  1  0.18597645  0.44521746  0.39733977  1
  N  N434  1  0.18696982  0.77574391  0.40452392  1
  N  N435  1  0.68264534  0.11089350  0.40537834  1
  N  N436  1  0.68503543  0.44336632  0.39965950  1
  N  N437  1  0.68756056  0.77622493  0.40503339  1
  N  N438  1  0.31539808  0.22263026  0.90184463  1
  N  N439  1  0.29869714  0.55921733  0.91130232  1
  N  N440  1  0.30066442  0.89146865  0.91175347  1
  N  N441  1  0.81218225  0.22669370  0.90821622  1
  N  N442  1  0.80182997  0.55928958  0.91155712  1
  N  N443  1  0.80995476  0.88883716  0.90606724  1
  N  N444  1  0.30365707  0.11062065  0.09001530  1
  N  N445  1  0.30506793  0.44784801  0.08676436  1
  N  N446  1  0.31785729  0.77635430  0.09666387  1
  N  N447  1  0.80279349  0.11264540  0.08863706  1
  N  N448  1  0.81120325  0.44796039  0.10403425  1
  N  N449  1  0.82161449  0.77838270  0.10147453  1
  N  N450  1  0.18577413  0.21979928  0.59951310  1
  N  N451  1  0.18381360  0.55775151  0.59927667  1
  N  N452  1  0.17930629  0.88910285  0.60275277  1
  N  N453  1  0.69000661  0.22393047  0.59035972  1
  N  N454  1  0.68310617  0.55709169  0.59621168  1
  N  N455  1  0.68889747  0.89041739  0.59137903  1
  Cl  Cl456  1  0.26338310  0.05583728  0.61025135  1
  Cl  Cl457  1  0.25474076  0.38557841  0.61926719  1
  Cl  Cl458  1  0.25021780  0.71791614  0.61832441  1
  Cl  Cl459  1  0.76245617  0.05195901  0.62439781  1
  Cl  Cl460  1  0.74853972  0.38685126  0.62560440  1
  Cl  Cl461  1  0.74803323  0.71440445  0.62025907  1
  Cl  Cl462  1  0.25088388  0.28322493  0.12420943  1
  Cl  Cl463  1  0.25723625  0.60849331  0.12299719  1
  Cl  Cl464  1  0.26424664  0.94341365  0.11202803  1
  Cl  Cl465  1  0.75011001  0.27690786  0.11272773  1
  Cl  Cl466  1  0.75759858  0.61750393  0.12120563  1
  Cl  Cl467  1  0.76304069  0.94279149  0.11048088  1
  Cl  Cl468  1  0.26559496  0.05809065  0.89110762  1
  Cl  Cl469  1  0.25798972  0.39641122  0.89186598  1
  Cl  Cl470  1  0.24635815  0.72086136  0.88414791  1
  Cl  Cl471  1  0.76197171  0.06224369  0.89202475  1
  Cl  Cl472  1  0.75466450  0.39006835  0.89466692  1
  Cl  Cl473  1  0.74512029  0.71999059  0.88411545  1
  Cl  Cl474  1  0.24679356  0.27072065  0.40077272  1
  Cl  Cl475  1  0.25466917  0.60868789  0.39186407  1
  Cl  Cl476  1  0.25541429  0.93921789  0.38605452  1
  Cl  Cl477  1  0.74852505  0.27899085  0.37632332  1
  Cl  Cl478  1  0.75221599  0.61018102  0.39079590  1
  Cl  Cl479  1  0.75544553  0.94179964  0.38316124  1
  Cl  Cl480  1  0.00166439  0.22190746  0.61481221  1
  Cl  Cl481  1  -0.00155844  0.55595362  0.62179280  1
  Cl  Cl482  1  -0.00049665  0.88460758  0.61858782  1
  Cl  Cl483  1  0.50013154  0.22550615  0.60577655  1
  Cl  Cl484  1  0.49867770  0.55571267  0.61251308  1
  Cl  Cl485  1  0.49352833  0.89146525  0.61314316  1
  Cl  Cl486  1  -0.01330575  0.11101538  0.11075227  1
  Cl  Cl487  1  -0.00603530  0.43897451  0.11354122  1
  Cl  Cl488  1  0.00462195  0.78072098  0.12151630  1
  Cl  Cl489  1  0.48856720  0.10865684  0.11343244  1
  Cl  Cl490  1  0.49143368  0.43794687  0.10288867  1
  Cl  Cl491  1  0.50512596  0.78341451  0.11588079  1
  Cl  Cl492  1  0.00031346  0.22004115  0.88358895  1
  Cl  Cl493  1  -0.01373337  0.55536316  0.88902878  1
  Cl  Cl494  1  -0.00748175  0.88597705  0.88239512  1
  Cl  Cl495  1  0.49795317  0.22050390  0.87835086  1
  Cl  Cl496  1  0.48402009  0.54858987  0.87960816  1
  Cl  Cl497  1  0.48809908  0.89022224  0.89352649  1
  Cl  Cl498  1  -0.00709872  0.11417901  0.37836982  1
  Cl  Cl499  1  -0.00227342  0.44759434  0.38417455  1
  Cl  Cl500  1  0.00270786  0.78205188  0.38568105  1
  Cl  Cl501  1  0.49059564  0.11364427  0.38828287  1
  Cl  Cl502  1  0.50104464  0.44284505  0.38034300  1
  Cl  Cl503  1  0.49845230  0.77797949  0.38147077  1
  Cl  Cl504  1  0.35636224  0.14780144  0.74954702  1
  Cl  Cl505  1  0.35763709  0.48235771  0.74787469  1
  Cl  Cl506  1  0.35230954  0.81610161  0.75049284  1
  Cl  Cl507  1  0.85850997  0.14997688  0.74982226  1
  Cl  Cl508  1  0.85423451  0.48048645  0.75177245  1
  Cl  Cl509  1  0.86068618  0.81405212  0.74736221  1
  Cl  Cl510  1  0.13914283  0.18925799  0.25210166  1
  Cl  Cl511  1  0.13617260  0.52033540  0.24648536  1
  Cl  Cl512  1  0.13919555  0.85400751  0.24685014  1
  Cl  Cl513  1  0.63498105  0.18709694  0.24405859  1
  Cl  Cl514  1  0.64110002  0.52112592  0.25018051  1
  Cl  Cl515  1  0.63726915  0.85518700  0.24812316  1
  Cl  Cl516  1  0.13898369  0.14532858  0.75075006  1
  Cl  Cl517  1  0.13669123  0.47936841  0.75296366  1
  Cl  Cl518  1  0.13278842  0.81088874  0.75208716  1
  Cl  Cl519  1  0.63715421  0.14436463  0.75334426  1
  Cl  Cl520  1  0.63531579  0.47970527  0.75361131  1
  Cl  Cl521  1  0.63976004  0.81543894  0.75225732  1
  Cl  Cl522  1  0.35451606  0.18592138  0.25010551  1
  Cl  Cl523  1  0.36002369  0.51743800  0.25229592  1
  Cl  Cl524  1  0.35996477  0.85187000  0.25154269  1
  Cl  Cl525  1  0.85559950  0.18383020  0.24880644  1
  Cl  Cl526  1  0.86405135  0.52099702  0.24645703  1
  Cl  Cl527  1  0.85824418  0.85120915  0.24629847  1
  Cl  Cl528  1  0.11538121  0.31236510  0.75244370  1
  Cl  Cl529  1  0.10546149  0.64506308  0.75291528  1
  Cl  Cl530  1  0.11761579  0.97748227  0.75000349  1
  Cl  Cl531  1  0.60629702  0.31254448  0.75170596  1
  Cl  Cl532  1  0.61005694  0.64747211  0.74744609  1
  Cl  Cl533  1  0.61042956  0.97685199  0.75554766  1
  Cl  Cl534  1  0.38843616  0.01838434  0.25500923  1
  Cl  Cl535  1  0.39320406  0.35275293  0.24904407  1
  Cl  Cl536  1  0.39176758  0.68399320  0.25002705  1
  Cl  Cl537  1  0.89489770  0.01499292  0.24751303  1
  Cl  Cl538  1  0.88746405  0.35254785  0.25368776  1
  Cl  Cl539  1  0.89200697  0.68599530  0.25585629  1
  Cl  Cl540  1  0.38769422  0.31300016  0.75037499  1
  Cl  Cl541  1  0.38969889  0.65009448  0.75163095  1
  Cl  Cl542  1  0.39164320  0.98229143  0.75114268  1
  Cl  Cl543  1  0.89221112  0.31588625  0.74916293  1
  Cl  Cl544  1  0.88601615  0.64676744  0.74703632  1
  Cl  Cl545  1  0.89568979  0.98456735  0.75047085  1
  Cl  Cl546  1  0.11429591  0.02302958  0.25522243  1
  Cl  Cl547  1  0.11042994  0.35323507  0.24880206  1
  Cl  Cl548  1  0.11196407  0.68536686  0.24558674  1
  Cl  Cl549  1  0.60948247  0.02188315  0.24101474  1
  Cl  Cl550  1  0.61166366  0.35315397  0.25299316  1
  Cl  Cl551  1  0.61341091  0.68693532  0.25033218  1
