# generated using pymatgen
data_H8PbC4(N3Cl2)2
_symmetry_space_group_name_H-M   'P 1'
_cell_length_a   16.62044547
_cell_length_b   22.50131242
_cell_length_c   21.58798509
_cell_angle_alpha   90.00025190
_cell_angle_beta   90.01854442
_cell_angle_gamma   90.00168535
_symmetry_Int_Tables_number   1
_chemical_formula_structural   H8PbC4(N3Cl2)2
_chemical_formula_sum   'H192 Pb24 C96 N144 Cl96'
_cell_volume   8073.51387361
_cell_formula_units_Z   24
loop_
 _symmetry_equiv_pos_site_id
 _symmetry_equiv_pos_as_xyz
  1  'x, y, z'
loop_
 _atom_site_type_symbol
 _atom_site_label
 _atom_site_symmetry_multiplicity
 _atom_site_fract_x
 _atom_site_fract_y
 _atom_site_fract_z
 _atom_site_occupancy
  H  H0  1  0.00562196  0.03238853  0.68156726  1
  H  H1  1  -0.00154768  0.36717236  0.67654445  1
  H  H2  1  -0.00895304  0.69898259  0.68031725  1
  H  H3  1  0.50303182  0.03346822  0.68003502  1
  H  H4  1  0.50529988  0.36357073  0.67918359  1
  H  H5  1  0.50212764  0.69728448  0.68143024  1
  H  H6  1  0.00171404  0.30071581  0.18369602  1
  H  H7  1  -0.00485843  0.63506585  0.17961958  1
  H  H8  1  0.00232831  0.96704313  0.18236901  1
  H  H9  1  0.49338946  0.30169181  0.18066577  1
  H  H10  1  0.50945083  0.63357308  0.18093838  1
  H  H11  1  0.50456609  0.96803247  0.17854662  1
  H  H12  1  -0.00763745  0.03249136  0.81840722  1
  H  H13  1  -0.00518302  0.36709678  0.81736180  1
  H  H14  1  0.00833559  0.69971722  0.82195561  1
  H  H15  1  0.50057005  0.03148569  0.81984218  1
  H  H16  1  0.50163265  0.36430504  0.81777861  1
  H  H17  1  0.49385900  0.69913750  0.82081789  1
  H  H18  1  0.00154333  0.30319024  0.32141723  1
  H  H19  1  0.00124611  0.63489708  0.32051815  1
  H  H20  1  -0.00371840  0.96749848  0.32031030  1
  H  H21  1  0.50185319  0.30146158  0.32062537  1
  H  H22  1  0.50689367  0.63321140  0.32157926  1
  H  H23  1  0.50013990  0.96865366  0.31771075  1
  H  H24  1  0.25502760  0.19975503  0.67886886  1
  H  H25  1  0.25005837  0.53095299  0.68018063  1
  H  H26  1  0.25821093  0.86599205  0.68046711  1
  H  H27  1  0.74816757  0.19843095  0.67977920  1
  H  H28  1  0.74748466  0.53220959  0.67761906  1
  H  H29  1  0.74080599  0.86489342  0.68019821  1
  H  H30  1  0.24763742  0.13483642  0.17846663  1
  H  H31  1  0.25124790  0.46688116  0.18188912  1
  H  H32  1  0.25279781  0.80083076  0.17873308  1
  H  H33  1  0.75493285  0.13347558  0.17968303  1
  H  H34  1  0.75796708  0.46701375  0.18197352  1
  H  H35  1  0.74779205  0.80210547  0.18076637  1
  H  H36  1  0.24124327  0.19911151  0.81756248  1
  H  H37  1  0.25343118  0.53169848  0.82050495  1
  H  H38  1  0.24629577  0.86476938  0.82199070  1
  H  H39  1  0.75841386  0.19989540  0.81910307  1
  H  H40  1  0.74746647  0.53324763  0.82000919  1
  H  H41  1  0.75121227  0.86465718  0.82024530  1
  H  H42  1  0.24508878  0.13462740  0.31989622  1
  H  H43  1  0.24210383  0.46633777  0.32216029  1
  H  H44  1  0.24932062  0.80028883  0.31900234  1
  H  H45  1  0.75347687  0.13527559  0.31972812  1
  H  H46  1  0.74687703  0.46905267  0.32095557  1
  H  H47  1  0.75076961  0.80058572  0.31800140  1
  H  H48  1  0.11692059  0.05671331  0.60117976  1
  H  H49  1  0.12320803  0.38684880  0.60829154  1
  H  H50  1  0.12471868  0.71900187  0.61748618  1
  H  H51  1  0.61608864  0.05713763  0.60244982  1
  H  H52  1  0.61650188  0.39198515  0.59816472  1
  H  H53  1  0.62266173  0.71934283  0.60517334  1
  H  H54  1  0.37928560  0.27581974  0.10029396  1
  H  H55  1  0.37219497  0.61577475  0.12326783  1
  H  H56  1  0.37128093  0.94741185  0.11581371  1
  H  H57  1  0.87624705  0.28009480  0.11457235  1
  H  H58  1  0.87649160  0.61083704  0.10210249  1
  H  H59  1  0.86968854  0.94734756  0.11679151  1
  H  H60  1  0.37663398  0.05525554  0.89168409  1
  H  H61  1  0.37927354  0.38717461  0.89110710  1
  H  H62  1  0.38298759  0.72550936  0.90204405  1
  H  H63  1  0.88227758  0.05552748  0.90066823  1
  H  H64  1  0.88092079  0.38929423  0.89518411  1
  H  H65  1  0.87621305  0.71768767  0.88338810  1
  H  H66  1  0.12825057  0.28192942  0.39166314  1
  H  H67  1  0.12403197  0.61108014  0.39138467  1
  H  H68  1  0.12476204  0.94596873  0.38818875  1
  H  H69  1  0.62429718  0.27670643  0.39224934  1
  H  H70  1  0.62278988  0.61124488  0.39779276  1
  H  H71  1  0.62412317  0.94412120  0.38955300  1
  H  H72  1  0.36908860  0.22325213  0.59859110  1
  H  H73  1  0.37392749  0.55294515  0.60926997  1
  H  H74  1  0.36867539  0.89102865  0.59975237  1
  H  H75  1  0.87462657  0.22285429  0.61011232  1
  H  H76  1  0.87678745  0.55213068  0.61070633  1
  H  H77  1  0.87795772  0.88287837  0.62358829  1
  H  H78  1  0.12364937  0.11070542  0.10718023  1
  H  H79  1  0.12020668  0.44860285  0.11645679  1
  H  H80  1  0.11970536  0.77930096  0.11684785  1
  H  H81  1  0.62188252  0.11579255  0.11582440  1
  H  H82  1  0.61995884  0.44891872  0.12564745  1
  H  H83  1  0.62494743  0.78053489  0.10971079  1
  H  H84  1  0.12856448  0.22313719  0.89741548  1
  H  H85  1  0.12690431  0.55433368  0.88809947  1
  H  H86  1  0.13220811  0.88995311  0.90077102  1
  H  H87  1  0.62124091  0.21777612  0.87831402  1
  H  H88  1  0.63116587  0.55722925  0.89810337  1
  H  H89  1  0.62703996  0.88802762  0.89026521  1
  H  H90  1  0.38203267  0.11721591  0.37935423  1
  H  H91  1  0.37819311  0.44999037  0.37974491  1
  H  H92  1  0.37540726  0.77836424  0.38879633  1
  H  H93  1  0.87931792  0.11164574  0.39034825  1
  H  H94  1  0.88075885  0.44801758  0.38408427  1
  H  H95  1  0.87483005  0.77965593  0.39128782  1
  H  H96  1  0.37528022  0.28130751  0.39087190  1
  H  H97  1  0.37507432  0.61388741  0.38298954  1
  H  H98  1  0.37427451  0.94680529  0.38651660  1
  H  H99  1  0.87967964  0.27965716  0.39447396  1
  H  H100  1  0.87521135  0.61246548  0.39047959  1
  H  H101  1  0.87616283  0.94310786  0.39402990  1
  H  H102  1  0.12932546  0.05205236  0.87774058  1
  H  H103  1  0.12898101  0.38466788  0.87744266  1
  H  H104  1  0.12390466  0.72240101  0.89849670  1
  H  H105  1  0.62475390  0.05349663  0.89177260  1
  H  H106  1  0.62814522  0.38653568  0.88621859  1
  H  H107  1  0.63026507  0.71908271  0.87840872  1
  H  H108  1  0.12620780  0.28019901  0.11384169  1
  H  H109  1  0.12470011  0.61505008  0.11399125  1
  H  H110  1  0.11860310  0.94361050  0.10485682  1
  H  H111  1  0.62690287  0.28089186  0.11605791  1
  H  H112  1  0.61771589  0.60711292  0.09637226  1
  H  H113  1  0.61914251  0.94231732  0.10093500  1
  H  H114  1  0.36794381  0.05209715  0.62054335  1
  H  H115  1  0.36912758  0.38163672  0.62128359  1
  H  H116  1  0.37423384  0.71927073  0.61197149  1
  H  H117  1  0.86919509  0.05208971  0.62119745  1
  H  H118  1  0.87454015  0.38795993  0.60752158  1
  H  H119  1  0.87669019  0.72213305  0.60108828  1
  H  H120  1  0.13455024  0.11030730  0.40084373  1
  H  H121  1  0.13144318  0.44301977  0.40163363  1
  H  H122  1  0.12536007  0.77914136  0.39005603  1
  H  H123  1  0.63080957  0.11376804  0.39280206  1
  H  H124  1  0.63253178  0.44379509  0.40097166  1
  H  H125  1  0.62537006  0.77704313  0.38742183  1
  H  H126  1  0.37652857  0.21774358  0.87994146  1
  H  H127  1  0.37643356  0.55597400  0.89320120  1
  H  H128  1  0.37980006  0.88390878  0.88367582  1
  H  H129  1  0.86928424  0.22365802  0.89979576  1
  H  H130  1  0.87996347  0.55385658  0.88339318  1
  H  H131  1  0.87588539  0.88599539  0.89265039  1
  H  H132  1  0.37278202  0.11150863  0.10967157  1
  H  H133  1  0.36959327  0.44498107  0.10829918  1
  H  H134  1  0.36836701  0.77659240  0.10007833  1
  H  H135  1  0.86940401  0.10712395  0.10238211  1
  H  H136  1  0.86738589  0.44563918  0.10094399  1
  H  H137  1  0.87422605  0.78059635  0.11328107  1
  H  H138  1  0.12158321  0.22099020  0.61798568  1
  H  H139  1  0.12396893  0.55207897  0.61002998  1
  H  H140  1  0.12109037  0.88334310  0.62119747  1
  H  H141  1  0.62568961  0.22034922  0.60576584  1
  H  H142  1  0.62775401  0.55672814  0.60399600  1
  H  H143  1  0.63113254  0.89260689  0.59797278  1
  H  H144  1  0.42718121  0.08282576  0.99586784  1
  H  H145  1  0.16857262  0.57764564  0.50451515  1
  H  H146  1  0.83125995  0.08462551  0.49486487  1
  H  H147  1  0.20118632  0.08502885  0.50781473  1
  H  H148  1  0.10546473  0.41375241  0.99061447  1
  H  H149  1  0.33000093  0.74736318  0.49301509  1
  H  H150  1  0.32990398  0.58087605  0.49932375  1
  H  H151  1  0.04952428  0.08270068  0.49490301  1
  H  H152  1  0.95127191  0.08081691  1.00606557  1
  H  H153  1  0.65715282  0.07553555  0.01520804  1
  H  H154  1  0.14801421  0.91290308  0.51371263  1
  H  H155  1  0.70177490  0.91021653  0.49504640  1
  H  H156  1  0.05683552  0.91551731  -0.00217398  1
  H  H157  1  0.17223291  0.08267967  0.00265392  1
  H  H158  1  0.64897801  0.24809857  0.98576803  1
  H  H159  1  0.54254283  0.58236543  -0.00324099  1
  H  H160  1  0.83583419  0.58212137  0.50520682  1
  H  H161  1  0.66867244  0.75303096  -0.00066998  1
  H  H162  1  0.69444071  0.58192129  1.00212441  1
  H  H163  1  0.19610910  0.24905787  1.00463323  1
  H  H164  1  0.80300883  0.24903813  1.00747003  1
  H  H165  1  0.82485624  0.25190586  0.50557906  1
  H  H166  1  0.83644357  0.75179353  0.00231283  1
  H  H167  1  0.85682258  0.91299659  0.51039837  1
  H  H168  1  0.35966443  0.08794868  0.48856520  1
  H  H169  1  0.34745618  0.91984043  0.98853164  1
  H  H170  1  0.19957070  0.90460747  1.00391392  1
  H  H171  1  0.58674497  0.41553388  0.99667329  1
  H  H172  1  0.94083843  0.41643632  1.00382091  1
  H  H173  1  0.08049973  0.25720194  0.00080623  1
  H  H174  1  0.92066911  0.25680157  0.00136587  1
  H  H175  1  0.30262135  0.91502200  0.49204705  1
  H  H176  1  0.30366570  0.75116514  -0.00356506  1
  H  H177  1  0.17044246  0.75023840  0.49934203  1
  H  H178  1  0.31688151  0.41495265  -0.00135538  1
  H  H179  1  0.38991326  0.41507471  0.50906278  1
  H  H180  1  0.67350411  0.74667338  0.49647468  1
  H  H181  1  0.70058856  0.41734173  0.50250297  1
  H  H182  1  0.32720076  0.58183034  0.99755585  1
  H  H183  1  0.80061958  0.41826550  -0.00673989  1
  H  H184  1  0.08358257  0.25500418  0.49664808  1
  H  H185  1  0.57202323  0.92694311  0.49718062  1
  H  H186  1  0.80446535  0.09067766  -0.00205112  1
  H  H187  1  0.16629952  0.58352072  0.99864588  1
  H  H188  1  0.55665415  0.08725758  0.49511555  1
  H  H189  1  0.41986840  0.92222718  0.49922733  1
  H  H190  1  0.45332268  0.75077709  1.00415551  1
  H  H191  1  0.54814497  0.41589960  0.49648309  1
  Pb  Pb192  1  0.24698475  0.04713498  0.74925309  1
  Pb  Pb193  1  0.25272746  0.37910947  0.75176449  1
  Pb  Pb194  1  0.24960334  0.71649851  0.75340696  1
  Pb  Pb195  1  0.75367688  0.04843493  0.75502265  1
  Pb  Pb196  1  0.74473422  0.38260499  0.74629421  1
  Pb  Pb197  1  0.75127912  0.71097987  0.74629131  1
  Pb  Pb198  1  0.25106532  0.28826070  0.24803727  1
  Pb  Pb199  1  0.24608408  0.61948467  0.25139976  1
  Pb  Pb200  1  0.25136036  0.95138174  0.24688204  1
  Pb  Pb201  1  0.75049449  0.28648126  0.25094724  1
  Pb  Pb202  1  0.75457211  0.61914832  0.24773291  1
  Pb  Pb203  1  0.74794797  0.95410534  0.25431332  1
  Pb  Pb204  1  -0.00062920  0.21827377  0.75259107  1
  Pb  Pb205  1  0.00178900  0.54536914  0.74830170  1
  Pb  Pb206  1  -0.00139397  0.87808828  0.75642275  1
  Pb  Pb207  1  0.49987427  0.21081933  0.74397429  1
  Pb  Pb208  1  0.49764104  0.54866421  0.75473336  1
  Pb  Pb209  1  0.50487766  0.88198535  0.74265694  1
  Pb  Pb210  1  0.00279891  0.11912347  0.24955338  1
  Pb  Pb211  1  0.00032837  0.45280390  0.24768540  1
  Pb  Pb212  1  -0.00106682  0.78865851  0.25310208  1
  Pb  Pb213  1  0.49965699  0.12212880  0.24840166  1
  Pb  Pb214  1  0.50112587  0.45491642  0.25717275  1
  Pb  Pb215  1  0.50089547  0.78354664  0.24404827  1
  C  C216  1  -0.00313096  0.04690802  0.63411426  1
  C  C217  1  -0.00139521  0.38097139  0.62848836  1
  C  C218  1  -0.00217918  0.71324261  0.63280408  1
  C  C219  1  0.49595135  0.04746383  0.63228741  1
  C  C220  1  0.49722989  0.37854954  0.63171083  1
  C  C221  1  0.49971432  0.71184926  0.63356369  1
  C  C222  1  0.00137360  0.28665426  0.13550616  1
  C  C223  1  -0.00162399  0.62077115  0.13190262  1
  C  C224  1  -0.00333259  0.95294022  0.13453104  1
  C  C225  1  0.49990657  0.28688270  0.13304875  1
  C  C226  1  0.50004757  0.61944304  0.13338241  1
  C  C227  1  0.49789178  0.95302878  0.13133052  1
  C  C228  1  0.00164533  0.04679118  0.86589490  1
  C  C229  1  0.00201207  0.38068040  0.86535494  1
  C  C230  1  0.00272297  0.71355748  0.86972782  1
  C  C231  1  0.50045784  0.04656137  0.86755165  1
  C  C232  1  0.50299822  0.37941758  0.86542545  1
  C  C233  1  0.50209826  0.71368503  0.86826878  1
  C  C234  1  0.00342278  0.28826479  0.36917258  1
  C  C235  1  -0.00010766  0.61993972  0.36801571  1
  C  C236  1  -0.00062829  0.95264325  0.36783151  1
  C  C237  1  0.50028503  0.28657411  0.36813602  1
  C  C238  1  0.50136298  0.61957808  0.36943736  1
  C  C239  1  0.50010693  0.95386409  0.36568146  1
  C  C240  1  0.24871046  0.21423103  0.63140794  1
  C  C241  1  0.24891548  0.54579804  0.63223104  1
  C  C242  1  0.24882475  0.88052214  0.63290157  1
  C  C243  1  0.74981898  0.21370379  0.63221273  1
  C  C244  1  0.75108641  0.54714411  0.63000920  1
  C  C245  1  0.74967619  0.87928184  0.63256768  1
  C  C246  1  0.24750731  0.11932707  0.13098269  1
  C  C247  1  0.24743514  0.45315679  0.13389230  1
  C  C248  1  0.24728658  0.78642520  0.13109684  1
  C  C249  1  0.74847213  0.11918933  0.13176210  1
  C  C250  1  0.74859890  0.45344803  0.13434081  1
  C  C251  1  0.74892645  0.78721350  0.13291237  1
  C  C252  1  0.24891163  0.21340251  0.86517528  1
  C  C253  1  0.25277141  0.54721439  0.86823568  1
  C  C254  1  0.25292899  0.87996803  0.86959892  1
  C  C255  1  0.74907681  0.21435725  0.86666795  1
  C  C256  1  0.75257567  0.54720853  0.86780675  1
  C  C257  1  0.75174929  0.87985746  0.86774217  1
  C  C258  1  0.25456481  0.12027007  0.36749124  1
  C  C259  1  0.25090907  0.45274058  0.36972984  1
  C  C260  1  0.25041129  0.78541395  0.36693121  1
  C  C261  1  0.75488423  0.12015266  0.36742943  1
  C  C262  1  0.75322164  0.45405683  0.36847423  1
  C  C263  1  0.75037289  0.78572918  0.36575317  1
  C  C264  1  0.80503550  0.57310354  0.95864393  1
  C  C265  1  0.22643158  0.23880036  0.96126582  1
  C  C266  1  0.95151527  0.73799289  0.95987289  1
  C  C267  1  0.27262090  0.90610605  0.53588575  1
  C  C268  1  0.71020677  0.76232674  0.03798337  1
  C  C269  1  0.53119763  0.59454779  0.46513016  1
  C  C270  1  0.01839544  0.07258106  0.53803082  1
  C  C271  1  0.04396613  0.59551235  0.04027210  1
  C  C272  1  0.53525262  0.25720666  0.46056369  1
  C  C273  1  0.30773263  0.42864291  0.45813899  1
  C  C274  1  0.44012466  0.07246319  0.54315229  1
  C  C275  1  0.95867375  0.40572280  0.53585439  1
  C  C276  1  0.05668711  0.40418324  0.95597436  1
  C  C277  1  0.29095070  0.09150029  0.03769751  1
  C  C278  1  0.21041535  0.75998860  0.46060165  1
  C  C279  1  0.19749426  0.42833176  0.04242518  1
  C  C280  1  0.56112096  0.74164921  0.95600627  1
  C  C281  1  0.22794964  0.42592065  0.46536229  1
  C  C282  1  0.95989826  0.26465670  0.04085984  1
  C  C283  1  0.27915550  0.42645720  0.03793764  1
  C  C284  1  0.45018630  0.59546338  0.45994291  1
  C  C285  1  0.97210559  0.74133316  0.53783389  1
  C  C286  1  0.52120933  0.07484233  0.53545102  1
  C  C287  1  0.19834195  0.24092720  0.54184244  1
  C  C288  1  0.80906226  0.90485609  0.54521673  1
  C  C289  1  0.23162355  0.09457435  0.46432956  1
  C  C290  1  0.76910580  0.42813183  0.03625964  1
  C  C291  1  0.43918893  0.40551031  0.54433341  1
  C  C292  1  0.52424962  0.92423746  0.03647173  1
  C  C293  1  0.19355569  0.75820802  0.04142415  1
  C  C294  1  0.45734627  0.92850823  0.45847518  1
  C  C295  1  0.20877642  0.57326427  0.96081684  1
  C  C296  1  0.71404293  0.90860610  0.95988780  1
  C  C297  1  0.03658133  0.59138469  0.46093435  1
  C  C298  1  0.03244033  0.73946325  0.96526367  1
  C  C299  1  0.54340273  0.40553369  0.95792865  1
  C  C300  1  0.97505818  0.40570639  0.96239685  1
  C  C301  1  0.96605068  0.92481098  0.46196109  1
  C  C302  1  0.68820676  0.42938159  0.04648477  1
  C  C303  1  0.71509728  0.57659518  0.53564326  1
  C  C304  1  0.98177483  0.07145432  0.96249354  1
  C  C305  1  0.04174273  0.26457696  0.04065129  1
  C  C306  1  0.77318332  0.23979495  0.96359349  1
  C  C307  1  0.28888758  0.57129611  0.53855244  1
  C  C308  1  0.03934229  0.40558244  0.53604586  1
  C  C309  1  0.71253071  0.75869088  0.45809917  1
  C  C310  1  0.02337988  0.92703044  0.03947005  1
  C  C311  1  0.79246811  0.76200456  0.03941993  1
  N  N312  1  0.20903359  0.57202069  0.54026335  1
  N  N313  1  0.28866889  0.57344417  0.96137292  1
  N  N314  1  0.72644413  0.57363706  0.96247722  1
  N  N315  1  0.46399594  0.40636053  0.96004503  1
  N  N316  1  0.22648745  0.91274920  0.96193924  1
  N  N317  1  0.53699755  0.92662590  0.45821035  1
  N  N318  1  0.45656495  0.73692901  0.54053145  1
  N  N319  1  0.47350195  0.25923185  0.03716684  1
  N  N320  1  0.51629306  0.59259764  0.03866974  1
  N  N321  1  0.77630201  0.08574940  0.04001291  1
  N  N322  1  0.94440010  0.92856582  0.04328579  1
  N  N323  1  0.04291337  0.26316208  0.46051985  1
  N  N324  1  0.45795954  0.25886734  0.46145854  1
  N  N325  1  0.71433410  0.09525085  0.46140034  1
  N  N326  1  0.04950337  0.74040545  0.54170446  1
  N  N327  1  0.70983434  0.23887303  0.53818841  1
  N  N328  1  0.93950040  0.07151649  0.54465482  1
  N  N329  1  0.54964003  0.26158369  0.04218398  1
  N  N330  1  0.04402923  0.92599969  0.46138179  1
  N  N331  1  0.96662489  0.59384192  0.03548689  1
  N  N332  1  0.78792443  0.23911485  0.54094512  1
  N  N333  1  0.54323043  0.07104505  0.96116883  1
  N  N334  1  0.72994672  0.90889170  0.53745934  1
  N  N335  1  0.29026139  0.76086345  0.45952129  1
  N  N336  1  0.95856966  0.59179074  0.46170267  1
  N  N337  1  0.69804455  0.09877369  0.04160563  1
  N  N338  1  0.19384729  0.90406091  0.54472440  1
  N  N339  1  0.21158230  0.09169219  0.03818349  1
  N  N340  1  0.80747550  0.42699527  0.45733779  1
  N  N341  1  0.79414339  0.57411486  0.53910683  1
  N  N342  1  0.44680497  0.92699675  0.03985931  1
  N  N343  1  0.46472539  0.07184969  0.95967080  1
  N  N344  1  0.30503125  0.90175870  0.95866903  1
  N  N345  1  0.30510958  0.23718338  0.95525880  1
  N  N346  1  0.79270687  0.09447833  0.45882136  1
  N  N347  1  0.51828903  0.40974372  0.53777918  1
  N  N348  1  0.27551598  0.24157661  0.53427880  1
  N  N349  1  0.27228808  0.75834792  0.03673990  1
  N  N350  1  0.69443241  0.23813816  0.95476035  1
  N  N351  1  0.48249992  0.74298854  0.96300644  1
  N  N352  1  0.43886378  0.59606567  0.04602013  1
  N  N353  1  0.96415099  0.26245440  0.46297219  1
  N  N354  1  0.79186768  0.76035305  0.45988357  1
  N  N355  1  0.53338321  0.73709199  0.53830261  1
  N  N356  1  0.06055864  0.07080524  0.95500761  1
  N  N357  1  0.72977996  0.42530788  0.46149530  1
  N  N358  1  0.79129231  0.90777382  0.96201972  1
  N  N359  1  0.31039514  0.09644562  0.45556613  1
  N  N360  1  0.05497185  0.05791317  0.59257479  1
  N  N361  1  0.06397858  0.39068669  0.59261704  1
  N  N362  1  0.06555285  0.72255775  0.60243593  1
  N  N363  1  0.55489695  0.05870956  0.59224262  1
  N  N364  1  0.55416541  0.39037103  0.59080469  1
  N  N365  1  0.56118923  0.72167562  0.59581535  1
  N  N366  1  0.44124318  0.27496298  0.09321967  1
  N  N367  1  0.42962909  0.61151009  0.10553082  1
  N  N368  1  0.43027883  0.94480706  0.10055053  1
  N  N369  1  0.93595387  0.27826250  0.10021584  1
  N  N370  1  0.93796245  0.61032549  0.09371512  1
  N  N371  1  0.92947202  0.94423532  0.10262043  1
  N  N372  1  0.43743077  0.05721837  0.90310475  1
  N  N373  1  0.44059875  0.38991154  0.90185521  1
  N  N374  1  0.44512433  0.72356777  0.90962870  1
  N  N375  1  0.94421834  0.05706102  0.90817649  1
  N  N376  1  0.94218861  0.39101764  0.90558549  1
  N  N377  1  0.93389704  0.72234555  0.90155033  1
  N  N378  1  0.06764552  0.27920424  0.40395033  1
  N  N379  1  0.06387981  0.60835920  0.40432147  1
  N  N380  1  0.06462500  0.94372176  0.40126168  1
  N  N381  1  0.56426255  0.27414670  0.40450026  1
  N  N382  1  0.56208010  0.60906915  0.40951709  1
  N  N383  1  0.56331959  0.94572416  0.40182505  1
  N  N384  1  0.30713599  0.22452622  0.59132996  1
  N  N385  1  0.31370917  0.55591441  0.59609529  1
  N  N386  1  0.30729842  0.89168047  0.59079007  1
  N  N387  1  0.81402770  0.22505448  0.59806209  1
  N  N388  1  0.81688510  0.55579524  0.59715854  1
  N  N389  1  0.82098164  0.88839088  0.60456422  1
  N  N390  1  0.18420528  0.10929603  0.09561549  1
  N  N391  1  0.17902027  0.44440700  0.10067706  1
  N  N392  1  0.17794573  0.77510768  0.09992297  1
  N  N393  1  0.68072224  0.10932574  0.10144888  1
  N  N394  1  0.67674437  0.44444974  0.10590212  1
  N  N395  1  0.68473701  0.77776635  0.09673818  1
  N  N396  1  0.19002835  0.22442483  0.90622654  1
  N  N397  1  0.18666994  0.55746521  0.90273688  1
  N  N398  1  0.19411464  0.88870737  0.90993106  1
  N  N399  1  0.67983393  0.22356614  0.89488409  1
  N  N400  1  0.69278578  0.55629179  0.90711074  1
  N  N401  1  0.68686084  0.89174056  0.90324408  1
  N  N402  1  0.32388446  0.11199937  0.39603909  1
  N  N403  1  0.32185920  0.44504675  0.39904182  1
  N  N404  1  0.31471028  0.77528142  0.40135784  1
  N  N405  1  0.81879889  0.10943817  0.40206078  1
  N  N406  1  0.82159641  0.44364660  0.39876175  1
  N  N407  1  0.81364191  0.77677222  0.40197433  1
  N  N408  1  0.43583077  0.27744863  0.40269384  1
  N  N409  1  0.43258638  0.61042204  0.40125919  1
  N  N410  1  0.43411043  0.94366867  0.40068626  1
  N  N411  1  0.94058496  0.27770416  0.40577510  1
  N  N412  1  0.93584699  0.61011464  0.40262925  1
  N  N413  1  0.93669478  0.94105722  0.40559470  1
  N  N414  1  0.07093041  0.05570556  0.89449490  1
  N  N415  1  0.07147557  0.38864255  0.89538982  1
  N  N416  1  0.06337335  0.72456815  0.90966253  1
  N  N417  1  0.56449890  0.05542968  0.90340031  1
  N  N418  1  0.56851146  0.38956946  0.89998725  1
  N  N419  1  0.57319024  0.72424279  0.89711545  1
  N  N420  1  0.06639538  0.27798115  0.09986302  1
  N  N421  1  0.06580480  0.61146042  0.09869559  1
  N  N422  1  0.05721951  0.94218840  0.09502045  1
  N  N423  1  0.56735256  0.27869627  0.10166359  1
  N  N424  1  0.55514835  0.60829194  0.09086145  1
  N  N425  1  0.55786152  0.94009340  0.09124185  1
  N  N426  1  0.42536585  0.05598676  0.60208420  1
  N  N427  1  0.42643891  0.38748832  0.60303077  1
  N  N428  1  0.43472387  0.72142402  0.59952110  1
  N  N429  1  0.92795479  0.05550969  0.60485945  1
  N  N430  1  0.93340803  0.39093359  0.59223660  1
  N  N431  1  0.93787601  0.72492079  0.59222996  1
  N  N432  1  0.19632563  0.10893936  0.40957565  1
  N  N433  1  0.19276259  0.44076041  0.41155110  1
  N  N434  1  0.18560761  0.77577136  0.40320004  1
  N  N435  1  0.69167825  0.11089837  0.40397882  1
  N  N436  1  0.69487371  0.44361449  0.40858307  1
  N  N437  1  0.68540099  0.77434740  0.40063135  1
  N  N438  1  0.31732652  0.22165058  0.89551154  1
  N  N439  1  0.31560344  0.55688084  0.90445202  1
  N  N440  1  0.32119793  0.89115200  0.89893606  1
  N  N441  1  0.80762293  0.22493117  0.90886958  1
  N  N442  1  0.82153993  0.55713549  0.89997137  1
  N  N443  1  0.81517590  0.88955341  0.90317109  1
  N  N444  1  0.31319632  0.10820651  0.09523731  1
  N  N445  1  0.30901452  0.44227447  0.09609292  1
  N  N446  1  0.30654614  0.77744322  0.09130748  1
  N  N447  1  0.80798019  0.10972495  0.09212640  1
  N  N448  1  0.80570816  0.44316403  0.09232825  1
  N  N449  1  0.81466774  0.77729332  0.09873340  1
  N  N450  1  0.17953940  0.22427405  0.60077842  1
  N  N451  1  0.18463621  0.55525112  0.59765541  1
  N  N452  1  0.17958537  0.88898341  0.60444772  1
  N  N453  1  0.68666896  0.22268344  0.59531300  1
  N  N454  1  0.68812027  0.55968869  0.59179152  1
  N  N455  1  0.69317499  0.88918060  0.59059322  1
  Cl  Cl456  1  0.23958139  0.05407207  0.61354453  1
  Cl  Cl457  1  0.24588787  0.38393456  0.62113722  1
  Cl  Cl458  1  0.25218391  0.72089492  0.61456859  1
  Cl  Cl459  1  0.74371408  0.05227318  0.62198600  1
  Cl  Cl460  1  0.73775487  0.39190633  0.60766347  1
  Cl  Cl461  1  0.74693268  0.71830316  0.61217158  1
  Cl  Cl462  1  0.25243647  0.27696937  0.11338513  1
  Cl  Cl463  1  0.24800016  0.61443324  0.11486753  1
  Cl  Cl464  1  0.24300025  0.94187845  0.10706524  1
  Cl  Cl465  1  0.75135911  0.27605130  0.11412770  1
  Cl  Cl466  1  0.74065173  0.60611602  0.10505217  1
  Cl  Cl467  1  0.74268633  0.95005981  0.12283731  1
  Cl  Cl468  1  0.25442918  0.05316185  0.88520583  1
  Cl  Cl469  1  0.25563315  0.38691006  0.88397513  1
  Cl  Cl470  1  0.25983650  0.72597390  0.89530771  1
  Cl  Cl471  1  0.75425488  0.05918094  0.89674082  1
  Cl  Cl472  1  0.75579179  0.38591408  0.87999841  1
  Cl  Cl473  1  0.75210573  0.71577808  0.87882075  1
  Cl  Cl474  1  0.24861436  0.28171773  0.37998723  1
  Cl  Cl475  1  0.24648017  0.61182045  0.38572146  1
  Cl  Cl476  1  0.25045097  0.94579682  0.38499576  1
  Cl  Cl477  1  0.75516352  0.27846951  0.38466548  1
  Cl  Cl478  1  0.75078452  0.61049711  0.38255744  1
  Cl  Cl479  1  0.74751697  0.94098240  0.39526394  1
  Cl  Cl480  1  -0.00216464  0.22168793  0.61736031  1
  Cl  Cl481  1  0.00077406  0.55124394  0.61483192  1
  Cl  Cl482  1  0.00059905  0.88208066  0.62422094  1
  Cl  Cl483  1  0.49975615  0.22075275  0.61254880  1
  Cl  Cl484  1  0.50107884  0.54999138  0.62338256  1
  Cl  Cl485  1  0.50391129  0.89417750  0.60266397  1
  Cl  Cl486  1  -0.00662534  0.10954553  0.11337897  1
  Cl  Cl487  1  -0.00670429  0.44749822  0.11438222  1
  Cl  Cl488  1  -0.00248180  0.78224196  0.12238781  1
  Cl  Cl489  1  0.49704673  0.11037513  0.11387533  1
  Cl  Cl490  1  0.49503950  0.45102115  0.12600943  1
  Cl  Cl491  1  0.49146472  0.77554350  0.10473183  1
  Cl  Cl492  1  -0.00267700  0.22211026  0.88709609  1
  Cl  Cl493  1  0.00409251  0.55360848  0.87820170  1
  Cl  Cl494  1  0.00947834  0.88750591  0.89131146  1
  Cl  Cl495  1  0.50021495  0.21492229  0.87640474  1
  Cl  Cl496  1  0.50687713  0.56009506  0.89624781  1
  Cl  Cl497  1  0.50220380  0.88130907  0.87581707  1
  Cl  Cl498  1  0.00741831  0.11216666  0.38622956  1
  Cl  Cl499  1  0.00594649  0.44969242  0.37916082  1
  Cl  Cl500  1  0.00007308  0.78205891  0.38463330  1
  Cl  Cl501  1  0.50755992  0.11437249  0.38240407  1
  Cl  Cl502  1  0.51374494  0.44233905  0.39497059  1
  Cl  Cl503  1  0.49818574  0.78291801  0.37603078  1
  Cl  Cl504  1  0.36337296  0.14419239  0.75032380  1
  Cl  Cl505  1  0.36149864  0.47822029  0.75204010  1
  Cl  Cl506  1  0.35773002  0.81149214  0.75049686  1
  Cl  Cl507  1  0.85842653  0.14264243  0.74929014  1
  Cl  Cl508  1  0.86459123  0.47857614  0.75047889  1
  Cl  Cl509  1  0.86193776  0.81216391  0.74905765  1
  Cl  Cl510  1  0.13711786  0.18782430  0.24783420  1
  Cl  Cl511  1  0.13909319  0.52297716  0.24742289  1
  Cl  Cl512  1  0.13789939  0.85570134  0.24913895  1
  Cl  Cl513  1  0.63901180  0.18737053  0.24744122  1
  Cl  Cl514  1  0.63555612  0.52204317  0.24716277  1
  Cl  Cl515  1  0.63659520  0.85536585  0.25187439  1
  Cl  Cl516  1  0.13999442  0.14291084  0.75035711  1
  Cl  Cl517  1  0.13895252  0.47835988  0.75189909  1
  Cl  Cl518  1  0.14136519  0.81035496  0.74765105  1
  Cl  Cl519  1  0.63795780  0.14426537  0.75390555  1
  Cl  Cl520  1  0.64117545  0.47698907  0.74978639  1
  Cl  Cl521  1  0.63896592  0.81149602  0.74906581  1
  Cl  Cl522  1  0.36168630  0.18661972  0.25217815  1
  Cl  Cl523  1  0.36402807  0.52279064  0.25314274  1
  Cl  Cl524  1  0.35800346  0.85740171  0.25028583  1
  Cl  Cl525  1  0.86179683  0.18880783  0.24898560  1
  Cl  Cl526  1  0.85812931  0.52359608  0.25137411  1
  Cl  Cl527  1  0.86290575  0.85574101  0.25060589  1
  Cl  Cl528  1  0.11062421  0.30988088  0.75055638  1
  Cl  Cl529  1  0.11471197  0.64527481  0.74739853  1
  Cl  Cl530  1  0.11414494  0.97703507  0.75355089  1
  Cl  Cl531  1  0.61297684  0.31102714  0.75123468  1
  Cl  Cl532  1  0.61282012  0.64407112  0.75426634  1
  Cl  Cl533  1  0.60719820  0.97703106  0.75106420  1
  Cl  Cl534  1  0.38603917  0.02123567  0.24841244  1
  Cl  Cl535  1  0.38759808  0.35540002  0.25338091  1
  Cl  Cl536  1  0.38583038  0.68976117  0.24867818  1
  Cl  Cl537  1  0.88460325  0.02202272  0.24959857  1
  Cl  Cl538  1  0.88790448  0.35545853  0.25136741  1
  Cl  Cl539  1  0.88593407  0.68849419  0.25063216  1
  Cl  Cl540  1  0.38788925  0.31136527  0.74997809  1
  Cl  Cl541  1  0.38900065  0.64243777  0.75188382  1
  Cl  Cl542  1  0.38549036  0.97761912  0.74799250  1
  Cl  Cl543  1  0.88997249  0.30968701  0.74768643  1
  Cl  Cl544  1  0.88849395  0.64449941  0.75208120  1
  Cl  Cl545  1  0.88850762  0.97839044  0.74740862  1
  Cl  Cl546  1  0.11100874  0.02308313  0.25212878  1
  Cl  Cl547  1  0.11151385  0.35595913  0.24699896  1
  Cl  Cl548  1  0.11339277  0.68980857  0.24947067  1
  Cl  Cl549  1  0.61286916  0.02169824  0.25131276  1
  Cl  Cl550  1  0.61383768  0.35572469  0.24797077  1
  Cl  Cl551  1  0.60651315  0.68973317  0.24857671  1
