# generated using pymatgen
data_H8PbC4(N3Cl2)2
_symmetry_space_group_name_H-M   'P 1'
_cell_length_a   16.62435006
_cell_length_b   22.51196201
_cell_length_c   21.59110865
_cell_angle_alpha   89.99933558
_cell_angle_beta   90.00388899
_cell_angle_gamma   89.99791194
_symmetry_Int_Tables_number   1
_chemical_formula_structural   H8PbC4(N3Cl2)2
_chemical_formula_sum   'H192 Pb24 C96 N144 Cl96'
_cell_volume   8080.40193421
_cell_formula_units_Z   24
loop_
 _symmetry_equiv_pos_site_id
 _symmetry_equiv_pos_as_xyz
  1  'x, y, z'
loop_
 _atom_site_type_symbol
 _atom_site_label
 _atom_site_symmetry_multiplicity
 _atom_site_fract_x
 _atom_site_fract_y
 _atom_site_fract_z
 _atom_site_occupancy
  H  H0  1  -0.00837808  0.02945417  0.68067340  1
  H  H1  1  0.00004721  0.36497600  0.67246999  1
  H  H2  1  0.00644287  0.69696605  0.67818068  1
  H  H3  1  0.49965302  0.02952657  0.67658477  1
  H  H4  1  0.51203156  0.36405041  0.67773591  1
  H  H5  1  0.49243464  0.69699438  0.67506072  1
  H  H6  1  0.01115636  0.30144686  0.17960955  1
  H  H7  1  0.02032959  0.64014615  0.17775251  1
  H  H8  1  0.01316188  0.97017946  0.17979298  1
  H  H9  1  0.48772882  0.29951228  0.17840104  1
  H  H10  1  0.48035551  0.63843024  0.17667653  1
  H  H11  1  0.48632988  0.96946272  0.17683591  1
  H  H12  1  0.01834833  0.03129959  0.82734731  1
  H  H13  1  -0.01268082  0.36582226  0.81954669  1
  H  H14  1  -0.00128605  0.69704025  0.82028938  1
  H  H15  1  0.48524949  0.03004079  0.82150055  1
  H  H16  1  0.50569552  0.36607928  0.81767281  1
  H  H17  1  0.49650865  0.69502105  0.82614009  1
  H  H18  1  0.01603793  0.30479881  0.32461051  1
  H  H19  1  0.00310845  0.63709978  0.32631965  1
  H  H20  1  -0.00582320  0.97106641  0.31778302  1
  H  H21  1  0.48382806  0.30392141  0.32577471  1
  H  H22  1  0.49670780  0.63638750  0.32131074  1
  H  H23  1  0.50378465  0.97074378  0.31709157  1
  H  H24  1  0.24109107  0.19252520  0.67984073  1
  H  H25  1  0.26163737  0.52877877  0.67457322  1
  H  H26  1  0.24991671  0.86523328  0.68244820  1
  H  H27  1  0.75751038  0.19951058  0.67667719  1
  H  H28  1  0.74913130  0.52572532  0.67961617  1
  H  H29  1  0.75266038  0.86297965  0.67852539  1
  H  H30  1  0.25781130  0.13597150  0.18107260  1
  H  H31  1  0.26291547  0.46659736  0.17767817  1
  H  H32  1  0.26118603  0.79742715  0.17575396  1
  H  H33  1  0.73866982  0.13770296  0.17859844  1
  H  H34  1  0.73799731  0.47159976  0.17890165  1
  H  H35  1  0.75256096  0.80539561  0.17775413  1
  H  H36  1  0.24274102  0.19497669  0.81909506  1
  H  H37  1  0.24056460  0.52613106  0.81824305  1
  H  H38  1  0.24726039  0.85184342  0.82566455  1
  H  H39  1  0.75683451  0.19642137  0.82466116  1
  H  H40  1  0.75496896  0.53256869  0.82231745  1
  H  H41  1  0.74753010  0.86277798  0.82304733  1
  H  H42  1  0.24292408  0.13540765  0.32072440  1
  H  H43  1  0.23015774  0.46980317  0.32587290  1
  H  H44  1  0.23742068  0.80326595  0.32202062  1
  H  H45  1  0.75836911  0.13464896  0.31977717  1
  H  H46  1  0.76868893  0.47117930  0.32461993  1
  H  H47  1  0.76299154  0.80325158  0.32566272  1
  H  H48  1  0.12626782  0.05397771  0.61982922  1
  H  H49  1  0.12139407  0.38915287  0.60253848  1
  H  H50  1  0.11665877  0.72372523  0.59522673  1
  H  H51  1  0.62768703  0.04868187  0.60816457  1
  H  H52  1  0.62592241  0.39275977  0.59913726  1
  H  H53  1  0.62291616  0.72128134  0.61278112  1
  H  H54  1  0.38313846  0.27651120  0.09320999  1
  H  H55  1  0.38229184  0.60727266  0.08792218  1
  H  H56  1  0.38014139  0.93812297  0.09350609  1
  H  H57  1  0.87485428  0.28431930  0.12149839  1
  H  H58  1  0.87614372  0.62029375  0.13288372  1
  H  H59  1  0.87500999  0.95111477  0.12099498  1
  H  H60  1  0.37915588  0.06007023  0.90538076  1
  H  H61  1  0.37124080  0.38512970  0.88095477  1
  H  H62  1  0.38138992  0.72598954  0.90060210  1
  H  H63  1  0.87652113  0.04694820  0.87403716  1
  H  H64  1  0.87612248  0.38938356  0.89957087  1
  H  H65  1  0.87943226  0.72109906  0.89395833  1
  H  H66  1  0.11847321  0.27554278  0.41051056  1
  H  H67  1  0.12772541  0.60879062  0.39417094  1
  H  H68  1  0.12311913  0.94667693  0.38431960  1
  H  H69  1  0.62747077  0.28800120  0.37507494  1
  H  H70  1  0.62111275  0.61365955  0.38968176  1
  H  H71  1  0.62597308  0.94582048  0.38970376  1
  H  H72  1  0.37081686  0.21813102  0.61701135  1
  H  H73  1  0.36933223  0.55861119  0.59285393  1
  H  H74  1  0.37435938  0.88600260  0.61325043  1
  H  H75  1  0.86974501  0.22521546  0.59842422  1
  H  H76  1  0.87713918  0.55071112  0.61217514  1
  H  H77  1  0.87326292  0.88485740  0.60692814  1
  H  H78  1  0.12208285  0.11606872  0.11932037  1
  H  H79  1  0.12757707  0.44788127  0.12216521  1
  H  H80  1  0.12054660  0.78305337  0.12440110  1
  H  H81  1  0.62123549  0.10848936  0.10383894  1
  H  H82  1  0.63229179  0.44316319  0.09377443  1
  H  H83  1  0.62072666  0.78228434  0.11389261  1
  H  H84  1  0.11970205  0.22044633  0.89113896  1
  H  H85  1  0.12205051  0.55438333  0.89334481  1
  H  H86  1  0.12407303  0.88894277  0.89081624  1
  H  H87  1  0.62019772  0.21746238  0.88131511  1
  H  H88  1  0.62565485  0.55403182  0.88532557  1
  H  H89  1  0.62511010  0.88823400  0.89436675  1
  H  H90  1  0.36911659  0.11209445  0.38958819  1
  H  H91  1  0.37305453  0.45493543  0.37150629  1
  H  H92  1  0.37932624  0.78152908  0.37132820  1
  H  H93  1  0.86884468  0.11196028  0.40376706  1
  H  H94  1  0.87910855  0.44151927  0.40500118  1
  H  H95  1  0.87190133  0.77582692  0.40873411  1
  H  H96  1  0.38602737  0.27091846  0.41257494  1
  H  H97  1  0.37172006  0.61118027  0.38972050  1
  H  H98  1  0.37686013  0.94608983  0.38541339  1
  H  H99  1  0.87426826  0.28603339  0.37503395  1
  H  H100  1  0.87852602  0.61103119  0.39474916  1
  H  H101  1  0.87417056  0.94731433  0.39266098  1
  H  H102  1  0.11857444  0.06065167  0.91306751  1
  H  H103  1  0.12386622  0.38298844  0.87814702  1
  H  H104  1  0.12862241  0.72026007  0.88329406  1
  H  H105  1  0.62520688  0.04847354  0.87484104  1
  H  H106  1  0.61950752  0.39175651  0.89677599  1
  H  H107  1  0.62962606  0.71909776  0.88725236  1
  H  H108  1  0.12217812  0.27915884  0.10027388  1
  H  H109  1  0.11786792  0.60759089  0.08956562  1
  H  H110  1  0.12219437  0.94324106  0.09703473  1
  H  H111  1  0.62854640  0.28278406  0.12488731  1
  H  H112  1  0.62365517  0.62017296  0.12732992  1
  H  H113  1  0.62571649  0.94887285  0.12358350  1
  H  H114  1  0.37978276  0.06015092  0.60554649  1
  H  H115  1  0.37892757  0.38577097  0.61533296  1
  H  H116  1  0.37474232  0.72195746  0.59843256  1
  H  H117  1  0.87941356  0.05412710  0.59843136  1
  H  H118  1  0.87301167  0.38710953  0.60772319  1
  H  H119  1  0.87015964  0.71858665  0.61921403  1
  H  H120  1  0.12040540  0.11287983  0.39486260  1
  H  H121  1  0.13129908  0.44105337  0.41356502  1
  H  H122  1  0.13744309  0.77189348  0.40999434  1
  H  H123  1  0.62247241  0.11478974  0.38132132  1
  H  H124  1  0.63195050  0.44945489  0.38262928  1
  H  H125  1  0.62621043  0.78092138  0.38390310  1
  H  H126  1  0.36916706  0.22102808  0.88524368  1
  H  H127  1  0.37092430  0.55303243  0.88076590  1
  H  H128  1  0.37223682  0.88188706  0.89272455  1
  H  H129  1  0.86650340  0.22506921  0.90663035  1
  H  H130  1  0.87414904  0.55561457  0.89744189  1
  H  H131  1  0.87368265  0.88918327  0.89150315  1
  H  H132  1  0.37007594  0.10876342  0.10146643  1
  H  H133  1  0.37406948  0.44179620  0.09690463  1
  H  H134  1  0.36487577  0.77483092  0.09091189  1
  H  H135  1  0.86959100  0.11704735  0.11315827  1
  H  H136  1  0.87730506  0.44946377  0.12404011  1
  H  H137  1  0.86884504  0.77756656  0.10286111  1
  H  H138  1  0.12208596  0.22550960  0.60718956  1
  H  H139  1  0.12334817  0.54713596  0.61793305  1
  H  H140  1  0.12479310  0.88698061  0.61338154  1
  H  H141  1  0.62208623  0.21763294  0.61758998  1
  H  H142  1  0.62893632  0.55564074  0.60655246  1
  H  H143  1  0.62491599  0.88465476  0.61371956  1
  H  H144  1  0.14759687  0.41577292  0.00722470  1
  H  H145  1  0.03445158  0.58615772  -0.00702398  1
  H  H146  1  0.71061548  0.41844387  -0.00551862  1
  H  H147  1  0.55461956  0.41829762  1.00307514  1
  H  H148  1  0.43153484  0.74976906  0.49647135  1
  H  H149  1  0.17415902  0.08177049  0.49676905  1
  H  H150  1  0.08084435  0.57700717  0.49836091  1
  H  H151  1  0.83303803  0.57902170  0.50761484  1
  H  H152  1  0.56026564  0.41656531  0.49663662  1
  H  H153  1  0.17393183  0.23628281  0.99855642  1
  H  H154  1  0.33175708  0.91501267  0.50262630  1
  H  H155  1  0.04380605  0.74982593  0.49491281  1
  H  H156  1  0.61792773  0.25148530  0.48324034  1
  H  H157  1  0.88580061  0.08051231  -0.01058283  1
  H  H158  1  0.45596025  0.91273645  -0.00618169  1
  H  H159  1  0.57678970  0.58096581  0.50027874  1
  H  H160  1  0.46761793  0.58514761  -0.00862885  1
  H  H161  1  0.65454823  0.75478122  0.49200853  1
  H  H162  1  0.93044708  0.75264356  1.00151612  1
  H  H163  1  0.22074166  0.74596031  0.50616531  1
  H  H164  1  0.05670938  0.25311753  -0.00913703  1
  H  H165  1  0.93806500  0.41624180  1.00635295  1
  H  H166  1  0.45341440  0.08107691  1.00604379  1
  H  H167  1  0.60827024  0.07946078  0.98764163  1
  H  H168  1  0.30375985  0.08094018  -0.00374231  1
  H  H169  1  0.36617325  0.42534247  0.48748060  1
  H  H170  1  0.45786791  0.25304210  -0.01219684  1
  H  H171  1  0.16718779  0.91607274  0.50313091  1
  H  H172  1  0.04994917  0.91967373  -0.00792387  1
  H  H173  1  0.32590304  0.25366564  0.99591882  1
  H  H174  1  0.65947246  0.58139051  -0.00143609  1
  H  H175  1  0.18097797  0.57458650  0.99851373  1
  H  H176  1  0.58750641  0.08777855  0.50903895  1
  H  H177  1  0.81067030  0.25140682  0.49061493  1
  H  H178  1  0.33260528  0.24891372  0.50504247  1
  H  H179  1  0.18204326  0.90256719  0.99796612  1
  H  H180  1  0.59503147  0.75207443  0.99310689  1
  H  H181  1  0.17992591  0.24653451  0.50138144  1
  H  H182  1  0.33345395  0.58370749  0.99236388  1
  H  H183  1  0.92826187  0.91724061  0.49893469  1
  H  H184  1  0.43511538  0.07059643  0.50010431  1
  H  H185  1  0.61197522  0.25335972  0.01460671  1
  H  H186  1  0.88073263  0.58548979  0.02058634  1
  H  H187  1  0.09809927  0.75228548  0.99543293  1
  H  H188  1  0.57552089  0.91575466  0.49693994  1
  H  H189  1  0.47049020  0.25835810  0.51078272  1
  H  H190  1  0.03824851  0.25394983  0.50993793  1
  H  H191  1  0.31084662  0.89375090  0.99968145  1
  Pb  Pb192  1  0.24664592  0.04975888  0.75564241  1
  Pb  Pb193  1  0.24787438  0.38020636  0.74679281  1
  Pb  Pb194  1  0.25368194  0.71551488  0.74407527  1
  Pb  Pb195  1  0.75056129  0.04654601  0.74520193  1
  Pb  Pb196  1  0.74968273  0.38327090  0.75579324  1
  Pb  Pb197  1  0.74863566  0.71306008  0.75189396  1
  Pb  Pb198  1  0.24617420  0.28315132  0.25022621  1
  Pb  Pb199  1  0.25052051  0.61818837  0.23856789  1
  Pb  Pb200  1  0.24484067  0.94858585  0.24261609  1
  Pb  Pb201  1  0.75045736  0.28594628  0.24947989  1
  Pb  Pb202  1  0.74624608  0.61759628  0.25875700  1
  Pb  Pb203  1  0.75048436  0.95394080  0.25443198  1
  Pb  Pb204  1  -0.00728494  0.21645282  0.74794343  1
  Pb  Pb205  1  0.00260407  0.54929951  0.75441239  1
  Pb  Pb206  1  -0.00158931  0.88093719  0.75119249  1
  Pb  Pb207  1  0.49868471  0.21458778  0.74817741  1
  Pb  Pb208  1  0.49833370  0.54775988  0.74743087  1
  Pb  Pb209  1  0.50271349  0.88233523  0.75473526  1
  Pb  Pb210  1  -0.00355160  0.11960280  0.25445337  1
  Pb  Pb211  1  0.00040232  0.45316511  0.26169908  1
  Pb  Pb212  1  -0.00562327  0.78290203  0.25814159  1
  Pb  Pb213  1  0.49666677  0.11683182  0.24630623  1
  Pb  Pb214  1  0.49765991  0.45004029  0.24613511  1
  Pb  Pb215  1  0.50094209  0.78645086  0.24293960  1
  C  C216  1  -0.00098207  0.04531502  0.63353086  1
  C  C217  1  -0.00190987  0.38065017  0.62516822  1
  C  C218  1  -0.00189350  0.71204917  0.63095008  1
  C  C219  1  0.50229834  0.04612209  0.62937303  1
  C  C220  1  0.50605290  0.38008385  0.63059853  1
  C  C221  1  0.49614613  0.71300865  0.62778664  1
  C  C222  1  0.00279604  0.28799821  0.13188274  1
  C  C223  1  0.00485450  0.62366146  0.13188160  1
  C  C224  1  0.00348642  0.95517348  0.13261531  1
  C  C225  1  0.50060781  0.28517818  0.13123771  1
  C  C226  1  0.49495997  0.62280750  0.13046120  1
  C  C227  1  0.49703974  0.95345363  0.13026084  1
  C  C228  1  0.00336623  0.04644734  0.87355238  1
  C  C229  1  -0.00459675  0.37960317  0.86730514  1
  C  C230  1  0.00240909  0.71297311  0.86776101  1
  C  C231  1  0.49625903  0.04486899  0.86877281  1
  C  C232  1  0.49852712  0.38081756  0.86521163  1
  C  C233  1  0.50291458  0.71313609  0.87234489  1
  C  C234  1  0.00311214  0.28992139  0.37128978  1
  C  C235  1  0.00359372  0.61941174  0.37294993  1
  C  C236  1  -0.00262102  0.95521988  0.36514286  1
  C  C237  1  0.49917966  0.28758090  0.37174567  1
  C  C238  1  0.49708440  0.62049037  0.36858254  1
  C  C239  1  0.50205966  0.95466798  0.36439786  1
  C  C240  1  0.24417654  0.21006263  0.63302104  1
  C  C241  1  0.25110910  0.54445935  0.62793210  1
  C  C242  1  0.24966743  0.88001473  0.63452008  1
  C  C243  1  0.75005193  0.21307569  0.62884463  1
  C  C244  1  0.75196408  0.54324829  0.63288063  1
  C  C245  1  0.75029158  0.87767455  0.63082943  1
  C  C246  1  0.24972024  0.12030001  0.13394561  1
  C  C247  1  0.25406674  0.45207562  0.13029660  1
  C  C248  1  0.24843136  0.78512933  0.12837440  1
  C  C249  1  0.74341942  0.12144521  0.13166888  1
  C  C250  1  0.74881918  0.45620214  0.13198240  1
  C  C251  1  0.74698660  0.78911281  0.13092727  1
  C  C252  1  0.24333911  0.21095289  0.86664159  1
  C  C253  1  0.24406726  0.54242888  0.86558338  1
  C  C254  1  0.24781534  0.87252104  0.87118270  1
  C  C255  1  0.74800533  0.21260545  0.87133805  1
  C  C256  1  0.75080114  0.54665844  0.87013200  1
  C  C257  1  0.74902017  0.87947592  0.86994306  1
  C  C258  1  0.24388336  0.11965865  0.36819990  1
  C  C259  1  0.24597419  0.45514562  0.37210014  1
  C  C260  1  0.25110847  0.78690584  0.36811509  1
  C  C261  1  0.74989333  0.12081581  0.36753600  1
  C  C262  1  0.75963906  0.45518432  0.37128885  1
  C  C263  1  0.75349940  0.78777702  0.37266325  1
  C  C264  1  0.78655310  0.90470723  0.53710389  1
  C  C265  1  0.29226302  0.24001711  0.54356052  1
  C  C266  1  0.03475857  0.40972476  0.53286252  1
  C  C267  1  0.77543360  0.75778791  0.03718403  1
  C  C268  1  0.23509415  0.42709345  0.46969845  1
  C  C269  1  0.96898702  0.74123855  0.96241815  1
  C  C270  1  0.94528329  0.26415993  0.04360049  1
  C  C271  1  0.69364222  0.23972271  0.95917931  1
  C  C272  1  0.96129811  0.58712984  0.46477873  1
  C  C273  1  0.28731535  0.24042005  0.95767225  1
  C  C274  1  0.93664607  0.07222536  0.95851058  1
  C  C275  1  0.53621105  0.92675744  0.45756619  1
  C  C276  1  0.56047779  0.92299255  0.04527009  1
  C  C277  1  0.93418429  0.59438418  0.05116366  1
  C  C278  1  0.77452676  0.23965103  0.53147376  1
  C  C279  1  0.05113786  0.74099653  0.95884256  1
  C  C280  1  0.02136202  0.92873890  0.03639979  1
  C  C281  1  0.95381569  0.40879524  0.53456152  1
  C  C282  1  0.53685465  0.59202629  0.46220488  1
  C  C283  1  0.97272887  0.40567533  0.96518878  1
  C  C284  1  0.18434392  0.76506130  0.04152258  1
  C  C285  1  0.01646140  0.07670525  0.97032042  1
  C  C286  1  0.55893999  0.07168408  0.95405263  1
  C  C287  1  0.78589410  0.57171838  0.96550781  1
  C  C288  1  0.20850011  0.90570408  0.54069829  1
  C  C289  1  0.96585459  0.92779790  0.45892639  1
  C  C290  1  0.78068462  0.42173724  0.46489810  1
  C  C291  1  0.54717392  0.74205790  0.53745071  1
  C  C292  1  0.52242951  0.40730310  0.96063193  1
  C  C293  1  0.45519337  0.59168218  0.46095241  1
  C  C294  1  0.70476690  0.90481159  0.53952610  1
  C  C295  1  0.48425575  0.26098192  0.03320800  1
  C  C296  1  0.29255516  0.57241241  0.95486821  1
  C  C297  1  0.71377597  0.91056991  0.96179097  1
  C  C298  1  0.27204814  0.09216332  0.03883257  1
  C  C299  1  0.93608889  0.26164268  0.45531438  1
  C  C300  1  0.19710747  0.42535937  0.04114161  1
  C  C301  1  0.69356211  0.23627480  0.53943673  1
  C  C302  1  0.26931059  0.57591111  0.53291068  1
  C  C303  1  0.05360067  0.40314480  0.95623740  1
  C  C304  1  0.71366270  0.09005939  0.03825040  1
  C  C305  1  0.70411370  0.57166213  0.96291879  1
  C  C306  1  0.31470846  0.43232031  0.45695310  1
  C  C307  1  0.29072130  0.90519636  0.54049777  1
  C  C308  1  0.27822683  0.42371517  0.03438777  1
  C  C309  1  0.26351128  0.76232614  0.03052068  1
  C  C310  1  0.02574867  0.26254360  0.03411304  1
  C  C311  1  0.47245502  0.74780012  0.96591582  1
  N  N312  1  0.21303642  0.57317199  0.95804979  1
  N  N313  1  0.21057531  0.09316144  0.46020431  1
  N  N314  1  0.29024118  0.91125483  0.95839248  1
  N  N315  1  0.56217209  0.26084357  0.04583137  1
  N  N316  1  0.77212659  0.09585735  0.46482536  1
  N  N317  1  0.05137902  0.07415082  0.54467346  1
  N  N318  1  0.77750634  0.76024069  0.46916611  1
  N  N319  1  0.46758391  0.08114706  0.53904797  1
  N  N320  1  0.54618263  0.06683825  0.53728587  1
  N  N321  1  0.04521697  0.92694472  0.45677021  1
  N  N322  1  0.97522600  0.07484522  0.53794819  1
  N  N323  1  0.01180136  0.59027826  0.03729718  1
  N  N324  1  0.20828487  0.91554500  0.95684578  1
  N  N325  1  0.56638992  0.26569794  0.45450249  1
  N  N326  1  0.04066801  0.58722208  0.46372400  1
  N  N327  1  0.19243298  0.57180620  0.53967395  1
  N  N328  1  0.31944911  0.75848861  0.45052026  1
  N  N329  1  0.24297034  0.75483193  0.46192219  1
  N  N330  1  0.48024927  0.07652353  0.96328201  1
  N  N331  1  0.01715061  0.74121950  0.53737921  1
  N  N332  1  0.45209350  0.40739265  0.54212297  1
  N  N333  1  0.46789688  0.74195733  0.53398353  1
  N  N334  1  0.79117490  0.09285050  0.04025957  1
  N  N335  1  0.79102857  0.91077303  0.96225649  1
  N  N336  1  0.81171229  0.42815882  0.04714941  1
  N  N337  1  0.44347717  0.40518419  0.95550904  1
  N  N338  1  0.52985938  0.41010583  0.53761930  1
  N  N339  1  0.69639215  0.09749237  0.45788332  1
  N  N340  1  0.48247016  0.92138590  0.03596217  1
  N  N341  1  0.79305933  0.57340462  0.54380898  1
  N  N342  1  0.28905069  0.09252985  0.46019107  1
  N  N343  1  0.56428511  0.59502092  0.04862400  1
  N  N344  1  0.20757646  0.23933308  0.95906855  1
  N  N345  1  0.69781749  0.75947601  0.04021405  1
  N  N346  1  0.73460634  0.42563936  0.03810853  1
  N  N347  1  0.49000702  0.25305077  0.46558347  1
  N  N348  1  0.70031808  0.76221760  0.45951913  1
  N  N349  1  0.01377198  0.25962181  0.46645314  1
  N  N350  1  0.77037320  0.24285667  0.96817045  1
  N  N351  1  0.45674171  0.92706005  0.45707521  1
  N  N352  1  0.93973187  0.73917014  0.54374935  1
  N  N353  1  0.71470551  0.57459737  0.54037263  1
  N  N354  1  0.21275171  0.24339268  0.54143479  1
  N  N355  1  0.55126776  0.74447268  0.96000641  1
  N  N356  1  0.19322444  0.09410592  0.04474022  1
  N  N357  1  0.94310275  0.92930907  0.04495765  1
  N  N358  1  0.48809967  0.59137042  0.03630627  1
  N  N359  1  0.70354329  0.42505406  0.45960375  1
  N  N360  1  0.06729635  0.05604906  0.60406866  1
  N  N361  1  0.06180229  0.39280862  0.58826517  1
  N  N362  1  0.05453445  0.72285172  0.58920742  1
  N  N363  1  0.56784070  0.05634753  0.59631391  1
  N  N364  1  0.56421604  0.39127926  0.59053223  1
  N  N365  1  0.56442511  0.72480805  0.59578894  1
  N  N366  1  0.44533321  0.27570130  0.08623795  1
  N  N367  1  0.44424205  0.61057180  0.08497810  1
  N  N368  1  0.44212055  0.94196862  0.08748343  1
  N  N369  1  0.93189191  0.27937539  0.10244391  1
  N  N370  1  0.93036041  0.61331957  0.11026950  1
  N  N371  1  0.93364867  0.94591670  0.10460921  1
  N  N372  1  0.44152776  0.05637814  0.91169822  1
  N  N373  1  0.43058351  0.38895116  0.89606378  1
  N  N374  1  0.44224539  0.72865024  0.91153382  1
  N  N375  1  0.93019403  0.05371741  0.89728046  1
  N  N376  1  0.93748450  0.39078360  0.90829272  1
  N  N377  1  0.94015504  0.72384887  0.90541606  1
  N  N378  1  0.05621056  0.27976306  0.41557280  1
  N  N379  1  0.06725502  0.60766897  0.40722096  1
  N  N380  1  0.06303549  0.94405119  0.39790466  1
  N  N381  1  0.57195564  0.27786150  0.39425146  1
  N  N382  1  0.56175296  0.61004492  0.40356552  1
  N  N383  1  0.56520438  0.94336383  0.40104829  1
  N  N384  1  0.31205493  0.22098460  0.60076753  1
  N  N385  1  0.30766457  0.55960265  0.58576576  1
  N  N386  1  0.31472708  0.88940268  0.59919129  1
  N  N387  1  0.80859244  0.22478052  0.58863925  1
  N  N388  1  0.81694882  0.55247766  0.59896575  1
  N  N389  1  0.81339609  0.88819963  0.59314363  1
  N  N390  1  0.18123676  0.11130409  0.10405326  1
  N  N391  1  0.18387184  0.44296720  0.10216593  1
  N  N392  1  0.17528923  0.77867940  0.10205511  1
  N  N393  1  0.68215125  0.10717190  0.09355523  1
  N  N394  1  0.69463662  0.44521483  0.08853567  1
  N  N395  1  0.68018033  0.77914142  0.09973810  1
  N  N396  1  0.18061505  0.21804136  0.90357440  1
  N  N397  1  0.18327609  0.55114103  0.90406104  1
  N  N398  1  0.18442813  0.88792517  0.90442299  1
  N  N399  1  0.67719140  0.22199515  0.89980245  1
  N  N400  1  0.68377981  0.55588008  0.90244465  1
  N  N401  1  0.68505552  0.89173446  0.90620122  1
  N  N402  1  0.30890028  0.10938309  0.40252319  1
  N  N403  1  0.31987701  0.44926608  0.39528333  1
  N  N404  1  0.32371693  0.77681982  0.39163805  1
  N  N405  1  0.80672413  0.11024484  0.40928297  1
  N  N406  1  0.81753465  0.43992220  0.41224728  1
  N  N407  1  0.81031142  0.77571190  0.41453472  1
  N  N408  1  0.44776805  0.27575087  0.41705531  1
  N  N409  1  0.43146641  0.60858342  0.40438726  1
  N  N410  1  0.43721198  0.94435363  0.39841695  1
  N  N411  1  0.92961073  0.27943879  0.39598064  1
  N  N412  1  0.93841465  0.60666726  0.40845420  1
  N  N413  1  0.93524457  0.94472313  0.40310079  1
  N  N414  1  0.05688700  0.06119606  0.91922519  1
  N  N415  1  0.06654426  0.38775518  0.89695252  1
  N  N416  1  0.07002122  0.72351128  0.89962716  1
  N  N417  1  0.56864659  0.05380577  0.89495033  1
  N  N418  1  0.55782167  0.39267792  0.90555720  1
  N  N419  1  0.57055086  0.72278200  0.90264714  1
  N  N420  1  0.06108078  0.27772570  0.09056338  1
  N  N421  1  0.05542824  0.61177693  0.08612853  1
  N  N422  1  0.06039347  0.94380023  0.09008608  1
  N  N423  1  0.57169865  0.27466925  0.10645427  1
  N  N424  1  0.56788688  0.61321267  0.10737520  1
  N  N425  1  0.56955855  0.94237942  0.10376096  1
  N  N426  1  0.44011495  0.05716858  0.59301079  1
  N  N427  1  0.43776778  0.39017296  0.60025279  1
  N  N428  1  0.43598950  0.72275367  0.58935703  1
  N  N429  1  0.94150858  0.05696076  0.59276177  1
  N  N430  1  0.93144826  0.39126549  0.59097568  1
  N  N431  1  0.92837845  0.72216041  0.60253302  1
  N  N432  1  0.18159318  0.10853031  0.40449220  1
  N  N433  1  0.19375821  0.44075950  0.41844658  1
  N  N434  1  0.19991507  0.77423118  0.41301164  1
  N  N435  1  0.68121532  0.11268488  0.39728513  1
  N  N436  1  0.69050096  0.44671755  0.39993646  1
  N  N437  1  0.68443871  0.77978065  0.40156551  1
  N  N438  1  0.30962564  0.22424212  0.90005128  1
  N  N439  1  0.31200543  0.55484388  0.89709931  1
  N  N440  1  0.31191231  0.88255382  0.90586106  1
  N  N441  1  0.80431494  0.22527643  0.91234309  1
  N  N442  1  0.81354225  0.55667875  0.90917517  1
  N  N443  1  0.81330851  0.89105356  0.90380331  1
  N  N444  1  0.30836986  0.10782465  0.09324177  1
  N  N445  1  0.31270427  0.43982058  0.08798653  1
  N  N446  1  0.30297959  0.77408071  0.08348629  1
  N  N447  1  0.80975137  0.11289178  0.09946003  1
  N  N448  1  0.81973033  0.44556119  0.10583321  1
  N  N449  1  0.80769150  0.77573669  0.09187422  1
  N  N450  1  0.18302986  0.22138565  0.59566654  1
  N  N451  1  0.18115437  0.55182526  0.60027800  1
  N  N452  1  0.18457150  0.89015166  0.59948625  1
  N  N453  1  0.67932027  0.22050795  0.59865868  1
  N  N454  1  0.68999460  0.55737098  0.59660424  1
  N  N455  1  0.68357385  0.88844557  0.59702782  1
  Cl  Cl456  1  0.25345929  0.06021331  0.62002576  1
  Cl  Cl457  1  0.25091645  0.38507536  0.61485038  1
  Cl  Cl458  1  0.24084175  0.72412728  0.59989379  1
  Cl  Cl459  1  0.75224747  0.04850705  0.61228087  1
  Cl  Cl460  1  0.74510933  0.39196439  0.62353640  1
  Cl  Cl461  1  0.74497743  0.72063723  0.61960124  1
  Cl  Cl462  1  0.25596490  0.27456545  0.11080546  1
  Cl  Cl463  1  0.24761061  0.60297299  0.09706899  1
  Cl  Cl464  1  0.25255350  0.93383165  0.09956768  1
  Cl  Cl465  1  0.75040496  0.28750970  0.12127492  1
  Cl  Cl466  1  0.74999669  0.62104325  0.12693867  1
  Cl  Cl467  1  0.75024959  0.95217985  0.12504596  1
  Cl  Cl468  1  0.25457096  0.05969471  0.89192866  1
  Cl  Cl469  1  0.24765098  0.38352380  0.87943202  1
  Cl  Cl470  1  0.25716228  0.71968856  0.87571439  1
  Cl  Cl471  1  0.74625616  0.05280100  0.87572135  1
  Cl  Cl472  1  0.74301814  0.39319795  0.89556697  1
  Cl  Cl473  1  0.75414812  0.71911054  0.88382507  1
  Cl  Cl474  1  0.24587994  0.26885262  0.39953089  1
  Cl  Cl475  1  0.24831851  0.61288384  0.37196522  1
  Cl  Cl476  1  0.24979019  0.94572027  0.37644641  1
  Cl  Cl477  1  0.75081453  0.28802274  0.38195850  1
  Cl  Cl478  1  0.75510344  0.61248151  0.39137202  1
  Cl  Cl479  1  0.75031686  0.94539153  0.38821685  1
  Cl  Cl480  1  0.00004840  0.23118332  0.60755806  1
  Cl  Cl481  1  -0.00145972  0.55197862  0.61946941  1
  Cl  Cl482  1  -0.00046959  0.88484024  0.61939124  1
  Cl  Cl483  1  0.49386738  0.22860291  0.60935253  1
  Cl  Cl484  1  0.50038091  0.55585577  0.61345326  1
  Cl  Cl485  1  0.50024258  0.88372034  0.62301605  1
  Cl  Cl486  1  -0.00337810  0.11864588  0.12189300  1
  Cl  Cl487  1  0.00047660  0.44956097  0.12932299  1
  Cl  Cl488  1  -0.01018848  0.77887165  0.12631217  1
  Cl  Cl489  1  0.49502710  0.10645970  0.10337575  1
  Cl  Cl490  1  0.50851906  0.44287297  0.10931561  1
  Cl  Cl491  1  0.49233590  0.77807355  0.10784794  1
  Cl  Cl492  1  -0.00423013  0.22483690  0.88245623  1
  Cl  Cl493  1  0.00035554  0.56184446  0.89522441  1
  Cl  Cl494  1  0.00303229  0.89314136  0.88660602  1
  Cl  Cl495  1  0.49282982  0.22000384  0.88269091  1
  Cl  Cl496  1  0.49305074  0.56584816  0.89073330  1
  Cl  Cl497  1  0.49387697  0.88967491  0.89507309  1
  Cl  Cl498  1  -0.00375910  0.11893371  0.38816482  1
  Cl  Cl499  1  0.00723301  0.44287521  0.39797062  1
  Cl  Cl500  1  0.01362117  0.77060178  0.39965607  1
  Cl  Cl501  1  0.49429576  0.11078906  0.38441381  1
  Cl  Cl502  1  0.50846146  0.44010864  0.38187692  1
  Cl  Cl503  1  0.50561492  0.77528817  0.37813105  1
  Cl  Cl504  1  0.36474620  0.14608854  0.74767446  1
  Cl  Cl505  1  0.36076996  0.48036627  0.75222291  1
  Cl  Cl506  1  0.35383373  0.81337152  0.74912827  1
  Cl  Cl507  1  0.85437136  0.15169980  0.75101994  1
  Cl  Cl508  1  0.85285331  0.48101427  0.75602182  1
  Cl  Cl509  1  0.86173764  0.81311389  0.75090065  1
  Cl  Cl510  1  0.14740210  0.18651286  0.24618721  1
  Cl  Cl511  1  0.14185691  0.51606519  0.24801102  1
  Cl  Cl512  1  0.14317969  0.85264424  0.24589956  1
  Cl  Cl513  1  0.63509181  0.18818629  0.25024840  1
  Cl  Cl514  1  0.64583362  0.52122606  0.25496107  1
  Cl  Cl515  1  0.63654010  0.85444709  0.25042427  1
  Cl  Cl516  1  0.14143617  0.14664840  0.74957483  1
  Cl  Cl517  1  0.13799663  0.48188018  0.74780508  1
  Cl  Cl518  1  0.13588702  0.81252885  0.75333191  1
  Cl  Cl519  1  0.63330928  0.14535634  0.74358846  1
  Cl  Cl520  1  0.63382317  0.48123519  0.75849944  1
  Cl  Cl521  1  0.63913655  0.81499020  0.75162757  1
  Cl  Cl522  1  0.36494398  0.18701413  0.25628811  1
  Cl  Cl523  1  0.36182538  0.51713481  0.25323699  1
  Cl  Cl524  1  0.36446997  0.85323679  0.25498604  1
  Cl  Cl525  1  0.85793936  0.18428086  0.24766167  1
  Cl  Cl526  1  0.86438804  0.52097527  0.24665530  1
  Cl  Cl527  1  0.85854578  0.85075830  0.25441272  1
  Cl  Cl528  1  0.11126887  0.31319460  0.75060570  1
  Cl  Cl529  1  0.10486887  0.64584345  0.75143486  1
  Cl  Cl530  1  0.11239703  0.98063544  0.75139893  1
  Cl  Cl531  1  0.60533640  0.31561866  0.74741750  1
  Cl  Cl532  1  0.60812268  0.64908277  0.74934668  1
  Cl  Cl533  1  0.60815121  0.97898986  0.75296908  1
  Cl  Cl534  1  0.39223655  0.01979782  0.24850640  1
  Cl  Cl535  1  0.39670576  0.35149534  0.25012095  1
  Cl  Cl536  1  0.38990077  0.68482597  0.25004191  1
  Cl  Cl537  1  0.89351886  0.01878229  0.24682251  1
  Cl  Cl538  1  0.88703118  0.35358401  0.24899162  1
  Cl  Cl539  1  0.89536801  0.68642062  0.25594315  1
  Cl  Cl540  1  0.38396348  0.31269910  0.74995370  1
  Cl  Cl541  1  0.38911736  0.64996568  0.74805613  1
  Cl  Cl542  1  0.39166227  0.98047422  0.74969098  1
  Cl  Cl543  1  0.89190087  0.31637824  0.74381917  1
  Cl  Cl544  1  0.88639052  0.64683470  0.74404722  1
  Cl  Cl545  1  0.89115464  0.98440408  0.75744767  1
  Cl  Cl546  1  0.11311258  0.02053183  0.25217055  1
  Cl  Cl547  1  0.11022457  0.35014951  0.25075287  1
  Cl  Cl548  1  0.11402830  0.68664103  0.24861283  1
  Cl  Cl549  1  0.61259582  0.02019386  0.24485993  1
  Cl  Cl550  1  0.61634314  0.35356193  0.25138108  1
  Cl  Cl551  1  0.61112660  0.68509015  0.24534445  1
