# generated using pymatgen
data_H8PbC4(N3Cl2)2
_symmetry_space_group_name_H-M   'P 1'
_cell_length_a   16.62795277
_cell_length_b   22.51443444
_cell_length_c   21.59419211
_cell_angle_alpha   89.99903049
_cell_angle_beta   90.00597760
_cell_angle_gamma   89.99787111
_symmetry_Int_Tables_number   1
_chemical_formula_structural   H8PbC4(N3Cl2)2
_chemical_formula_sum   'H192 Pb24 C96 N144 Cl96'
_cell_volume   8084.19503103
_cell_formula_units_Z   24
loop_
 _symmetry_equiv_pos_site_id
 _symmetry_equiv_pos_as_xyz
  1  'x, y, z'
loop_
 _atom_site_type_symbol
 _atom_site_label
 _atom_site_symmetry_multiplicity
 _atom_site_fract_x
 _atom_site_fract_y
 _atom_site_fract_z
 _atom_site_occupancy
  H  H0  1  -0.01364155  0.03267884  0.68043735  1
  H  H1  1  0.01025271  0.36606931  0.68117337  1
  H  H2  1  -0.00253702  0.69633434  0.68010949  1
  H  H3  1  0.51481055  0.02935408  0.67726504  1
  H  H4  1  0.49562275  0.36425163  0.67885339  1
  H  H5  1  0.50041045  0.69660695  0.68161658  1
  H  H6  1  0.00176832  0.30349903  0.17648329  1
  H  H7  1  -0.01154784  0.63743838  0.17669715  1
  H  H8  1  -0.00798773  0.97378307  0.17709245  1
  H  H9  1  0.49095520  0.30227200  0.18280345  1
  H  H10  1  0.51089527  0.63331741  0.17951901  1
  H  H11  1  0.50212328  0.97027595  0.18048069  1
  H  H12  1  0.00299676  0.02666074  0.82366038  1
  H  H13  1  0.00167934  0.35901806  0.82249529  1
  H  H14  1  -0.00189619  0.69662598  0.82371262  1
  H  H15  1  0.49055030  0.02757177  0.81702044  1
  H  H16  1  0.50973085  0.36259426  0.81875734  1
  H  H17  1  0.49193979  0.69547717  0.82264437  1
  H  H18  1  0.00988088  0.30446688  0.31814222  1
  H  H19  1  -0.00751164  0.63533738  0.32344817  1
  H  H20  1  -0.01160766  0.96846949  0.32208502  1
  H  H21  1  0.48686208  0.30274128  0.32137115  1
  H  H22  1  0.49310853  0.63693850  0.31780327  1
  H  H23  1  0.51252936  0.97144149  0.32142215  1
  H  H24  1  0.23921928  0.19473906  0.68021159  1
  H  H25  1  0.25268362  0.53182588  0.67954566  1
  H  H26  1  0.24671420  0.86265396  0.67807503  1
  H  H27  1  0.75853384  0.19940432  0.67876011  1
  H  H28  1  0.74761756  0.52851425  0.67938579  1
  H  H29  1  0.76025768  0.86009123  0.67747390  1
  H  H30  1  0.24896690  0.13893438  0.17727192  1
  H  H31  1  0.24544671  0.47090165  0.17571574  1
  H  H32  1  0.25143584  0.80367039  0.18002754  1
  H  H33  1  0.75823467  0.13669407  0.17762771  1
  H  H34  1  0.75257885  0.46919522  0.17861493  1
  H  H35  1  0.75463470  0.80360490  0.18170613  1
  H  H36  1  0.25664689  0.19648721  0.82084280  1
  H  H37  1  0.24639746  0.52887856  0.82343331  1
  H  H38  1  0.25643336  0.86287592  0.82458497  1
  H  H39  1  0.75689186  0.19498608  0.82322989  1
  H  H40  1  0.74844394  0.52814619  0.81913848  1
  H  H41  1  0.74565084  0.86413207  0.82203229  1
  H  H42  1  0.23988775  0.13469718  0.32219671  1
  H  H43  1  0.24194383  0.46771465  0.31689010  1
  H  H44  1  0.24614323  0.80443431  0.31700772  1
  H  H45  1  0.75712796  0.13567884  0.32040987  1
  H  H46  1  0.76449370  0.47047871  0.32658517  1
  H  H47  1  0.75261194  0.80410061  0.31856668  1
  H  H48  1  0.12704270  0.05083327  0.62709833  1
  H  H49  1  0.12283219  0.39101142  0.60126730  1
  H  H50  1  0.12473195  0.71986862  0.61320039  1
  H  H51  1  0.62115915  0.05844064  0.59188345  1
  H  H52  1  0.62699009  0.38656921  0.61577416  1
  H  H53  1  0.62535162  0.71979320  0.61322184  1
  H  H54  1  0.38557220  0.27715154  0.10004608  1
  H  H55  1  0.37405461  0.61439778  0.12206321  1
  H  H56  1  0.37856751  0.94497917  0.10776077  1
  H  H57  1  0.88379294  0.27484050  0.10160806  1
  H  H58  1  0.87966968  0.60717925  0.09530868  1
  H  H59  1  0.88008886  0.94451749  0.09643994  1
  H  H60  1  0.38296503  0.05339635  0.90043817  1
  H  H61  1  0.37293362  0.38539964  0.87710409  1
  H  H62  1  0.38385812  0.72418548  0.90479704  1
  H  H63  1  0.87824324  0.05384151  0.89172676  1
  H  H64  1  0.86754282  0.38225752  0.88327656  1
  H  H65  1  0.88417544  0.72558992  0.90115216  1
  H  H66  1  0.12855899  0.27683029  0.39392159  1
  H  H67  1  0.12856332  0.61490422  0.38387457  1
  H  H68  1  0.13068312  0.95051286  0.37145245  1
  H  H69  1  0.62733052  0.28414269  0.37585918  1
  H  H70  1  0.62555326  0.61414329  0.38179165  1
  H  H71  1  0.63033956  0.94399825  0.39604412  1
  H  H72  1  0.37014427  0.22059584  0.61892834  1
  H  H73  1  0.36476977  0.55716949  0.59849882  1
  H  H74  1  0.37255722  0.88913569  0.60959718  1
  H  H75  1  0.86684927  0.22527019  0.59679126  1
  H  H76  1  0.87245041  0.55461563  0.60956200  1
  H  H77  1  0.86473905  0.89113209  0.59272018  1
  H  H78  1  0.11504273  0.11363140  0.11729678  1
  H  H79  1  0.13689467  0.44379022  0.09585211  1
  H  H80  1  0.11790979  0.77992430  0.11750408  1
  H  H81  1  0.62428102  0.11731074  0.12028442  1
  H  H82  1  0.64173774  0.44128968  0.09715156  1
  H  H83  1  0.61951023  0.78343949  0.12392038  1
  H  H84  1  0.11678325  0.21544510  0.87580373  1
  H  H85  1  0.12535325  0.55435357  0.89633426  1
  H  H86  1  0.12148213  0.88526479  0.88356405  1
  H  H87  1  0.62274258  0.21584448  0.87980102  1
  H  H88  1  0.62401704  0.55328584  0.88966481  1
  H  H89  1  0.62525533  0.88900398  0.89545918  1
  H  H90  1  0.37390174  0.11340936  0.38340315  1
  H  H91  1  0.37735611  0.45015736  0.37476218  1
  H  H92  1  0.37251322  0.78052401  0.38685448  1
  H  H93  1  0.86583233  0.10783261  0.40425041  1
  H  H94  1  0.86944985  0.44046917  0.40912502  1
  H  H95  1  0.87629485  0.77812518  0.38746980  1
  H  H96  1  0.38214051  0.27319857  0.40519243  1
  H  H97  1  0.37694874  0.61127107  0.39470650  1
  H  H98  1  0.38221827  0.94680391  0.38566036  1
  H  H99  1  0.87957937  0.28231338  0.38188928  1
  H  H100  1  0.88218436  0.60903334  0.40492586  1
  H  H101  1  0.88735192  0.93736259  0.40851992  1
  H  H102  1  0.12708881  0.05334300  0.89404948  1
  H  H103  1  0.11606588  0.39057177  0.89805342  1
  H  H104  1  0.13214274  0.71974931  0.88385979  1
  H  H105  1  0.62967928  0.04911933  0.87359414  1
  H  H106  1  0.62011271  0.38780785  0.89987475  1
  H  H107  1  0.63018490  0.71943807  0.87692204  1
  H  H108  1  0.13221912  0.27936601  0.11065097  1
  H  H109  1  0.12608727  0.61481923  0.12150522  1
  H  H110  1  0.12672660  0.94884480  0.11683275  1
  H  H111  1  0.63161969  0.28458868  0.12964570  1
  H  H112  1  0.62150907  0.61036759  0.09986359  1
  H  H113  1  0.62731353  0.94591545  0.10909907  1
  H  H114  1  0.37641663  0.05168234  0.62120875  1
  H  H115  1  0.37899764  0.39005532  0.60164187  1
  H  H116  1  0.37593495  0.71885416  0.61279760  1
  H  H117  1  0.88345691  0.06028575  0.59263464  1
  H  H118  1  0.87507571  0.38527337  0.61916452  1
  H  H119  1  0.87544748  0.71867720  0.61008619  1
  H  H120  1  0.12572659  0.10711647  0.39916630  1
  H  H121  1  0.12952209  0.44535761  0.39654955  1
  H  H122  1  0.12357073  0.77886601  0.38804755  1
  H  H123  1  0.62006268  0.11415385  0.37740453  1
  H  H124  1  0.62478597  0.45002772  0.37911921  1
  H  H125  1  0.62762717  0.77954439  0.38929237  1
  H  H126  1  0.36267903  0.22460392  0.90384267  1
  H  H127  1  0.37401684  0.55375127  0.89133111  1
  H  H128  1  0.36907824  0.88991260  0.90308531  1
  H  H129  1  0.86934786  0.22024689  0.90172847  1
  H  H130  1  0.87353155  0.55467286  0.88719821  1
  H  H131  1  0.87410079  0.88712097  0.88883097  1
  H  H132  1  0.36257807  0.10894136  0.09775414  1
  H  H133  1  0.38240773  0.45285238  0.12152537  1
  H  H134  1  0.36596003  0.77602472  0.10257620  1
  H  H135  1  0.87085170  0.11184692  0.09912944  1
  H  H136  1  0.88864130  0.44848915  0.12105840  1
  H  H137  1  0.86706611  0.77910733  0.10288282  1
  H  H138  1  0.12314088  0.21779909  0.60224606  1
  H  H139  1  0.11793694  0.55341441  0.62092537  1
  H  H140  1  0.12329995  0.88686832  0.60787717  1
  H  H141  1  0.62030298  0.21970423  0.62229241  1
  H  H142  1  0.62338431  0.55415606  0.60934948  1
  H  H143  1  0.61974708  0.88207939  0.62698890  1
  H  H144  1  0.05435255  0.42326834  1.00430125  1
  H  H145  1  0.58245416  0.74858997  0.50243500  1
  H  H146  1  0.36119647  0.42109629  1.00695048  1
  H  H147  1  0.45726478  0.24593705  0.50803167  1
  H  H148  1  0.06899900  0.26412213  0.50022514  1
  H  H149  1  0.67611772  0.56915255  0.99805154  1
  H  H150  1  0.64381990  0.41947690  0.48894384  1
  H  H151  1  0.28924741  0.25561965  1.00623762  1
  H  H152  1  0.32680096  0.91305901  0.50336533  1
  H  H153  1  0.17300343  0.74781431  0.49591828  1
  H  H154  1  0.34157406  0.08429551  0.49081103  1
  H  H155  1  0.18421438  0.07614682  0.50510341  1
  H  H156  1  0.45478076  0.08334604  1.00313246  1
  H  H157  1  0.45698158  0.24940048  -0.00597806  1
  H  H158  1  0.19268826  0.42134711  0.50508245  1
  H  H159  1  0.79083430  0.08070484  0.50344693  1
  H  H160  1  0.55234798  0.41795924  1.00412197  1
  H  H161  1  0.35373462  0.42426734  0.48879006  1
  H  H162  1  0.63414022  0.91389552  0.51399679  1
  H  H163  1  0.30189668  0.74490532  -0.00286064  1
  H  H164  1  0.16644388  0.91575089  0.49826421  1
  H  H165  1  0.10093346  0.58757148  0.49181971  1
  H  H166  1  0.92150342  0.74778099  0.49870005  1
  H  H167  1  0.05583566  0.42143600  0.49600241  1
  H  H168  1  0.96839509  0.91254834  0.50654127  1
  H  H169  1  0.64337423  0.75814693  0.00935204  1
  H  H170  1  0.96403180  0.08511653  0.49505925  1
  H  H171  1  0.43771870  0.58097689  0.50053793  1
  H  H172  1  0.41914125  0.74838732  0.50212864  1
  H  H173  1  0.95035451  0.75374334  1.00386443  1
  H  H174  1  0.15294073  0.91629962  0.99140592  1
  H  H175  1  0.29276797  0.07896047  -0.00211920  1
  H  H176  1  0.64494082  0.24676528  0.51287542  1
  H  H177  1  0.67284846  0.58652939  0.50171920  1
  H  H178  1  0.91680939  0.25636747  0.49517521  1
  H  H179  1  0.95259769  0.58284983  -0.00622402  1
  H  H180  1  0.78925227  0.91390119  0.49359848  1
  H  H181  1  0.79785470  0.25251235  0.49099340  1
  H  H182  1  0.19245984  0.22302123  0.49883488  1
  H  H183  1  0.32246554  0.27317180  0.52490245  1
  H  H184  1  0.09056115  0.24970817  0.00505545  1
  H  H185  1  0.89707401  0.41181432  0.99152195  1
  H  H186  1  0.45768254  0.75046387  1.00563158  1
  H  H187  1  0.64909706  0.08565806  1.00614285  1
  H  H188  1  0.82759123  0.58416883  0.99807376  1
  H  H189  1  0.55578141  0.58551253  -0.00938616  1
  H  H190  1  0.80442502  0.75619303  -0.00607492  1
  H  H191  1  0.64546887  0.24859098  0.99455409  1
  Pb  Pb192  1  0.24965944  0.04700467  0.75845017  1
  Pb  Pb193  1  0.24750190  0.38036411  0.74540341  1
  Pb  Pb194  1  0.25017981  0.71308687  0.75284465  1
  Pb  Pb195  1  0.74955279  0.04594252  0.73933353  1
  Pb  Pb196  1  0.74369893  0.38186738  0.75104654  1
  Pb  Pb197  1  0.75096956  0.71425414  0.75252503  1
  Pb  Pb198  1  0.24881926  0.28385849  0.25430018  1
  Pb  Pb199  1  0.25079792  0.61927137  0.25419781  1
  Pb  Pb200  1  0.25281151  0.95330820  0.24861235  1
  Pb  Pb201  1  0.75424073  0.28707374  0.24978029  1
  Pb  Pb202  1  0.75204512  0.61919193  0.24556866  1
  Pb  Pb203  1  0.74599352  0.95041990  0.25389403  1
  Pb  Pb204  1  -0.00717291  0.21600444  0.74278396  1
  Pb  Pb205  1  -0.00098467  0.54711113  0.75559997  1
  Pb  Pb206  1  -0.00038483  0.87960772  0.74100763  1
  Pb  Pb207  1  0.49591677  0.21271093  0.75372561  1
  Pb  Pb208  1  0.49590524  0.54840506  0.74715006  1
  Pb  Pb209  1  0.49739250  0.87955375  0.75450497  1
  Pb  Pb210  1  -0.00494719  0.11653617  0.25743752  1
  Pb  Pb211  1  0.00257223  0.45379564  0.25111277  1
  Pb  Pb212  1  -0.00049963  0.78597784  0.24601859  1
  Pb  Pb213  1  0.49825236  0.12130247  0.24273316  1
  Pb  Pb214  1  0.50411022  0.45314850  0.24425587  1
  Pb  Pb215  1  0.49520313  0.78376258  0.24813682  1
  C  C216  1  -0.00137901  0.04722129  0.63352746  1
  C  C217  1  0.00247785  0.38080536  0.63370240  1
  C  C218  1  -0.00127873  0.71165457  0.63260139  1
  C  C219  1  0.50444808  0.04557602  0.63055901  1
  C  C220  1  0.50036306  0.38021235  0.63175473  1
  C  C221  1  0.50055358  0.71191807  0.63389124  1
  C  C222  1  0.00641223  0.28681276  0.12951252  1
  C  C223  1  -0.00220773  0.62147991  0.12994812  1
  C  C224  1  -0.00054685  0.95672105  0.13040064  1
  C  C225  1  0.50254940  0.28837519  0.13553121  1
  C  C226  1  0.50223778  0.61967699  0.13189396  1
  C  C227  1  0.50263802  0.95407879  0.13316655  1
  C  C228  1  0.00308239  0.04423556  0.87016020  1
  C  C229  1  -0.00538741  0.37641142  0.86920435  1
  C  C230  1  0.00471034  0.71288922  0.87056958  1
  C  C231  1  0.50137408  0.04310551  0.86389971  1
  C  C232  1  0.50070166  0.37848575  0.86565558  1
  C  C233  1  0.50177488  0.71161038  0.86940923  1
  C  C234  1  0.00663071  0.28891871  0.36579712  1
  C  C235  1  0.00146263  0.62022786  0.37069703  1
  C  C236  1  0.00198852  0.95346832  0.36863514  1
  C  C237  1  0.49918224  0.28740615  0.36811795  1
  C  C238  1  0.49875043  0.62113263  0.36507508  1
  C  C239  1  0.50813287  0.95464851  0.36811437  1
  C  C240  1  0.24421571  0.21055435  0.63285035  1
  C  C241  1  0.24525390  0.54711052  0.63234039  1
  C  C242  1  0.24788725  0.87923161  0.63077675  1
  C  C243  1  0.74787782  0.21387011  0.63141647  1
  C  C244  1  0.74780509  0.54535219  0.63238806  1
  C  C245  1  0.74832684  0.87657387  0.63098243  1
  C  C246  1  0.24267210  0.12162804  0.13068854  1
  C  C247  1  0.25584042  0.45554167  0.12890035  1
  C  C248  1  0.24475901  0.78751942  0.13300370  1
  C  C249  1  0.75021633  0.12199693  0.13025719  1
  C  C250  1  0.76095142  0.45317065  0.13181532  1
  C  C251  1  0.74659952  0.78916903  0.13411701  1
  C  C252  1  0.24494226  0.21165953  0.86773261  1
  C  C253  1  0.24886497  0.54509414  0.87054778  1
  C  C254  1  0.24855703  0.87926171  0.87140444  1
  C  C255  1  0.74883010  0.21032714  0.87041454  1
  C  C256  1  0.74816045  0.54416355  0.86666808  1
  C  C257  1  0.74852541  0.88022034  0.86907834  1
  C  C258  1  0.24698979  0.11861638  0.36939054  1
  C  C259  1  0.24995877  0.45403659  0.36474759  1
  C  C260  1  0.24765102  0.78809772  0.36423997  1
  C  C261  1  0.74810466  0.12001682  0.36732694  1
  C  C262  1  0.75240368  0.45430963  0.37295313  1
  C  C263  1  0.75181677  0.78756086  0.36544688  1
  C  C264  1  0.54802866  0.40758670  0.54125552  1
  C  C265  1  0.26943201  0.75758393  0.03888775  1
  C  C266  1  0.48473375  0.25836926  0.46406016  1
  C  C267  1  0.71158449  0.57479537  0.54040403  1
  C  C268  1  0.96164614  0.73829902  0.53780119  1
  C  C269  1  0.77088644  0.42172657  0.46921998  1
  C  C270  1  0.69573960  0.09532725  0.04036723  1
  C  C271  1  0.56620399  0.26465442  0.04947056  1
  C  C272  1  0.76934703  0.24165011  0.53489104  1
  C  C273  1  0.81459709  0.42545750  0.04410424  1
  C  C274  1  0.02481381  0.40898721  0.53855061  1
  C  C275  1  0.21240113  0.75951699  0.45686219  1
  C  C276  1  0.44435617  0.59619427  0.04361319  1
  C  C277  1  0.78994805  0.57286015  0.95856061  1
  C  C278  1  0.19254723  0.57400610  0.54358671  1
  C  C279  1  0.52176772  0.40690884  0.96095209  1
  C  C280  1  0.69380991  0.23803010  0.95985731  1
  C  C281  1  0.31378626  0.42950477  0.04064089  1
  C  C282  1  0.30653071  0.43228432  0.45470329  1
  C  C283  1  0.77478138  0.23874154  0.96585639  1
  C  C284  1  0.48633680  0.26135795  0.03730466  1
  C  C285  1  0.02224701  0.40899826  0.96298986  1
  C  C286  1  0.27597771  0.91127245  0.96650797  1
  C  C287  1  0.68418851  0.90566521  0.54704461  1
  C  C288  1  0.95766020  0.26332892  0.45649926  1
  C  C289  1  0.20747654  0.90646069  0.53757823  1
  C  C290  1  0.47183830  0.59274946  0.45934298  1
  C  C291  1  0.71618107  0.91085264  0.96155238  1
  C  C292  1  0.77201410  0.76547931  0.03670088  1
  C  C293  1  0.21526098  0.57462995  0.96345405  1
  C  C294  1  0.22499956  0.43060974  0.46244425  1
  C  C295  1  0.48386494  0.07189294  0.95942268  1
  C  C296  1  0.52483448  0.59501400  0.03389891  1
  C  C297  1  0.05972458  0.74415892  0.95856843  1
  C  C298  1  0.56267105  0.74298407  0.95443122  1
  C  C299  1  0.69048047  0.76674396  0.04417158  1
  C  C300  1  0.79001307  0.75676118  0.45715452  1
  C  C301  1  0.96504592  0.07812561  0.96021793  1
  C  C302  1  0.23313646  0.42636172  0.03307343  1
  C  C303  1  0.77672438  0.09414813  0.03465398  1
  C  C304  1  0.26061427  0.24227957  0.96300841  1
  C  C305  1  0.54173934  0.73817529  0.54034482  1
  C  C306  1  0.07022032  0.92583431  0.45202892  1
  C  C307  1  0.53859069  0.92440787  0.46180064  1
  C  C308  1  0.45952938  0.73805230  0.54021919  1
  C  C309  1  0.05836479  0.59107229  0.04383747  1
  C  C310  1  0.21829446  0.08870222  0.46416786  1
  C  C311  1  0.04330763  0.73883223  0.54054144  1
  N  N312  1  0.03732080  0.26159611  0.45967881  1
  N  N313  1  0.29529618  0.23632831  0.54365716  1
  N  N314  1  0.28724470  0.90862420  0.53962169  1
  N  N315  1  0.44643908  0.07365704  0.54358491  1
  N  N316  1  0.55099976  0.59388111  0.45540655  1
  N  N317  1  0.73775911  0.42293860  0.03505300  1
  N  N318  1  0.05206174  0.92629712  0.04247781  1
  N  N319  1  0.29179335  0.76048775  0.45711033  1
  N  N320  1  0.29753575  0.09098082  0.45777303  1
  N  N321  1  0.79346995  0.91016091  0.96085662  1
  N  N322  1  0.19052061  0.75879887  0.04378887  1
  N  N323  1  0.05390819  0.59521477  0.45830661  1
  N  N324  1  0.48477202  0.74373763  0.96338429  1
  N  N325  1  0.44333023  0.40645893  0.95311430  1
  N  N326  1  0.98112922  0.74513145  0.96361522  1
  N  N327  1  0.99285278  0.92173198  0.46342663  1
  N  N328  1  0.69097905  0.23953264  0.54469237  1
  N  N329  1  0.56275975  0.26135207  0.45418952  1
  N  N330  1  0.69321650  0.42630448  0.45834084  1
  N  N331  1  0.97634536  0.59345810  0.46707017  1
  N  N332  1  0.18238040  0.23920523  0.95373475  1
  N  N333  1  0.04979771  0.25804786  0.04064816  1
  N  N334  1  0.29244193  0.57482447  0.96307691  1
  N  N335  1  0.46546113  0.92513512  0.04001101  1
  N  N336  1  0.94601277  0.40633131  0.54424976  1
  N  N337  1  0.98756676  0.07507828  0.53852719  1
  N  N338  1  0.76273115  0.90927929  0.53672685  1
  N  N339  1  0.47027487  0.40910283  0.53555901  1
  N  N340  1  0.18707757  0.09011146  0.04401597  1
  N  N341  1  0.98011320  0.58988568  0.03580582  1
  N  N342  1  0.79079085  0.57476695  0.53981894  1
  N  N343  1  0.04250581  0.07853301  0.96200974  1
  N  N344  1  0.56209023  0.07108136  0.95029738  1
  N  N345  1  0.26966768  0.57564973  0.53516058  1
  N  N346  1  0.68791790  0.09084620  0.45304809  1
  N  N347  1  0.76524516  0.08900861  0.46047536  1
  N  N348  1  0.46054792  0.92454868  0.45951347  1
  N  N349  1  0.19746777  0.90868006  0.95896244  1
  N  N350  1  0.54161151  0.92523035  0.04042176  1
  N  N351  1  0.97614886  0.92447634  0.03579362  1
  N  N352  1  0.71020193  0.57194176  0.95876706  1
  N  N353  1  0.21291242  0.24077300  0.53985342  1
  N  N354  1  0.26455787  0.08887953  0.03889899  1
  N  N355  1  0.71214541  0.75779089  0.45899773  1
  N  N356  1  0.06431930  0.07165082  0.54859548  1
  N  N357  1  0.52189495  0.07602533  0.53439324  1
  N  N358  1  0.97185940  0.25661546  0.03614246  1
  N  N359  1  0.94314944  0.40521661  0.95696527  1
  N  N360  1  0.07048016  0.05537880  0.60794471  1
  N  N361  1  0.06120571  0.39329360  0.59302347  1
  N  N362  1  0.06520547  0.72297111  0.59800682  1
  N  N363  1  0.55923750  0.05862848  0.58802580  1
  N  N364  1  0.56828694  0.39054514  0.59987476  1
  N  N365  1  0.56569754  0.72212518  0.59886637  1
  N  N366  1  0.44738243  0.27660822  0.09243713  1
  N  N367  1  0.43115923  0.61069021  0.10267471  1
  N  N368  1  0.43974283  0.94270667  0.09742447  1
  N  N369  1  0.94535336  0.27364335  0.09195505  1
  N  N370  1  0.94148935  0.61078059  0.08804584  1
  N  N371  1  0.94204867  0.94348765  0.09008365  1
  N  N372  1  0.44516517  0.05505377  0.90669033  1
  N  N373  1  0.43150357  0.38886395  0.89375001  1
  N  N374  1  0.44613894  0.72162441  0.91176500  1
  N  N375  1  0.93804172  0.05750834  0.90494801  1
  N  N376  1  0.92650497  0.38393111  0.89968687  1
  N  N377  1  0.94595697  0.72402955  0.91014728  1
  N  N378  1  0.06744826  0.28100114  0.40439198  1
  N  N379  1  0.07006230  0.61204415  0.40009829  1
  N  N380  1  0.07596872  0.94441015  0.39294129  1
  N  N381  1  0.57017725  0.27941367  0.39424431  1
  N  N382  1  0.56598291  0.61144905  0.39644852  1
  N  N383  1  0.56977023  0.94206578  0.40648252  1
  N  N384  1  0.31092627  0.22700000  0.60453880  1
  N  N385  1  0.30251706  0.55827541  0.59173198  1
  N  N386  1  0.31192548  0.89003685  0.59644675  1
  N  N387  1  0.80524941  0.22592982  0.58873060  1
  N  N388  1  0.81160696  0.55635591  0.59744761  1
  N  N389  1  0.80215406  0.88820817  0.58750620  1
  N  N390  1  0.17384406  0.10948091  0.10176470  1
  N  N391  1  0.19833031  0.44199358  0.08638702  1
  N  N392  1  0.17695028  0.77734117  0.10249193  1
  N  N393  1  0.68061434  0.11274593  0.10116372  1
  N  N394  1  0.70440820  0.44030606  0.09119312  1
  N  N395  1  0.67639837  0.78104677  0.10499559  1
  N  N396  1  0.17426128  0.22002296  0.89416867  1
  N  N397  1  0.18563264  0.55700678  0.90768012  1
  N  N398  1  0.17996150  0.88892912  0.90034126  1
  N  N399  1  0.67912612  0.22018002  0.89906545  1
  N  N400  1  0.68466980  0.55105182  0.90282120  1
  N  N401  1  0.68565838  0.89282015  0.90639472  1
  N  N402  1  0.31489619  0.11000782  0.39967272  1
  N  N403  1  0.32030819  0.44649241  0.39393789  1
  N  N404  1  0.31194774  0.77806909  0.39892672  1
  N  N405  1  0.80359741  0.10868792  0.40960449  1
  N  N406  1  0.80792856  0.43921215  0.41651510  1
  N  N407  1  0.81640233  0.77470785  0.40070983  1
  N  N408  1  0.44420482  0.27433567  0.41160124  1
  N  N409  1  0.43829899  0.60912344  0.40424512  1
  N  N410  1  0.44206243  0.94378861  0.39982051  1
  N  N411  1  0.93847801  0.27811867  0.39786839  1
  N  N412  1  0.94407389  0.60842262  0.41207375  1
  N  N413  1  0.94971903  0.94147524  0.41296450  1
  N  N414  1  0.06643724  0.05712464  0.90456098  1
  N  N415  1  0.05470848  0.39171299  0.90836587  1
  N  N416  1  0.07458491  0.72470666  0.90084999  1
  N  N417  1  0.57146165  0.05311905  0.89085308  1
  N  N418  1  0.55836888  0.38998811  0.90745228  1
  N  N419  1  0.57372901  0.72406229  0.89598101  1
  N  N420  1  0.07238825  0.27785079  0.09664367  1
  N  N421  1  0.06926888  0.60980233  0.10234431  1
  N  N422  1  0.06793736  0.94606706  0.10114731  1
  N  N423  1  0.57580131  0.28064743  0.10884340  1
  N  N424  1  0.56028643  0.60984153  0.09032554  1
  N  N425  1  0.56637545  0.94306155  0.09811443  1
  N  N426  1  0.43428039  0.05504127  0.60333210  1
  N  N427  1  0.44073268  0.39182602  0.59333418  1
  N  N428  1  0.43547612  0.72188646  0.59864513  1
  N  N429  1  0.94598053  0.05883633  0.58920920  1
  N  N430  1  0.93405752  0.38925637  0.60358303  1
  N  N431  1  0.93519861  0.72151605  0.59636767  1
  N  N432  1  0.18661902  0.10551772  0.40905030  1
  N  N433  1  0.19097580  0.44395500  0.40586736  1
  N  N434  1  0.18399728  0.77616017  0.40017401  1
  N  N435  1  0.67783186  0.10905818  0.39452785  1
  N  N436  1  0.68148180  0.44667513  0.39899741  1
  N  N437  1  0.68840527  0.77707398  0.40058513  1
  N  N438  1  0.30033371  0.22542386  0.91061685  1
  N  N439  1  0.31371807  0.55604448  0.90392476  1
  N  N440  1  0.30786527  0.89298094  0.91248394  1
  N  N441  1  0.80803154  0.22228618  0.91210321  1
  N  N442  1  0.81364533  0.55728671  0.90105357  1
  N  N443  1  0.81391014  0.89089139  0.90196206  1
  N  N444  1  0.30035078  0.10979830  0.09039451  1
  N  N445  1  0.32666017  0.44727557  0.10133819  1
  N  N446  1  0.30432324  0.77521325  0.09315844  1
  N  N447  1  0.80958730  0.11002347  0.08866505  1
  N  N448  1  0.83144331  0.44356652  0.10302953  1
  N  N449  1  0.80561805  0.77932213  0.09308200  1
  N  N450  1  0.18463937  0.21524484  0.59251733  1
  N  N451  1  0.17546309  0.55706062  0.60286313  1
  N  N452  1  0.18304212  0.88961662  0.59484620  1
  N  N453  1  0.67786891  0.22134485  0.60371636  1
  N  N454  1  0.68348259  0.55704966  0.59699204  1
  N  N455  1  0.67554733  0.88719841  0.60613084  1
  Cl  Cl456  1  0.25201462  0.05369678  0.62306839  1
  Cl  Cl457  1  0.25062057  0.38492294  0.60837480  1
  Cl  Cl458  1  0.24838316  0.71960451  0.62130005  1
  Cl  Cl459  1  0.76006954  0.05941593  0.59814068  1
  Cl  Cl460  1  0.74941234  0.38528295  0.61612599  1
  Cl  Cl461  1  0.74968490  0.71985356  0.62457806  1
  Cl  Cl462  1  0.25704461  0.27590234  0.11726408  1
  Cl  Cl463  1  0.24963240  0.61449681  0.12430819  1
  Cl  Cl464  1  0.25421603  0.94553959  0.11412560  1
  Cl  Cl465  1  0.76221590  0.27770105  0.11892556  1
  Cl  Cl466  1  0.75254170  0.60237738  0.10419047  1
  Cl  Cl467  1  0.75391190  0.94757142  0.12199977  1
  Cl  Cl468  1  0.25952295  0.05414906  0.89652555  1
  Cl  Cl469  1  0.24080136  0.38691959  0.87702944  1
  Cl  Cl470  1  0.26242143  0.72505502  0.88810555  1
  Cl  Cl471  1  0.75589476  0.05105715  0.86985020  1
  Cl  Cl472  1  0.74335546  0.38553903  0.88195906  1
  Cl  Cl473  1  0.76149565  0.72329496  0.88828086  1
  Cl  Cl474  1  0.25348860  0.26834521  0.39744637  1
  Cl  Cl475  1  0.25185533  0.61256492  0.38524186  1
  Cl  Cl476  1  0.25786374  0.94521176  0.38441037  1
  Cl  Cl477  1  0.75619176  0.28128431  0.38612380  1
  Cl  Cl478  1  0.75516482  0.61166545  0.37860208  1
  Cl  Cl479  1  0.76355289  0.93768615  0.39785859  1
  Cl  Cl480  1  -0.00065588  0.22698249  0.60059659  1
  Cl  Cl481  1  -0.00505486  0.55576263  0.62465054  1
  Cl  Cl482  1  -0.01178201  0.89318170  0.60052493  1
  Cl  Cl483  1  0.49338646  0.22410019  0.61718491  1
  Cl  Cl484  1  0.49161680  0.55525125  0.61364182  1
  Cl  Cl485  1  0.49426115  0.88751992  0.62127473  1
  Cl  Cl486  1  -0.00889874  0.11473025  0.12603616  1
  Cl  Cl487  1  0.01606088  0.44573105  0.11295848  1
  Cl  Cl488  1  -0.01119584  0.77126667  0.10902842  1
  Cl  Cl489  1  0.48323982  0.10911900  0.10759524  1
  Cl  Cl490  1  0.51913872  0.44552091  0.10941278  1
  Cl  Cl491  1  0.48778734  0.77241956  0.10984611  1
  Cl  Cl492  1  -0.01007791  0.21947637  0.87498676  1
  Cl  Cl493  1  -0.00304206  0.55762008  0.89374735  1
  Cl  Cl494  1  -0.00177951  0.88165458  0.87231800  1
  Cl  Cl495  1  0.48509865  0.22084845  0.88618483  1
  Cl  Cl496  1  0.50177620  0.55640225  0.88288958  1
  Cl  Cl497  1  0.49559817  0.88254747  0.88512410  1
  Cl  Cl498  1  -0.01086900  0.10761264  0.40123654  1
  Cl  Cl499  1  0.00206739  0.44421784  0.38559459  1
  Cl  Cl500  1  -0.00047379  0.78221148  0.37864185  1
  Cl  Cl501  1  0.49619846  0.11787870  0.37361939  1
  Cl  Cl502  1  0.50176391  0.44846020  0.37380970  1
  Cl  Cl503  1  0.50051498  0.77866254  0.38133546  1
  Cl  Cl504  1  0.35568702  0.15046138  0.74463622  1
  Cl  Cl505  1  0.35849296  0.48185470  0.75239026  1
  Cl  Cl506  1  0.35663588  0.81685951  0.74860268  1
  Cl  Cl507  1  0.85608333  0.14966163  0.74395402  1
  Cl  Cl508  1  0.86418639  0.47735018  0.75130833  1
  Cl  Cl509  1  0.85917547  0.81650365  0.74785855  1
  Cl  Cl510  1  0.14113733  0.18941465  0.25463067  1
  Cl  Cl511  1  0.14335242  0.51830725  0.24915866  1
  Cl  Cl512  1  0.13641852  0.85518473  0.24342092  1
  Cl  Cl513  1  0.63760156  0.18891622  0.24656721  1
  Cl  Cl514  1  0.64089807  0.51956790  0.25475383  1
  Cl  Cl515  1  0.64004614  0.85672549  0.24904714  1
  Cl  Cl516  1  0.13839484  0.14606889  0.75073887  1
  Cl  Cl517  1  0.13618170  0.48101977  0.74679611  1
  Cl  Cl518  1  0.13941265  0.81444162  0.74880122  1
  Cl  Cl519  1  0.63590690  0.14626110  0.74790670  1
  Cl  Cl520  1  0.64556368  0.48033562  0.74882227  1
  Cl  Cl521  1  0.63550367  0.81246124  0.74772590  1
  Cl  Cl522  1  0.35905321  0.18393499  0.25229404  1
  Cl  Cl523  1  0.36538699  0.52017710  0.24621480  1
  Cl  Cl524  1  0.35923707  0.85002185  0.25431624  1
  Cl  Cl525  1  0.85809357  0.18215173  0.25444812  1
  Cl  Cl526  1  0.86034519  0.51606031  0.24907563  1
  Cl  Cl527  1  0.85967706  0.85045430  0.25010134  1
  Cl  Cl528  1  0.11030719  0.31289304  0.75008910  1
  Cl  Cl529  1  0.11061656  0.64814685  0.75380072  1
  Cl  Cl530  1  0.11342461  0.97936731  0.74435916  1
  Cl  Cl531  1  0.60795015  0.31363896  0.74857910  1
  Cl  Cl532  1  0.61541848  0.64496536  0.75803120  1
  Cl  Cl533  1  0.61258686  0.97880465  0.75026744  1
  Cl  Cl534  1  0.39002544  0.01890304  0.25499411  1
  Cl  Cl535  1  0.39340181  0.35318034  0.25044683  1
  Cl  Cl536  1  0.39142102  0.68593229  0.24784326  1
  Cl  Cl537  1  0.89662605  0.01808235  0.25519124  1
  Cl  Cl538  1  0.89590208  0.34987094  0.24844068  1
  Cl  Cl539  1  0.89345740  0.68235018  0.25104624  1
  Cl  Cl540  1  0.38809472  0.31603554  0.74886633  1
  Cl  Cl541  1  0.39498219  0.64908200  0.74961146  1
  Cl  Cl542  1  0.38897521  0.98240089  0.74751712  1
  Cl  Cl543  1  0.89171495  0.31336729  0.74379596  1
  Cl  Cl544  1  0.88988487  0.64855673  0.75542106  1
  Cl  Cl545  1  0.89114216  0.98246494  0.74599915  1
  Cl  Cl546  1  0.11944252  0.02384795  0.25780946  1
  Cl  Cl547  1  0.11400697  0.35229357  0.25066122  1
  Cl  Cl548  1  0.11379990  0.68645554  0.24943646  1
  Cl  Cl549  1  0.61304143  0.02190400  0.25171800  1
  Cl  Cl550  1  0.61695574  0.35321055  0.25231745  1
  Cl  Cl551  1  0.61355788  0.68657486  0.24776572  1
