# generated using pymatgen
data_H8PbC4(N3Cl2)2
_symmetry_space_group_name_H-M   'P 1'
_cell_length_a   16.62234559
_cell_length_b   22.50689473
_cell_length_c   21.58934916
_cell_angle_alpha   90.00035702
_cell_angle_beta   90.01009918
_cell_angle_gamma   89.99807781
_symmetry_Int_Tables_number   1
_chemical_formula_structural   H8PbC4(N3Cl2)2
_chemical_formula_sum   'H192 Pb24 C96 N144 Cl96'
_cell_volume   8076.95066292
_cell_formula_units_Z   24
loop_
 _symmetry_equiv_pos_site_id
 _symmetry_equiv_pos_as_xyz
  1  'x, y, z'
loop_
 _atom_site_type_symbol
 _atom_site_label
 _atom_site_symmetry_multiplicity
 _atom_site_fract_x
 _atom_site_fract_y
 _atom_site_fract_z
 _atom_site_occupancy
  H  H0  1  0.00366521  0.03197585  0.68006670  1
  H  H1  1  0.00619381  0.36429955  0.67898747  1
  H  H2  1  0.00233047  0.69653937  0.67631403  1
  H  H3  1  0.51022757  0.03166222  0.68190865  1
  H  H4  1  0.49557789  0.36430142  0.68091234  1
  H  H5  1  0.50236160  0.69562468  0.67676263  1
  H  H6  1  0.01415307  0.30357604  0.17873152  1
  H  H7  1  0.00110382  0.63802796  0.18080852  1
  H  H8  1  0.00471746  0.96845407  0.17861247  1
  H  H9  1  0.48646139  0.30176983  0.18060363  1
  H  H10  1  0.50631717  0.63620051  0.17924605  1
  H  H11  1  0.50492532  0.96847740  0.17753056  1
  H  H12  1  0.00313425  0.03047586  0.81957524  1
  H  H13  1  -0.00480561  0.36576814  0.82485595  1
  H  H14  1  0.00928341  0.69959614  0.82410906  1
  H  H15  1  0.49670188  0.03004758  0.82121341  1
  H  H16  1  0.49809622  0.36502487  0.81702303  1
  H  H17  1  0.49751268  0.69734172  0.82472218  1
  H  H18  1  -0.00647830  0.30421243  0.31935982  1
  H  H19  1  0.00514607  0.63566873  0.32297513  1
  H  H20  1  0.01406519  0.97010213  0.32307320  1
  H  H21  1  0.49611394  0.30314831  0.31849260  1
  H  H22  1  0.50475785  0.63658691  0.31853456  1
  H  H23  1  0.48797942  0.96771371  0.31857475  1
  H  H24  1  0.25286100  0.19535509  0.67985200  1
  H  H25  1  0.25089138  0.53076029  0.68092738  1
  H  H26  1  0.25054231  0.86331725  0.68063653  1
  H  H27  1  0.74966592  0.20040745  0.68190508  1
  H  H28  1  0.74276291  0.53092087  0.67656639  1
  H  H29  1  0.74703842  0.86498191  0.67662050  1
  H  H30  1  0.25369702  0.13509017  0.18055360  1
  H  H31  1  0.25804579  0.46671096  0.17882684  1
  H  H32  1  0.25290383  0.80133333  0.17443751  1
  H  H33  1  0.74942986  0.13564476  0.17695037  1
  H  H34  1  0.75205899  0.46910800  0.17951721  1
  H  H35  1  0.74125557  0.80240930  0.18212166  1
  H  H36  1  0.24930850  0.19845209  0.81697344  1
  H  H37  1  0.24863964  0.53073545  0.82035850  1
  H  H38  1  0.25502453  0.86176475  0.82059143  1
  H  H39  1  0.74826778  0.19729613  0.82273227  1
  H  H40  1  0.75574883  0.52923033  0.82027258  1
  H  H41  1  0.74456577  0.86538331  0.82241634  1
  H  H42  1  0.24951669  0.13545587  0.32016727  1
  H  H43  1  0.25598800  0.46857521  0.31841066  1
  H  H44  1  0.26111102  0.79941409  0.32120961  1
  H  H45  1  0.74460732  0.13426278  0.31910108  1
  H  H46  1  0.74117708  0.46950942  0.32362264  1
  H  H47  1  0.74083194  0.80095982  0.32160221  1
  H  H48  1  0.11826058  0.05662454  0.59998562  1
  H  H49  1  0.12701087  0.38935572  0.60629692  1
  H  H50  1  0.11616745  0.72420644  0.59943684  1
  H  H51  1  0.61885092  0.05733335  0.59797137  1
  H  H52  1  0.62865962  0.38552324  0.61634183  1
  H  H53  1  0.61799173  0.72267728  0.59945660  1
  H  H54  1  0.38092772  0.27521242  0.09659967  1
  H  H55  1  0.37579518  0.61617015  0.11361229  1
  H  H56  1  0.37307125  0.94697719  0.11759340  1
  H  H57  1  0.87449157  0.28359338  0.12564744  1
  H  H58  1  0.87451640  0.61216244  0.11041859  1
  H  H59  1  0.87168827  0.94848239  0.11520601  1
  H  H60  1  0.37654310  0.05419570  0.89477153  1
  H  H61  1  0.38139524  0.38804394  0.89244776  1
  H  H62  1  0.36388703  0.72025923  0.88566377  1
  H  H63  1  0.87572884  0.05438275  0.88622542  1
  H  H64  1  0.88442620  0.39255916  0.90447092  1
  H  H65  1  0.87195950  0.71678287  0.87772415  1
  H  H66  1  0.12905173  0.27985588  0.37779821  1
  H  H67  1  0.11648235  0.60966689  0.40437234  1
  H  H68  1  0.11622459  0.94167129  0.41051062  1
  H  H69  1  0.63015265  0.28211628  0.38175806  1
  H  H70  1  0.62298831  0.61037534  0.39522593  1
  H  H71  1  0.62388346  0.94761599  0.37954833  1
  H  H72  1  0.36886454  0.22223698  0.60264806  1
  H  H73  1  0.37710244  0.55515792  0.61168707  1
  H  H74  1  0.37658710  0.88476755  0.61094902  1
  H  H75  1  0.86720753  0.22298846  0.60767428  1
  H  H76  1  0.88031005  0.55044725  0.62064716  1
  H  H77  1  0.87746376  0.88644452  0.61101470  1
  H  H78  1  0.12852058  0.11287125  0.10958598  1
  H  H79  1  0.11650441  0.45131072  0.12769913  1
  H  H80  1  0.13204695  0.78010481  0.10373743  1
  H  H81  1  0.62356891  0.10941115  0.10882405  1
  H  H82  1  0.62011261  0.44781837  0.11494052  1
  H  H83  1  0.63213503  0.77907195  0.09892572  1
  H  H84  1  0.12574732  0.22102240  0.88692092  1
  H  H85  1  0.12665347  0.55434711  0.89195748  1
  H  H86  1  0.13183681  0.88581897  0.89344709  1
  H  H87  1  0.62384794  0.22126392  0.89356860  1
  H  H88  1  0.62790592  0.55427973  0.88728112  1
  H  H89  1  0.63495317  0.89134081  0.90527909  1
  H  H90  1  0.37429795  0.11274026  0.38798853  1
  H  H91  1  0.36925011  0.44469131  0.39678625  1
  H  H92  1  0.38162178  0.77636549  0.39541449  1
  H  H93  1  0.88117303  0.11554238  0.37855269  1
  H  H94  1  0.87358778  0.44764236  0.38591051  1
  H  H95  1  0.88295910  0.78465817  0.37170964  1
  H  H96  1  0.38182077  0.27610014  0.39646487  1
  H  H97  1  0.37457907  0.61485374  0.38629004  1
  H  H98  1  0.37624339  0.94386903  0.39997754  1
  H  H99  1  0.88339805  0.27800958  0.40170755  1
  H  H100  1  0.86966397  0.61368604  0.38336704  1
  H  H101  1  0.87322647  0.94845062  0.37440598  1
  H  H102  1  0.12555809  0.05377251  0.89319612  1
  H  H103  1  0.13126419  0.38649727  0.88322051  1
  H  H104  1  0.11756658  0.72393714  0.90655371  1
  H  H105  1  0.62528250  0.05189557  0.88870617  1
  H  H106  1  0.63031188  0.38540146  0.87905254  1
  H  H107  1  0.61245278  0.72533417  0.90152999  1
  H  H108  1  0.11960515  0.27465186  0.09463377  1
  H  H109  1  0.12290277  0.61506680  0.10642426  1
  H  H110  1  0.12061129  0.94152429  0.10335983  1
  H  H111  1  0.62639442  0.28278146  0.12545674  1
  H  H112  1  0.62335455  0.60966795  0.10180758  1
  H  H113  1  0.62135518  0.94583025  0.10072394  1
  H  H114  1  0.37318878  0.05011130  0.62315674  1
  H  H115  1  0.38008678  0.38956418  0.60355924  1
  H  H116  1  0.36991947  0.72010013  0.61606112  1
  H  H117  1  0.87068639  0.05296404  0.61546284  1
  H  H118  1  0.87825089  0.38771886  0.61126309  1
  H  H119  1  0.86862455  0.71953999  0.61580462  1
  H  H120  1  0.12530012  0.11308954  0.38977693  1
  H  H121  1  0.12115798  0.44990722  0.37692393  1
  H  H122  1  0.13233714  0.78016180  0.38602352  1
  H  H123  1  0.63302087  0.11086434  0.39989762  1
  H  H124  1  0.62543481  0.44361321  0.40037599  1
  H  H125  1  0.63794484  0.77494820  0.40589333  1
  H  H126  1  0.37550581  0.21858055  0.88518569  1
  H  H127  1  0.37631407  0.55551300  0.88862156  1
  H  H128  1  0.38088823  0.88552058  0.88944689  1
  H  H129  1  0.87344841  0.22210670  0.89115579  1
  H  H130  1  0.87629436  0.55402243  0.89543583  1
  H  H131  1  0.88129498  0.88476787  0.87977371  1
  H  H132  1  0.37682418  0.10998295  0.10842532  1
  H  H133  1  0.36149101  0.44244837  0.09494283  1
  H  H134  1  0.38039419  0.78090766  0.10843900  1
  H  H135  1  0.87257176  0.11187741  0.10627193  1
  H  H136  1  0.86864264  0.44200573  0.10370415  1
  H  H137  1  0.87939395  0.78201808  0.12424262  1
  H  H138  1  0.12020902  0.21812039  0.61838639  1
  H  H139  1  0.12762421  0.55473178  0.60855909  1
  H  H140  1  0.12818022  0.88685787  0.60870462  1
  H  H141  1  0.61826670  0.21862128  0.61746246  1
  H  H142  1  0.63415852  0.55907090  0.59400832  1
  H  H143  1  0.62900405  0.88926422  0.60137038  1
  H  H144  1  0.03523865  0.91617038  0.50782831  1
  H  H145  1  0.90235517  0.91792438  0.00805825  1
  H  H146  1  0.32261928  0.88894787  0.50358554  1
  H  H147  1  0.07396283  0.08440855  0.99600458  1
  H  H148  1  0.28724963  0.41503338  -0.01034949  1
  H  H149  1  0.81176679  0.25000708  0.49647779  1
  H  H150  1  0.40235739  0.91608420  0.00365267  1
  H  H151  1  0.32406191  0.08147501  0.00463844  1
  H  H152  1  0.15205376  0.24667231  0.50630853  1
  H  H153  1  0.89871796  0.58639852  0.49185444  1
  H  H154  1  0.33267201  0.24530998  0.99778281  1
  H  H155  1  0.56088483  0.58064616  0.00050142  1
  H  H156  1  0.30748678  0.41931185  0.50551968  1
  H  H157  1  0.06265121  0.90879747  -0.00354102  1
  H  H158  1  0.44278959  0.41856141  0.49669004  1
  H  H159  1  0.16924409  0.74968912  0.49878307  1
  H  H160  1  0.83170041  0.25295820  1.00086110  1
  H  H161  1  0.18559805  0.93138298  0.51261377  1
  H  H162  1  0.67094199  0.25094340  0.99778354  1
  H  H163  1  0.04337008  0.25213178  -0.00603651  1
  H  H164  1  0.30706108  0.24453011  0.49827317  1
  H  H165  1  0.14535558  0.42235390  0.49087279  1
  H  H166  1  0.17536132  0.58686658  1.00032571  1
  H  H167  1  0.45604357  0.24924492  -0.00750140  1
  H  H168  1  0.95587568  0.25427858  0.50282549  1
  H  H169  1  0.55336980  0.74964083  0.49597933  1
  H  H170  1  0.81844346  0.58155567  0.99825812  1
  H  H171  1  0.91482622  0.08242640  0.99720423  1
  H  H172  1  0.17269200  0.24669368  0.99919817  1
  H  H173  1  0.33111832  0.08245636  0.49966017  1
  H  H174  1  0.44711351  0.24963714  0.50354015  1
  H  H175  1  0.66955421  0.07863540  0.00429586  1
  H  H176  1  0.71244658  0.74621891  0.51014064  1
  H  H177  1  0.69814085  0.08532807  0.50699285  1
  H  H178  1  0.83809647  0.41776488  0.49304579  1
  H  H179  1  0.54480801  0.08200544  0.49778591  1
  H  H180  1  0.89714038  0.74984292  0.50609474  1
  H  H181  1  0.54774571  0.75420482  1.00456799  1
  H  H182  1  0.43740036  0.41423343  1.00228602  1
  H  H183  1  0.85283297  0.08673823  0.48671233  1
  H  H184  1  0.32955992  0.58519175  0.50292228  1
  H  H185  1  0.10859549  0.41832601  0.99508127  1
  H  H186  1  0.70359172  0.75325947  -0.00602371  1
  H  H187  1  0.83847791  0.91534720  0.50408507  1
  H  H188  1  0.33298227  0.58557305  0.99307578  1
  H  H189  1  0.89147448  0.74665748  -0.00693718  1
  H  H190  1  0.59896612  0.41303546  0.99178884  1
  H  H191  1  0.44481119  0.91887427  0.50601491  1
  Pb  Pb192  1  0.24705625  0.04606437  0.75218896  1
  Pb  Pb193  1  0.24825487  0.38213502  0.74674099  1
  Pb  Pb194  1  0.24715646  0.71197562  0.74946237  1
  Pb  Pb195  1  0.74852222  0.04562807  0.74970498  1
  Pb  Pb196  1  0.75293954  0.38008943  0.74837681  1
  Pb  Pb197  1  0.74283191  0.71568987  0.75142437  1
  Pb  Pb198  1  0.25280485  0.28570848  0.24614590  1
  Pb  Pb199  1  0.25239194  0.61847861  0.24920783  1
  Pb  Pb200  1  0.25355970  0.95121801  0.25948822  1
  Pb  Pb201  1  0.75206747  0.28663714  0.25231713  1
  Pb  Pb202  1  0.75348754  0.61898361  0.24534012  1
  Pb  Pb203  1  0.75232725  0.95248753  0.24986173  1
  Pb  Pb204  1  -0.00176665  0.21346608  0.74991955  1
  Pb  Pb205  1  -0.00431380  0.54890078  0.75007687  1
  Pb  Pb206  1  -0.00007381  0.87827260  0.74920734  1
  Pb  Pb207  1  0.49880753  0.21355080  0.75021376  1
  Pb  Pb208  1  0.50084618  0.54646727  0.75078372  1
  Pb  Pb209  1  0.49563339  0.88109189  0.75157746  1
  Pb  Pb210  1  0.00263615  0.11876477  0.24163806  1
  Pb  Pb211  1  -0.00182262  0.45321625  0.24695681  1
  Pb  Pb212  1  0.00653540  0.78547185  0.25203484  1
  Pb  Pb213  1  0.50324889  0.11863693  0.25570405  1
  Pb  Pb214  1  0.50111433  0.45324107  0.24951604  1
  Pb  Pb215  1  0.50610701  0.78457734  0.25054898  1
  C  C216  1  -0.00254465  0.04680938  0.63242415  1
  C  C217  1  0.00361403  0.38014438  0.63184579  1
  C  C218  1  -0.00488868  0.71278993  0.62940592  1
  C  C219  1  0.50097148  0.04597337  0.63447033  1
  C  C220  1  0.50169972  0.37973228  0.63353440  1
  C  C221  1  0.49705951  0.71161958  0.62968307  1
  C  C222  1  0.00313454  0.28847555  0.13175382  1
  C  C223  1  -0.00068548  0.62230729  0.13327530  1
  C  C224  1  -0.00159328  0.95305135  0.13099192  1
  C  C225  1  0.49823730  0.28703912  0.13354343  1
  C  C226  1  0.50219613  0.62052860  0.13187834  1
  C  C227  1  0.49914669  0.95354390  0.13004258  1
  C  C228  1  0.00185103  0.04654949  0.86709605  1
  C  C229  1  0.00426471  0.38117517  0.87191088  1
  C  C230  1  -0.00125194  0.71349859  0.87140836  1
  C  C231  1  0.49978613  0.04515387  0.86862870  1
  C  C232  1  0.50359507  0.37969777  0.86478106  1
  C  C233  1  0.49135330  0.71338538  0.87180075  1
  C  C234  1  0.00178214  0.28842930  0.36643791  1
  C  C235  1  -0.00330057  0.62017699  0.37014859  1
  C  C236  1  0.00147658  0.95444791  0.36969976  1
  C  C237  1  0.50308788  0.28759026  0.36575961  1
  C  C238  1  0.50067906  0.62128935  0.36610677  1
  C  C239  1  0.49617830  0.95290348  0.36599959  1
  C  C240  1  0.24747865  0.21114463  0.63238871  1
  C  C241  1  0.25190764  0.54675073  0.63355863  1
  C  C242  1  0.25188121  0.87876696  0.63284486  1
  C  C243  1  0.74529200  0.21379770  0.63386425  1
  C  C244  1  0.75230289  0.54665822  0.62981093  1
  C  C245  1  0.75170299  0.88019855  0.62917448  1
  C  C246  1  0.25323269  0.11931502  0.13309655  1
  C  C247  1  0.24512236  0.45329446  0.13142560  1
  C  C248  1  0.25536178  0.78701072  0.12655618  1
  C  C249  1  0.74807137  0.11914888  0.12983853  1
  C  C250  1  0.74652811  0.45346070  0.13243878  1
  C  C251  1  0.75120292  0.78791001  0.13479158  1
  C  C252  1  0.25018325  0.21282562  0.86500702  1
  C  C253  1  0.25109356  0.54680454  0.86787727  1
  C  C254  1  0.25556516  0.87736019  0.86794198  1
  C  C255  1  0.74813952  0.21347702  0.87018855  1
  C  C256  1  0.75362507  0.54541103  0.86755619  1
  C  C257  1  0.75355978  0.88032101  0.86958588  1
  C  C258  1  0.25023253  0.12015621  0.36769474  1
  C  C259  1  0.24843387  0.45421143  0.36612922  1
  C  C260  1  0.25779136  0.78539062  0.36907619  1
  C  C261  1  0.75355884  0.11994979  0.36676131  1
  C  C262  1  0.74712813  0.45390330  0.37086337  1
  C  C263  1  0.75404765  0.78697958  0.36862738  1
  C  C264  1  0.21904287  0.76092712  0.03345329  1
  C  C265  1  0.80820778  0.57407801  0.54264956  1
  C  C266  1  0.29007945  0.57412839  0.54136770  1
  C  C267  1  0.27456208  0.42907832  0.46322330  1
  C  C268  1  0.21305415  0.57497890  0.96113315  1
  C  C269  1  0.29073264  0.09289796  0.46158431  1
  C  C270  1  0.02815615  0.92281372  0.03673890  1
  C  C271  1  0.79013573  0.24206603  0.96247067  1
  C  C272  1  0.19286641  0.43079463  0.45618520  1
  C  C273  1  0.44840907  0.92646359  0.03899563  1
  C  C274  1  0.17798553  0.43095221  0.04526945  1
  C  C275  1  0.20912387  0.09308840  0.46073524  1
  C  C276  1  0.02358993  0.74410632  0.53415658  1
  C  C277  1  0.48345336  0.25989018  0.03703549  1
  C  C278  1  0.74098778  0.75902896  0.46664750  1
  C  C279  1  0.29294749  0.23640919  0.95886273  1
  C  C280  1  0.30082718  0.76132784  0.03470580  1
  C  C281  1  0.97979267  0.41244999  0.96757716  1
  C  C282  1  0.43680407  0.74375344  0.96085346  1
  C  C283  1  0.77626043  0.23903131  0.53729961  1
  C  C284  1  0.44344282  0.74257668  0.54099710  1
  C  C285  1  0.71612354  0.42378737  0.46602922  1
  C  C286  1  0.02009499  0.74028367  0.96826949  1
  C  C287  1  0.25849942  0.42709487  0.03314741  1
  C  C288  1  0.29574953  0.90537880  0.96013652  1
  C  C289  1  0.80863757  0.90630857  0.95773229  1
  C  C290  1  0.47500765  0.92747076  0.46223484  1
  C  C291  1  0.78902110  0.08936975  0.03662921  1
  C  C292  1  0.93876495  0.26179701  0.04572097  1
  C  C293  1  0.52985649  0.92645763  0.03472137  1
  C  C294  1  0.69503875  0.23705975  0.54259207  1
  C  C295  1  0.47562402  0.40736723  0.53875415  1
  C  C296  1  0.47264065  0.40449520  0.96111438  1
  C  C297  1  0.55452647  0.40370546  0.95607448  1
  C  C298  1  0.72884112  0.09501532  0.46363664  1
  C  C299  1  0.77542741  0.42252161  0.03897174  1
  C  C300  1  0.95697901  0.07307544  0.95907861  1
  C  C301  1  0.47883426  0.26021341  0.46079305  1
  C  C302  1  0.46676718  0.07303933  0.96263607  1
  C  C303  1  0.19557712  0.23774467  0.54273866  1
  C  C304  1  0.73247745  0.76201670  0.03844283  1
  C  C305  1  0.82082608  0.76301348  0.45353182  1
  C  C306  1  0.29397033  0.75930166  0.46392432  1
  C  C307  1  0.21220481  0.75986432  0.46196861  1
  C  C308  1  0.03760505  0.40966498  0.53850035  1
  C  C309  1  0.93950984  0.73787957  0.95986191  1
  C  C310  1  0.71749958  0.90896453  0.53406276  1
  C  C311  1  0.21088297  0.23708028  0.95956351  1
  N  N312  1  0.71035677  0.24181571  0.96213994  1
  N  N313  1  0.51835289  0.07297914  0.53981601  1
  N  N314  1  0.05993189  0.25958942  0.45305148  1
  N  N315  1  0.02438587  0.07382235  0.53651425  1
  N  N316  1  0.69791872  0.42467562  0.04117540  1
  N  N317  1  0.56163407  0.26169786  0.04675155  1
  N  N318  1  0.79488835  0.42558302  0.46009879  1
  N  N319  1  0.02284979  0.59228877  0.46602216  1
  N  N320  1  0.73151373  0.57765948  0.53290149  1
  N  N321  1  0.44104360  0.06960761  0.54678894  1
  N  N322  1  0.98233718  0.25795685  0.45985294  1
  N  N323  1  0.54467621  0.07237565  0.96163080  1
  N  N324  1  0.03670352  0.07206765  0.96049108  1
  N  N325  1  0.45542682  0.59496475  0.45798819  1
  N  N326  1  0.55781279  0.26136703  0.45557240  1
  N  N327  1  0.52222958  0.74257558  0.53635946  1
  N  N328  1  0.94523458  0.59410262  0.45771912  1
  N  N329  1  0.29421928  0.90615906  0.54179129  1
  N  N330  1  0.78439172  0.57377379  0.95954133  1
  N  N331  1  0.29270713  0.57424877  0.95904626  1
  N  N332  1  0.27494369  0.24025403  0.53861829  1
  N  N333  1  0.21817134  0.90579588  0.96275434  1
  N  N334  1  0.03543131  0.59418391  0.03945457  1
  N  N335  1  0.21075734  0.57392133  0.53981729  1
  N  N336  1  0.79634447  0.90754681  0.53851668  1
  N  N337  1  0.52886225  0.59414269  0.03855062  1
  N  N338  1  0.28772259  0.09346258  0.04103228  1
  N  N339  1  0.53179586  0.59327347  0.46094769  1
  N  N340  1  0.80769067  0.09645234  0.45520687  1
  N  N341  1  0.81058014  0.76084151  0.04775413  1
  N  N342  1  0.21318757  0.89945137  0.53911305  1
  N  N343  1  0.70964846  0.08921818  0.03859716  1
  N  N344  1  0.01217187  0.92404499  0.46401095  1
  N  N345  1  0.55456237  0.40608181  0.54300486  1
  N  N346  1  0.73182953  0.90893277  0.96712293  1
  N  N347  1  0.51593321  0.74466679  0.96507406  1
  N  N348  1  0.94810820  0.07246740  0.54153751  1
  N  N349  1  0.94858242  0.92613743  0.04166246  1
  N  N350  1  0.95869682  0.59297191  0.04094403  1
  N  N351  1  0.70608527  0.57322706  0.95860561  1
  N  N352  1  0.94497556  0.74152320  0.54082365  1
  N  N353  1  0.95954280  0.40889735  0.53889646  1
  N  N354  1  0.01689332  0.25904055  0.03634900  1
  N  N355  1  0.05816203  0.40907507  0.96011587  1
  N  N356  1  0.20934007  0.09386150  0.04017585  1
  N  N357  1  0.45064064  0.59564188  0.04119344  1
  N  N358  1  0.93534515  0.92683047  0.45345231  1
  N  N359  1  0.55370469  0.92806870  0.45526637  1
  N  N360  1  0.05631127  0.05803652  0.59265718  1
  N  N361  1  0.06660977  0.39224816  0.59457044  1
  N  N362  1  0.05491478  0.72630911  0.58896419  1
  N  N363  1  0.55655928  0.05680864  0.59218476  1
  N  N364  1  0.56903696  0.38902621  0.60210511  1
  N  N365  1  0.55634946  0.72172420  0.59028918  1
  N  N366  1  0.44291587  0.27519132  0.08991830  1
  N  N367  1  0.43501927  0.61244522  0.09941595  1
  N  N368  1  0.43076423  0.94327852  0.09964715  1
  N  N369  1  0.93044325  0.27863863  0.10519840  1
  N  N370  1  0.93532168  0.61001026  0.09914251  1
  N  N371  1  0.93100683  0.94504593  0.09981441  1
  N  N372  1  0.43714096  0.05683810  0.90637516  1
  N  N373  1  0.44227584  0.38964944  0.90379949  1
  N  N374  1  0.42186658  0.72497734  0.90265429  1
  N  N375  1  0.93523698  0.05712182  0.90101026  1
  N  N376  1  0.94603388  0.39479839  0.91361461  1
  N  N377  1  0.92747530  0.72142611  0.89853945  1
  N  N378  1  0.07120947  0.27652446  0.39435725  1
  N  N379  1  0.05459340  0.60843001  0.41120734  1
  N  N380  1  0.05380777  0.94336248  0.41429639  1
  N  N381  1  0.57108554  0.27833184  0.39640901  1
  N  N382  1  0.56128360  0.60940861  0.40413929  1
  N  N383  1  0.56494249  0.94358841  0.39544419  1
  N  N384  1  0.30692603  0.22123233  0.59309390  1
  N  N385  1  0.31696212  0.55766223  0.59868292  1
  N  N386  1  0.31633294  0.88350613  0.59733792  1
  N  N387  1  0.80660458  0.22418812  0.59548633  1
  N  N388  1  0.82341096  0.55587073  0.60186636  1
  N  N389  1  0.81805794  0.88975566  0.59717722  1
  N  N390  1  0.18875874  0.10996982  0.09781861  1
  N  N391  1  0.17133975  0.44656236  0.10552810  1
  N  N392  1  0.19167384  0.77636680  0.08905132  1
  N  N393  1  0.68388853  0.10786285  0.09592910  1
  N  N394  1  0.67965825  0.44427596  0.10083011  1
  N  N395  1  0.69444961  0.77824129  0.09167778  1
  N  N396  1  0.18561025  0.22245674  0.90081609  1
  N  N397  1  0.18697142  0.55784404  0.90454147  1
  N  N398  1  0.19306632  0.88738555  0.90409890  1
  N  N399  1  0.68466480  0.22374162  0.90542951  1
  N  N400  1  0.68780683  0.55669038  0.90064064  1
  N  N401  1  0.69732876  0.89231576  0.91091876  1
  N  N402  1  0.31517787  0.10969634  0.40237578  1
  N  N403  1  0.30789680  0.44345875  0.40669794  1
  N  N404  1  0.32115336  0.77457853  0.40756545  1
  N  N405  1  0.82261022  0.11101870  0.39543524  1
  N  N406  1  0.81455425  0.44454861  0.40148615  1
  N  N407  1  0.82801071  0.77950201  0.39382076  1
  N  N408  1  0.44355460  0.27584191  0.40592252  1
  N  N409  1  0.43479997  0.61235827  0.39930857  1
  N  N410  1  0.43782786  0.94209940  0.40760939  1
  N  N411  1  0.94560845  0.27845577  0.40844162  1
  N  N412  1  0.92829401  0.61117429  0.39971119  1
  N  N413  1  0.92958906  0.94366799  0.39401390  1
  N  N414  1  0.06432043  0.05664810  0.90354720  1
  N  N415  1  0.07332806  0.38952080  0.90071330  1
  N  N416  1  0.05578169  0.72554890  0.91494921  1
  N  N417  1  0.56510486  0.05459173  0.90197287  1
  N  N418  1  0.57219376  0.38847080  0.89609655  1
  N  N419  1  0.55060154  0.72435311  0.91096413  1
  N  N420  1  0.05764509  0.27792514  0.08862939  1
  N  N421  1  0.06171337  0.61263592  0.09631935  1
  N  N422  1  0.05946604  0.93989640  0.09196697  1
  N  N423  1  0.56891036  0.27851279  0.10707007  1
  N  N424  1  0.56176215  0.60822689  0.09349957  1
  N  N425  1  0.56043996  0.94257794  0.08960802  1
  N  N426  1  0.43087807  0.05449436  0.60614649  1
  N  N427  1  0.44143008  0.39141873  0.59397954  1
  N  N428  1  0.42773844  0.72421312  0.59903529  1
  N  N429  1  0.93003213  0.05586055  0.60108507  1
  N  N430  1  0.93869104  0.39045201  0.59851538  1
  N  N431  1  0.92710677  0.72218372  0.59949361  1
  N  N432  1  0.18502969  0.10930042  0.40413934  1
  N  N433  1  0.17846979  0.44611839  0.39556799  1
  N  N434  1  0.19116899  0.77629972  0.40202230  1
  N  N435  1  0.69494677  0.10967447  0.40874631  1
  N  N436  1  0.68623755  0.44111534  0.41089504  1
  N  N437  1  0.70012834  0.77449951  0.41244171  1
  N  N438  1  0.31601251  0.22150518  0.89977638  1
  N  N439  1  0.31599018  0.55693889  0.90163064  1
  N  N440  1  0.32109182  0.88877312  0.90268679  1
  N  N441  1  0.81359853  0.22479498  0.90508398  1
  N  N442  1  0.81484752  0.55587302  0.90504336  1
  N  N443  1  0.82426786  0.88932259  0.89820620  1
  N  N444  1  0.31584217  0.10833195  0.09716433  1
  N  N445  1  0.29931136  0.44141082  0.08781385  1
  N  N446  1  0.32193716  0.77715565  0.09224473  1
  N  N447  1  0.81285473  0.10774992  0.09316317  1
  N  N448  1  0.80742270  0.43985032  0.09360180  1
  N  N449  1  0.82097803  0.77712110  0.10765744  1
  N  N450  1  0.17839264  0.22118595  0.60138876  1
  N  N451  1  0.18886219  0.55706608  0.59754996  1
  N  N452  1  0.18894394  0.89347376  0.59853982  1
  N  N453  1  0.67665324  0.22210789  0.60079972  1
  N  N454  1  0.69649966  0.55991077  0.58854280  1
  N  N455  1  0.68953780  0.89213108  0.59001916  1
  Cl  Cl456  1  0.24350658  0.05087746  0.61757989  1
  Cl  Cl457  1  0.25451130  0.38625965  0.61344987  1
  Cl  Cl458  1  0.24111908  0.72363032  0.61531819  1
  Cl  Cl459  1  0.74170790  0.05541233  0.61022227  1
  Cl  Cl460  1  0.75485600  0.38772243  0.61266859  1
  Cl  Cl461  1  0.74070761  0.72276708  0.61576521  1
  Cl  Cl462  1  0.24910964  0.27273778  0.11091686  1
  Cl  Cl463  1  0.24904883  0.61280979  0.11115095  1
  Cl  Cl464  1  0.24408292  0.94836668  0.12832449  1
  Cl  Cl465  1  0.75059004  0.27821454  0.11737439  1
  Cl  Cl466  1  0.74941411  0.61008889  0.10861237  1
  Cl  Cl467  1  0.74757738  0.95131587  0.11915054  1
  Cl  Cl468  1  0.25136237  0.05377411  0.88781327  1
  Cl  Cl469  1  0.25657541  0.38824347  0.88118999  1
  Cl  Cl470  1  0.23907349  0.71849749  0.88199194  1
  Cl  Cl471  1  0.74948602  0.05585579  0.88366564  1
  Cl  Cl472  1  0.76111077  0.38583549  0.87991689  1
  Cl  Cl473  1  0.73482704  0.72358286  0.88677425  1
  Cl  Cl474  1  0.25905785  0.27217949  0.38885271  1
  Cl  Cl475  1  0.24655304  0.61244527  0.38216575  1
  Cl  Cl476  1  0.24331127  0.94119577  0.40225221  1
  Cl  Cl477  1  0.76176712  0.28030722  0.38659875  1
  Cl  Cl478  1  0.74597324  0.61220739  0.37677315  1
  Cl  Cl479  1  0.74873465  0.94750888  0.38466066  1
  Cl  Cl480  1  -0.00787739  0.22709296  0.61241214  1
  Cl  Cl481  1  0.00458063  0.55404944  0.61767494  1
  Cl  Cl482  1  0.00643847  0.88816656  0.60556476  1
  Cl  Cl483  1  0.48937774  0.22046656  0.61431696  1
  Cl  Cl484  1  0.50525696  0.55484154  0.62040847  1
  Cl  Cl485  1  0.49987356  0.88665245  0.61501900  1
  Cl  Cl486  1  0.00188104  0.11193704  0.10424938  1
  Cl  Cl487  1  -0.01004354  0.44264135  0.11308642  1
  Cl  Cl488  1  0.00641447  0.78526872  0.12042746  1
  Cl  Cl489  1  0.49915369  0.11114028  0.12246761  1
  Cl  Cl490  1  0.48868741  0.44630256  0.11446674  1
  Cl  Cl491  1  0.51174661  0.77619891  0.10967322  1
  Cl  Cl492  1  0.00062713  0.22438220  0.88915648  1
  Cl  Cl493  1  -0.00082858  0.54998489  0.88249044  1
  Cl  Cl494  1  0.00798619  0.88880384  0.88368151  1
  Cl  Cl495  1  0.50025299  0.21940737  0.88484821  1
  Cl  Cl496  1  0.50335825  0.55860265  0.88876519  1
  Cl  Cl497  1  0.50731187  0.88584801  0.88566308  1
  Cl  Cl498  1  0.00278677  0.11831341  0.37306496  1
  Cl  Cl499  1  -0.00376861  0.44805855  0.37761853  1
  Cl  Cl500  1  0.00886402  0.78109305  0.38513802  1
  Cl  Cl501  1  0.50987026  0.10814204  0.39344877  1
  Cl  Cl502  1  0.49569656  0.44386134  0.38380563  1
  Cl  Cl503  1  0.51201303  0.77461020  0.39011845  1
  Cl  Cl504  1  0.36013874  0.14585084  0.74850320  1
  Cl  Cl505  1  0.36393121  0.47900765  0.75305508  1
  Cl  Cl506  1  0.36065390  0.81218509  0.74763905  1
  Cl  Cl507  1  0.86085314  0.14630381  0.75328602  1
  Cl  Cl508  1  0.86169062  0.47923244  0.74376948  1
  Cl  Cl509  1  0.86409734  0.81165233  0.74858048  1
  Cl  Cl510  1  0.13920102  0.18650405  0.24961115  1
  Cl  Cl511  1  0.13483062  0.52047914  0.24644160  1
  Cl  Cl512  1  0.13849092  0.85303720  0.25222484  1
  Cl  Cl513  1  0.63836014  0.18736362  0.24929467  1
  Cl  Cl514  1  0.63763698  0.52023380  0.24607489  1
  Cl  Cl515  1  0.64162522  0.85181260  0.25101149  1
  Cl  Cl516  1  0.13728392  0.14700254  0.75104182  1
  Cl  Cl517  1  0.14406320  0.47897976  0.74973103  1
  Cl  Cl518  1  0.13969274  0.81568975  0.74622104  1
  Cl  Cl519  1  0.63773784  0.14642858  0.74792621  1
  Cl  Cl520  1  0.63878806  0.47883175  0.75388815  1
  Cl  Cl521  1  0.64594902  0.81484053  0.74840402  1
  Cl  Cl522  1  0.36188906  0.18664083  0.25054271  1
  Cl  Cl523  1  0.35498204  0.52024471  0.24814106  1
  Cl  Cl524  1  0.35746757  0.85469288  0.25259409  1
  Cl  Cl525  1  0.85984175  0.18605523  0.24752779  1
  Cl  Cl526  1  0.86003720  0.52127705  0.25204092  1
  Cl  Cl527  1  0.86331247  0.85674559  0.25290904  1
  Cl  Cl528  1  0.11423157  0.31156433  0.75467786  1
  Cl  Cl529  1  0.10896516  0.64743377  0.74971711  1
  Cl  Cl530  1  0.10779534  0.98116045  0.75024488  1
  Cl  Cl531  1  0.61223879  0.31150840  0.74809655  1
  Cl  Cl532  1  0.60952116  0.64840541  0.75355364  1
  Cl  Cl533  1  0.61062152  0.98030897  0.75070391  1
  Cl  Cl534  1  0.38854861  0.01963708  0.25001830  1
  Cl  Cl535  1  0.38945390  0.35204296  0.25102044  1
  Cl  Cl536  1  0.38760996  0.68752570  0.24758545  1
  Cl  Cl537  1  0.88579693  0.02200980  0.25201406  1
  Cl  Cl538  1  0.88936755  0.35213924  0.24650303  1
  Cl  Cl539  1  0.88431407  0.69083242  0.25258167  1
  Cl  Cl540  1  0.39001507  0.31246985  0.75207080  1
  Cl  Cl541  1  0.38693761  0.64620059  0.75121872  1
  Cl  Cl542  1  0.38801313  0.97784642  0.74479107  1
  Cl  Cl543  1  0.89124849  0.31414070  0.75014311  1
  Cl  Cl544  1  0.89103490  0.64496886  0.75262280  1
  Cl  Cl545  1  0.88814417  0.97937601  0.74779403  1
  Cl  Cl546  1  0.10511671  0.02024837  0.24893646  1
  Cl  Cl547  1  0.11258819  0.35398277  0.25164768  1
  Cl  Cl548  1  0.10309449  0.68628605  0.25304574  1
  Cl  Cl549  1  0.61147360  0.01979795  0.25320856  1
  Cl  Cl550  1  0.61309065  0.35410941  0.24703032  1
  Cl  Cl551  1  0.60639480  0.68833739  0.24714317  1
