# generated using pymatgen
data_H8PbC4(N3Cl2)2
_symmetry_space_group_name_H-M   'P 1'
_cell_length_a   16.62142844
_cell_length_b   22.50190483
_cell_length_c   21.58683326
_cell_angle_alpha   89.99881144
_cell_angle_beta   89.98990690
_cell_angle_gamma   90.00425160
_symmetry_Int_Tables_number   1
_chemical_formula_structural   H8PbC4(N3Cl2)2
_chemical_formula_sum   'H192 Pb24 C96 N144 Cl96'
_cell_volume   8073.77340529
_cell_formula_units_Z   24
loop_
 _symmetry_equiv_pos_site_id
 _symmetry_equiv_pos_as_xyz
  1  'x, y, z'
loop_
 _atom_site_type_symbol
 _atom_site_label
 _atom_site_symmetry_multiplicity
 _atom_site_fract_x
 _atom_site_fract_y
 _atom_site_fract_z
 _atom_site_occupancy
  H  H0  1  -0.01108006  0.03306449  0.68081188  1
  H  H1  1  -0.00131555  0.36585470  0.67839706  1
  H  H2  1  0.00535089  0.69840816  0.68035540  1
  H  H3  1  0.51045987  0.03403798  0.67993614  1
  H  H4  1  0.49104022  0.36638438  0.67778455  1
  H  H5  1  0.49377573  0.69693292  0.67937532  1
  H  H6  1  0.00771666  0.30147820  0.17789587  1
  H  H7  1  0.00330213  0.63158609  0.17888861  1
  H  H8  1  0.00443584  0.97066431  0.18209086  1
  H  H9  1  0.49658178  0.30191704  0.18037336  1
  H  H10  1  0.49515082  0.63370520  0.18018616  1
  H  H11  1  0.49729468  0.96899681  0.18267124  1
  H  H12  1  -0.00199541  0.03393594  0.82357328  1
  H  H13  1  -0.00275425  0.36395929  0.82074573  1
  H  H14  1  -0.00363193  0.69816613  0.81852689  1
  H  H15  1  0.50722364  0.03240832  0.82156971  1
  H  H16  1  0.49610189  0.36550859  0.82116002  1
  H  H17  1  0.50025575  0.69938643  0.82227193  1
  H  H18  1  0.00579926  0.30262048  0.32199384  1
  H  H19  1  0.00710537  0.63488714  0.32124712  1
  H  H20  1  0.00607409  0.96689887  0.31953978  1
  H  H21  1  0.49201096  0.30097207  0.32096395  1
  H  H22  1  0.50771001  0.63159607  0.32181949  1
  H  H23  1  0.49518200  0.96801787  0.31812344  1
  H  H24  1  0.24534162  0.19874602  0.67856488  1
  H  H25  1  0.24431183  0.53022818  0.67917735  1
  H  H26  1  0.25476617  0.86558961  0.68275863  1
  H  H27  1  0.74945682  0.20052631  0.68019086  1
  H  H28  1  0.74557100  0.53232620  0.67870134  1
  H  H29  1  0.73883965  0.86432108  0.67920447  1
  H  H30  1  0.24560135  0.13472298  0.17626757  1
  H  H31  1  0.24863461  0.46681658  0.17912669  1
  H  H32  1  0.24472362  0.80278751  0.17933752  1
  H  H33  1  0.74825098  0.13404871  0.17841011  1
  H  H34  1  0.75835889  0.46691312  0.18095587  1
  H  H35  1  0.75615202  0.80041126  0.18052159  1
  H  H36  1  0.24090197  0.20042037  0.82200516  1
  H  H37  1  0.25970940  0.53051815  0.82099094  1
  H  H38  1  0.25098468  0.86365217  0.81950618  1
  H  H39  1  0.74986903  0.19934005  0.82225128  1
  H  H40  1  0.73821945  0.53266728  0.82141207  1
  H  H41  1  0.75102282  0.86454988  0.81700868  1
  H  H42  1  0.24541591  0.13490512  0.32020098  1
  H  H43  1  0.24909142  0.46673726  0.32325451  1
  H  H44  1  0.25840953  0.80041831  0.31796704  1
  H  H45  1  0.75049414  0.14206876  0.32157093  1
  H  H46  1  0.75048445  0.46900473  0.32176925  1
  H  H47  1  0.74790293  0.80098227  0.31964879  1
  H  H48  1  0.12537673  0.05137172  0.62124329  1
  H  H49  1  0.12559708  0.38653295  0.60824812  1
  H  H50  1  0.12766193  0.72226874  0.60644834  1
  H  H51  1  0.61951121  0.06039555  0.59625153  1
  H  H52  1  0.62654624  0.38593018  0.61713447  1
  H  H53  1  0.62940941  0.71700338  0.62071282  1
  H  H54  1  0.37630921  0.27958839  0.10625461  1
  H  H55  1  0.38040834  0.60876478  0.10117110  1
  H  H56  1  0.37279202  0.94629245  0.11222951  1
  H  H57  1  0.87309776  0.28040580  0.11522675  1
  H  H58  1  0.87724944  0.61183306  0.10833550  1
  H  H59  1  0.87702175  0.94865877  0.11212114  1
  H  H60  1  0.36777081  0.05178419  0.87563358  1
  H  H61  1  0.37848075  0.38734053  0.89722935  1
  H  H62  1  0.37950424  0.72320841  0.89576516  1
  H  H63  1  0.87245698  0.05534339  0.89098608  1
  H  H64  1  0.88049770  0.38899305  0.89904783  1
  H  H65  1  0.88238513  0.72150066  0.89628356  1
  H  H66  1  0.11675030  0.27587420  0.40240101  1
  H  H67  1  0.11591792  0.60585579  0.40277014  1
  H  H68  1  0.11790925  0.94508166  0.39986955  1
  H  H69  1  0.62066772  0.28116893  0.38537973  1
  H  H70  1  0.61778940  0.61054539  0.40242147  1
  H  H71  1  0.62295339  0.94663056  0.38527863  1
  H  H72  1  0.38034316  0.21921962  0.61842722  1
  H  H73  1  0.38146214  0.54947515  0.62227896  1
  H  H74  1  0.37671214  0.88937776  0.60844076  1
  H  H75  1  0.87847075  0.22234705  0.61256092  1
  H  H76  1  0.87456825  0.55123181  0.61458372  1
  H  H77  1  0.87747835  0.88478085  0.62481474  1
  H  H78  1  0.13039269  0.11204618  0.09888016  1
  H  H79  1  0.12356236  0.44486807  0.10776961  1
  H  H80  1  0.12209948  0.77851954  0.10795403  1
  H  H81  1  0.63334444  0.11000698  0.09915076  1
  H  H82  1  0.61849821  0.45191889  0.12549749  1
  H  H83  1  0.61886585  0.77976772  0.12267771  1
  H  H84  1  0.12681294  0.22017747  0.89968088  1
  H  H85  1  0.12154281  0.55077163  0.87692848  1
  H  H86  1  0.12659900  0.88880536  0.89065248  1
  H  H87  1  0.62695801  0.22164412  0.89222345  1
  H  H88  1  0.62697638  0.55687935  0.90278794  1
  H  H89  1  0.62584937  0.88618737  0.88571757  1
  H  H90  1  0.37774876  0.11476950  0.38351225  1
  H  H91  1  0.37382465  0.44674226  0.39188663  1
  H  H92  1  0.36819705  0.77461597  0.39950601  1
  H  H93  1  0.87454900  0.11195429  0.38965210  1
  H  H94  1  0.87070214  0.44535742  0.39652927  1
  H  H95  1  0.87272904  0.77818122  0.39093646  1
  H  H96  1  0.37172562  0.27918483  0.39592176  1
  H  H97  1  0.37126566  0.61346832  0.37835008  1
  H  H98  1  0.37459009  0.94505578  0.39217575  1
  H  H99  1  0.86988169  0.28390890  0.38172546  1
  H  H100  1  0.86923560  0.61540094  0.37718177  1
  H  H101  1  0.87026094  0.94703529  0.37987290  1
  H  H102  1  0.12108278  0.05440837  0.89347884  1
  H  H103  1  0.12904678  0.38395074  0.88574856  1
  H  H104  1  0.13065274  0.71835019  0.87764820  1
  H  H105  1  0.61374090  0.06052127  0.90516383  1
  H  H106  1  0.62684677  0.38520809  0.88311605  1
  H  H107  1  0.62852037  0.71967202  0.88896764  1
  H  H108  1  0.12055927  0.27686953  0.09761090  1
  H  H109  1  0.12611054  0.61122379  0.10525669  1
  H  H110  1  0.12622155  0.94782457  0.10923051  1
  H  H111  1  0.62614675  0.28055888  0.11315950  1
  H  H112  1  0.62888791  0.61445127  0.11785869  1
  H  H113  1  0.62200297  0.94682087  0.11092335  1
  H  H114  1  0.37300650  0.05221056  0.62455545  1
  H  H115  1  0.37909348  0.38918576  0.59667268  1
  H  H116  1  0.38212916  0.72286718  0.59819105  1
  H  H117  1  0.87906114  0.05995865  0.59735020  1
  H  H118  1  0.87630285  0.38974270  0.60646779  1
  H  H119  1  0.87920885  0.72009386  0.61066267  1
  H  H120  1  0.12993400  0.10962974  0.39898210  1
  H  H121  1  0.12486898  0.44593320  0.39164961  1
  H  H122  1  0.12105031  0.78188976  0.37725390  1
  H  H123  1  0.62598535  0.11338864  0.38952934  1
  H  H124  1  0.62192454  0.44775340  0.39063331  1
  H  H125  1  0.62304641  0.77683641  0.38873411  1
  H  H126  1  0.37425020  0.21931093  0.88171290  1
  H  H127  1  0.36649433  0.55747192  0.90614807  1
  H  H128  1  0.37549332  0.88649355  0.88899371  1
  H  H129  1  0.87605095  0.21824027  0.89035141  1
  H  H130  1  0.87393142  0.55199827  0.88137170  1
  H  H131  1  0.87548885  0.88804997  0.88598611  1
  H  H132  1  0.37822304  0.11348380  0.11324255  1
  H  H133  1  0.37248410  0.44525831  0.10811680  1
  H  H134  1  0.37087896  0.77841477  0.10996940  1
  H  H135  1  0.88211548  0.11541871  0.11599440  1
  H  H136  1  0.86562765  0.44367167  0.09846249  1
  H  H137  1  0.86620018  0.77645859  0.09916330  1
  H  H138  1  0.13260563  0.22468513  0.59844083  1
  H  H139  1  0.13391089  0.55611989  0.59676949  1
  H  H140  1  0.12715756  0.88629697  0.61567705  1
  H  H141  1  0.62986630  0.22384674  0.60630691  1
  H  H142  1  0.62620023  0.55525983  0.60511429  1
  H  H143  1  0.63350226  0.89238617  0.59336032  1
  H  H144  1  0.10486795  0.74761347  0.99088193  1
  H  H145  1  0.83249011  0.91741563  0.99599257  1
  H  H146  1  0.29017252  0.58154253  1.00516807  1
  H  H147  1  0.54917683  0.08607230  0.49635860  1
  H  H148  1  0.68665380  0.10048382  0.49640608  1
  H  H149  1  0.20030232  0.25060626  0.49590008  1
  H  H150  1  0.07464598  0.75003994  0.50333459  1
  H  H151  1  0.64298410  0.75284585  0.01377750  1
  H  H152  1  0.39235428  0.08248736  0.51050208  1
  H  H153  1  0.04402029  0.58001659  0.50389475  1
  H  H154  1  0.07407143  0.92038322  0.00071239  1
  H  H155  1  0.05338486  0.92326723  0.50869389  1
  H  H156  1  0.16889548  0.91082182  0.50248952  1
  H  H157  1  0.66545737  0.74676802  0.49865129  1
  H  H158  1  0.44598144  0.58051443  -0.00138287  1
  H  H159  1  0.89893142  0.24955736  0.48706555  1
  H  H160  1  0.32153377  0.90777599  0.50201466  1
  H  H161  1  0.20361724  0.57446001  0.49427251  1
  H  H162  1  0.43327437  0.75159153  0.99988028  1
  H  H163  1  0.84092421  0.58003511  0.50080707  1
  H  H164  1  0.90584359  0.25022212  0.01031229  1
  H  H165  1  0.59814698  0.41709728  0.99598937  1
  H  H166  1  0.95288960  0.08231725  0.49674787  1
  H  H167  1  0.43514315  0.93952190  0.49788761  1
  H  H168  1  0.07568634  0.57966792  0.00276270  1
  H  H169  1  0.29934486  0.74763825  0.50419209  1
  H  H170  1  0.57352556  0.90337540  0.48355757  1
  H  H171  1  0.79632253  0.41631658  -0.00795901  1
  H  H172  1  0.66632565  0.41894498  0.49530362  1
  H  H173  1  0.42022423  0.91649890  0.00327957  1
  H  H174  1  0.69869224  0.08686229  -0.00476739  1
  H  H175  1  0.58453451  0.25362973  0.49928163  1
  H  H176  1  0.36148452  0.58022773  0.50876478  1
  H  H177  1  0.34515629  0.08590838  0.00455069  1
  H  H178  1  0.79917964  0.75067912  -0.00776850  1
  H  H179  1  0.94617676  0.41414442  1.00190524  1
  H  H180  1  0.92215157  0.58230322  0.00332887  1
  H  H181  1  0.71166457  0.91669221  0.49448342  1
  H  H182  1  0.89974734  0.91919176  0.48813837  1
  H  H183  1  0.42602272  0.25225220  -0.00269152  1
  H  H184  1  0.04653018  0.26315942  0.50484767  1
  H  H185  1  0.81474606  0.09665748  0.49630681  1
  H  H186  1  0.45131466  0.74503703  0.49533232  1
  H  H187  1  0.94260952  0.74853816  1.00485450  1
  H  H188  1  0.82477845  0.74681853  0.49438113  1
  H  H189  1  0.53984457  0.08348375  1.00612447  1
  H  H190  1  0.58739466  0.25358968  0.00764763  1
  H  H191  1  0.66850839  0.91494951  0.99659146  1
  Pb  Pb192  1  0.24865060  0.04764673  0.75456500  1
  Pb  Pb193  1  0.25337197  0.37888752  0.74768732  1
  Pb  Pb194  1  0.25290522  0.71200330  0.74522447  1
  Pb  Pb195  1  0.75419669  0.04990410  0.75400698  1
  Pb  Pb196  1  0.75273002  0.37853813  0.74945912  1
  Pb  Pb197  1  0.75210466  0.71224292  0.75171566  1
  Pb  Pb198  1  0.24821308  0.28759529  0.25307578  1
  Pb  Pb199  1  0.24589722  0.61425256  0.25052916  1
  Pb  Pb200  1  0.24459152  0.95265483  0.25699821  1
  Pb  Pb201  1  0.74782395  0.28746278  0.24830505  1
  Pb  Pb202  1  0.74585042  0.61997990  0.25067938  1
  Pb  Pb203  1  0.74929017  0.95152183  0.24806068  1
  Pb  Pb204  1  0.00460114  0.21540914  0.74602690  1
  Pb  Pb205  1  0.00171149  0.54471128  0.74554183  1
  Pb  Pb206  1  0.00386183  0.88100995  0.75041387  1
  Pb  Pb207  1  0.50306375  0.21256941  0.75192434  1
  Pb  Pb208  1  0.50197086  0.54510477  0.76029964  1
  Pb  Pb209  1  0.50046232  0.88213165  0.74460602  1
  Pb  Pb210  1  -0.00038070  0.12143675  0.25587402  1
  Pb  Pb211  1  -0.00675512  0.45153323  0.24554984  1
  Pb  Pb212  1  -0.00276392  0.78275557  0.24786720  1
  Pb  Pb213  1  0.49879669  0.11919072  0.24946136  1
  Pb  Pb214  1  0.49873841  0.45307563  0.25120209  1
  Pb  Pb215  1  0.49202537  0.78449532  0.25302345  1
  C  C216  1  -0.00271844  0.04753206  0.63331584  1
  C  C217  1  0.00049219  0.38086927  0.63087646  1
  C  C218  1  0.00448701  0.71352411  0.63264581  1
  C  C219  1  0.50129031  0.04825398  0.63226236  1
  C  C220  1  0.49922554  0.38059378  0.63035846  1
  C  C221  1  0.50144107  0.71172670  0.63189220  1
  C  C222  1  0.00014430  0.28654341  0.13046687  1
  C  C223  1  0.00229539  0.61746865  0.13069704  1
  C  C224  1  0.00226693  0.95525991  0.13449571  1
  C  C225  1  0.50020330  0.28688550  0.13251488  1
  C  C226  1  0.50122314  0.61965661  0.13253093  1
  C  C227  1  0.49750013  0.95364964  0.13506765  1
  C  C228  1  -0.00297867  0.04798679  0.87154771  1
  C  C229  1  0.00187318  0.37866240  0.86838746  1
  C  C230  1  0.00350924  0.71303400  0.86608969  1
  C  C231  1  0.49648638  0.04710178  0.86877893  1
  C  C232  1  0.50117197  0.38004908  0.86886462  1
  C  C233  1  0.50243687  0.71441203  0.86998564  1
  C  C234  1  -0.00277263  0.28782727  0.36951143  1
  C  C235  1  -0.00247433  0.62001127  0.36847943  1
  C  C236  1  -0.00256499  0.95239075  0.36711329  1
  C  C237  1  0.49533633  0.28680999  0.36879779  1
  C  C238  1  0.49855395  0.61862722  0.36956048  1
  C  C239  1  0.49761104  0.95288108  0.36588553  1
  C  C240  1  0.25253972  0.21320346  0.63105960  1
  C  C241  1  0.25302107  0.54422989  0.63138041  1
  C  C242  1  0.25356117  0.87979679  0.63456657  1
  C  C243  1  0.75309394  0.21506668  0.63262824  1
  C  C244  1  0.74946850  0.54661440  0.63087783  1
  C  C245  1  0.74977896  0.87984035  0.63226880  1
  C  C246  1  0.25192356  0.12022042  0.12863053  1
  C  C247  1  0.24791132  0.45225126  0.13146190  1
  C  C248  1  0.24617607  0.78698466  0.13212033  1
  C  C249  1  0.75424995  0.12046657  0.13051888  1
  C  C250  1  0.74769831  0.45373385  0.13335271  1
  C  C251  1  0.74640383  0.78583762  0.13300725  1
  C  C252  1  0.24756569  0.21361287  0.86997954  1
  C  C253  1  0.24953510  0.54542481  0.86812631  1
  C  C254  1  0.25071026  0.87933073  0.86677782  1
  C  C255  1  0.75098948  0.21344253  0.87017646  1
  C  C256  1  0.74663339  0.54698019  0.86875350  1
  C  C257  1  0.75073984  0.87982958  0.86474321  1
  C  C258  1  0.25094935  0.11984432  0.36756667  1
  C  C259  1  0.24920258  0.45254617  0.37129740  1
  C  C260  1  0.24876520  0.78584477  0.36532164  1
  C  C261  1  0.75034380  0.12411015  0.36831029  1
  C  C262  1  0.74732901  0.45375597  0.36941167  1
  C  C263  1  0.74827882  0.78545337  0.36737359  1
  C  C264  1  0.30892212  0.24081441  0.54218283  1
  C  C265  1  0.76924113  0.76016016  0.03599563  1
  C  C266  1  0.28957310  0.90724393  0.95936533  1
  C  C267  1  0.46939492  0.40727890  0.96371214  1
  C  C268  1  0.29926338  0.09421924  0.45819978  1
  C  C269  1  0.55558626  0.59302935  0.04257764  1
  C  C270  1  0.79403982  0.23848861  0.96271235  1
  C  C271  1  0.45953205  0.26181637  0.46405037  1
  C  C272  1  0.05790495  0.73809202  0.95607028  1
  C  C273  1  0.22144473  0.09337167  0.03228037  1
  C  C274  1  0.28965942  0.42665041  0.46336902  1
  C  C275  1  0.95480653  0.07313494  0.96369737  1
  C  C276  1  0.52091383  0.59434128  0.46604535  1
  C  C277  1  0.44092880  0.59552022  0.45813358  1
  C  C278  1  0.30053518  0.23789742  0.95954957  1
  C  C279  1  0.44080000  0.07294548  0.54485801  1
  C  C280  1  0.47611904  0.40753357  0.53448615  1
  C  C281  1  0.02324160  0.92890720  0.46432905  1
  C  C282  1  0.70939385  0.90525476  0.95860801  1
  C  C283  1  0.46034243  0.92721355  0.04214453  1
  C  C284  1  0.21985433  0.23810961  0.96559708  1
  C  C285  1  0.28499551  0.42425710  0.03906678  1
  C  C286  1  0.80868512  0.09562718  0.03998578  1
  C  C287  1  0.03624134  0.92979873  0.04062906  1
  C  C288  1  0.76575939  0.42789578  0.03494905  1
  C  C289  1  0.71494473  0.57329424  0.53633490  1
  C  C290  1  0.79155328  0.90595081  0.95856350  1
  C  C291  1  0.72001403  0.24170054  0.53813761  1
  C  C292  1  0.54127932  0.26230951  0.46203421  1
  C  C293  1  0.71205171  0.24000237  0.96351007  1
  C  C294  1  0.79642297  0.57148787  0.53776290  1
  C  C295  1  0.20996420  0.75853111  0.03898479  1
  C  C296  1  0.70631512  0.75811512  0.46009028  1
  C  C297  1  0.96540388  0.40966951  0.53823887  1
  C  C298  1  0.68553760  0.43135312  0.04620068  1
  C  C299  1  0.20789708  0.90473951  0.54247732  1
  C  C300  1  0.03557069  0.07299945  0.96449261  1
  C  C301  1  0.31179610  0.57027309  0.54394152  1
  C  C302  1  0.72425181  0.57408268  0.96482509  1
  C  C303  1  0.55961523  0.73764095  0.54306237  1
  C  C304  1  0.97603876  0.73890414  0.96274780  1
  C  C305  1  0.55066616  0.40676918  0.96057463  1
  C  C306  1  0.54978810  0.74021474  0.96239191  1
  C  C307  1  0.43363550  0.07297049  0.95512735  1
  C  C308  1  0.93671615  0.59194479  0.45508747  1
  C  C309  1  0.46480918  0.26178050  0.03760272  1
  C  C310  1  0.26837849  0.75928465  0.46135795  1
  C  C311  1  0.20913674  0.42645159  0.46332599  1
  N  N312  1  0.94245729  0.26692827  0.45785261  1
  N  N313  1  0.01510005  0.58945633  0.46300052  1
  N  N314  1  0.69051219  0.76063790  0.04557120  1
  N  N315  1  0.18725765  0.57082986  0.95442489  1
  N  N316  1  0.03977531  0.59934017  0.03609006  1
  N  N317  1  0.51168522  0.07539539  0.96448873  1
  N  N318  1  0.46207367  0.92440673  0.45809482  1
  N  N319  1  0.95686773  0.92963405  0.04145155  1
  N  N320  1  0.78434602  0.42721946  0.46376773  1
  N  N321  1  0.97914950  0.07362665  0.53867319  1
  N  N322  1  0.51985392  0.07367096  0.53616168  1
  N  N323  1  0.22212491  0.09205124  0.46446976  1
  N  N324  1  0.79798578  0.23995890  0.53891181  1
  N  N325  1  0.21179458  0.90816566  0.96096788  1
  N  N326  1  0.28755833  0.90744555  0.54145670  1
  N  N327  1  0.02837988  0.25814078  0.03494080  1
  N  N328  1  0.54262836  0.93445593  0.45825947  1
  N  N329  1  0.48087118  0.73981453  0.53675685  1
  N  N330  1  0.72985578  0.09402519  0.03556604  1
  N  N331  1  0.81311827  0.90558939  0.54665188  1
  N  N332  1  0.73592144  0.90938989  0.53790895  1
  N  N333  1  0.94442941  0.92814004  0.45581608  1
  N  N334  1  0.02063033  0.25506105  0.46237853  1
  N  N335  1  0.18956378  0.76206766  0.45442738  1
  N  N336  1  0.29993759  0.09408056  0.03865809  1
  N  N337  1  0.47694024  0.59177991  0.03805942  1
  N  N338  1  0.97631325  0.40654092  0.96131133  1
  N  N339  1  0.80162675  0.57217859  0.95941540  1
  N  N340  1  0.05656280  0.07079777  0.54507368  1
  N  N341  1  0.03792091  0.73883383  0.54010028  1
  N  N342  1  0.95930771  0.73871544  0.54007766  1
  N  N343  1  0.79105312  0.08257675  0.45459037  1
  N  N344  1  0.20760863  0.42435061  0.03750527  1
  N  N345  1  0.04285538  0.40854123  0.53735899  1
  N  N346  1  0.55326421  0.40647738  0.53983304  1
  N  N347  1  0.78605758  0.75991875  0.46009666  1
  N  N348  1  0.54447759  0.26179332  0.04136471  1
  N  N349  1  0.47043513  0.74129903  0.96367302  1
  N  N350  1  0.23038743  0.24169045  0.53636127  1
  N  N351  1  0.70840240  0.08382511  0.45504277  1
  N  N352  1  0.53982691  0.92773460  0.04110505  1
  N  N353  1  0.05405913  0.40484882  0.95817405  1
  N  N354  1  0.28780584  0.75821546  0.03849230  1
  N  N355  1  0.26454984  0.57440256  0.96243240  1
  N  N356  1  0.96056218  0.59766420  0.03762266  1
  N  N357  1  0.95075018  0.25955873  0.04290512  1
  N  N358  1  0.70621719  0.42789713  0.45988140  1
  N  N359  1  0.23257393  0.57266270  0.53636575  1
  N  N360  1  0.06723562  0.05587255  0.60455796  1
  N  N361  1  0.06499347  0.39063304  0.59655058  1
  N  N362  1  0.06664511  0.72416799  0.59615332  1
  N  N363  1  0.55732710  0.05821516  0.58997936  1
  N  N364  1  0.56776948  0.38934377  0.60101902  1
  N  N365  1  0.57226106  0.72155428  0.60233446  1
  N  N366  1  0.43708433  0.27683470  0.09452257  1
  N  N367  1  0.44219400  0.60898019  0.09296887  1
  N  N368  1  0.43305957  0.94286441  0.09955280  1
  N  N369  1  0.93235388  0.27684890  0.10040280  1
  N  N370  1  0.93769046  0.60867138  0.09597609  1
  N  N371  1  0.93756830  0.94562074  0.10013904  1
  N  N372  1  0.42407094  0.05643198  0.89554750  1
  N  N373  1  0.43942270  0.39113888  0.90862032  1
  N  N374  1  0.44078038  0.72525203  0.90663944  1
  N  N375  1  0.93103416  0.05805186  0.90683958  1
  N  N376  1  0.94248342  0.38916613  0.90761295  1
  N  N377  1  0.94352099  0.72340895  0.90638614  1
  N  N378  1  0.05477809  0.27875466  0.41084546  1
  N  N379  1  0.05367378  0.60899104  0.41019823  1
  N  N380  1  0.05667593  0.94350562  0.40920331  1
  N  N381  1  0.56210345  0.27765319  0.40162623  1
  N  N382  1  0.55636254  0.60838135  0.41206972  1
  N  N383  1  0.56306573  0.93959926  0.39774881  1
  N  N384  1  0.32281126  0.22361342  0.60087104  1
  N  N385  1  0.32413138  0.55418084  0.60339167  1
  N  N386  1  0.31577294  0.88838409  0.59748255  1
  N  N387  1  0.81853587  0.22341569  0.59916394  1
  N  N388  1  0.81657059  0.55496196  0.59816984  1
  N  N389  1  0.82089471  0.88940388  0.60611839  1
  N  N390  1  0.19126775  0.10929376  0.08801479  1
  N  N391  1  0.18419514  0.44208619  0.09646052  1
  N  N392  1  0.18215549  0.77563625  0.09564561  1
  N  N393  1  0.69519523  0.11103739  0.09063830  1
  N  N394  1  0.67506729  0.44657641  0.10573488  1
  N  N395  1  0.67691037  0.77681885  0.10506604  1
  N  N396  1  0.18758747  0.22329326  0.91102392  1
  N  N397  1  0.17877898  0.55505058  0.89495649  1
  N  N398  1  0.18757814  0.89038399  0.90195567  1
  N  N399  1  0.68688802  0.22468907  0.90643158  1
  N  N400  1  0.68823074  0.55886131  0.91064369  1
  N  N401  1  0.68545434  0.88927379  0.89987449  1
  N  N402  1  0.31946555  0.11073941  0.39943499  1
  N  N403  1  0.31462712  0.44244083  0.40709183  1
  N  N404  1  0.30608470  0.77371570  0.40716952  1
  N  N405  1  0.81413666  0.11142554  0.40247819  1
  N  N406  1  0.80946832  0.44289521  0.40683653  1
  N  N407  1  0.81179090  0.77574294  0.40269129  1
  N  N408  1  0.43219899  0.27658965  0.40751658  1
  N  N409  1  0.42741240  0.61030262  0.39843595  1
  N  N410  1  0.43546237  0.94759508  0.40382307  1
  N  N411  1  0.92810323  0.27743215  0.39783544  1
  N  N412  1  0.92578990  0.61018340  0.39638000  1
  N  N413  1  0.92878274  0.94207119  0.39581281  1
  N  N414  1  0.06145724  0.05787604  0.90827747  1
  N  N415  1  0.06963629  0.38839048  0.89979943  1
  N  N416  1  0.07312583  0.72217740  0.89573899  1
  N  N417  1  0.55139292  0.05732567  0.91163806  1
  N  N418  1  0.56902702  0.38960137  0.90012224  1
  N  N419  1  0.56962012  0.72378845  0.90420066  1
  N  N420  1  0.05883415  0.27497029  0.09001621  1
  N  N421  1  0.06538921  0.60819782  0.09440360  1
  N  N422  1  0.06551109  0.94479930  0.09753852  1
  N  N423  1  0.56594207  0.27724150  0.09967155  1
  N  N424  1  0.57086104  0.61012842  0.10110479  1
  N  N425  1  0.56121756  0.94394008  0.09958982  1
  N  N426  1  0.42960019  0.05699330  0.60462056  1
  N  N427  1  0.44071329  0.39204377  0.58865897  1
  N  N428  1  0.44411755  0.72174082  0.59088860  1
  N  N429  1  0.94104907  0.05811960  0.59137979  1
  N  N430  1  0.93658035  0.39293536  0.59436588  1
  N  N431  1  0.93952424  0.72280038  0.59796604  1
  N  N432  1  0.19173422  0.10836284  0.40655056  1
  N  N433  1  0.18386943  0.44198042  0.40716848  1
  N  N434  1  0.17941722  0.77818925  0.39421061  1
  N  N435  1  0.68634837  0.11298614  0.40271575  1
  N  N436  1  0.68230048  0.44437300  0.40320736  1
  N  N437  1  0.68276401  0.77458121  0.40252744  1
  N  N438  1  0.31708178  0.22300032  0.90061576  1
  N  N439  1  0.30409219  0.55629708  0.91124219  1
  N  N440  1  0.31564084  0.89007499  0.90246283  1
  N  N441  1  0.81671129  0.22248412  0.90533468  1
  N  N442  1  0.81536855  0.55516287  0.89801524  1
  N  N443  1  0.81572945  0.89018494  0.89991809  1
  N  N444  1  0.31941295  0.11106459  0.09798817  1
  N  N445  1  0.31251067  0.44121222  0.09548591  1
  N  N446  1  0.31018841  0.77635388  0.09783836  1
  N  N447  1  0.82389895  0.11127431  0.09899058  1
  N  N448  1  0.80363243  0.44234383  0.09075280  1
  N  N449  1  0.80443230  0.77538827  0.09037575  1
  N  N450  1  0.19443984  0.22299839  0.59045812  1
  N  N451  1  0.19636605  0.55332312  0.58937502  1
  N  N452  1  0.18661707  0.88937171  0.60056734  1
  N  N453  1  0.69062711  0.22654756  0.59456451  1
  N  N454  1  0.68674555  0.55835119  0.59225808  1
  N  N455  1  0.69582954  0.89115332  0.58879936  1
  Cl  Cl456  1  0.24902839  0.04810609  0.62428693  1
  Cl  Cl457  1  0.25310215  0.38306267  0.61379082  1
  Cl  Cl458  1  0.25547998  0.72189325  0.60768531  1
  Cl  Cl459  1  0.75096962  0.06576381  0.59644671  1
  Cl  Cl460  1  0.75137499  0.38719916  0.61705635  1
  Cl  Cl461  1  0.75567306  0.72125318  0.61453376  1
  Cl  Cl462  1  0.24841508  0.28044864  0.12112705  1
  Cl  Cl463  1  0.25520672  0.60836321  0.10757823  1
  Cl  Cl464  1  0.24921036  0.95174533  0.12525915  1
  Cl  Cl465  1  0.74967532  0.27955597  0.11533337  1
  Cl  Cl466  1  0.75486818  0.61584332  0.11764126  1
  Cl  Cl467  1  0.74938891  0.94864975  0.11498343  1
  Cl  Cl468  1  0.24472242  0.05461314  0.88808599  1
  Cl  Cl469  1  0.25451691  0.38196413  0.87979334  1
  Cl  Cl470  1  0.25855999  0.71771198  0.87639000  1
  Cl  Cl471  1  0.73582586  0.06166544  0.89044953  1
  Cl  Cl472  1  0.75984354  0.38700468  0.88421869  1
  Cl  Cl473  1  0.75535207  0.72122764  0.88678258  1
  Cl  Cl474  1  0.23883571  0.27430430  0.39416988  1
  Cl  Cl475  1  0.23648980  0.60500343  0.38979768  1
  Cl  Cl476  1  0.25094769  0.94016159  0.39651851  1
  Cl  Cl477  1  0.74751611  0.28081309  0.38016936  1
  Cl  Cl478  1  0.74261731  0.61499471  0.38341147  1
  Cl  Cl479  1  0.74363044  0.94151651  0.39350502  1
  Cl  Cl480  1  0.00818308  0.22767638  0.60508663  1
  Cl  Cl481  1  0.01234279  0.55878087  0.60766030  1
  Cl  Cl482  1  0.00494056  0.88843273  0.61334705  1
  Cl  Cl483  1  0.50682951  0.21733933  0.61975485  1
  Cl  Cl484  1  0.50528301  0.54925008  0.62930061  1
  Cl  Cl485  1  0.50606446  0.89259809  0.59736696  1
  Cl  Cl486  1  0.00651692  0.11597491  0.12482114  1
  Cl  Cl487  1  -0.00893648  0.44524053  0.10682440  1
  Cl  Cl488  1  -0.00711996  0.77637350  0.11418748  1
  Cl  Cl489  1  0.50984385  0.10908577  0.10618943  1
  Cl  Cl490  1  0.49411019  0.45133591  0.11867139  1
  Cl  Cl491  1  0.49412836  0.77624870  0.11550380  1
  Cl  Cl492  1  0.00012109  0.21776629  0.87761871  1
  Cl  Cl493  1  -0.00255099  0.55502798  0.88514597  1
  Cl  Cl494  1  0.00247591  0.88872404  0.88116157  1
  Cl  Cl495  1  0.50326457  0.21982438  0.88733369  1
  Cl  Cl496  1  0.49012330  0.55929840  0.89910472  1
  Cl  Cl497  1  0.49893483  0.88400390  0.87687012  1
  Cl  Cl498  1  -0.00223047  0.11005325  0.39466192  1
  Cl  Cl499  1  -0.00592204  0.44999084  0.37781059  1
  Cl  Cl500  1  -0.00399983  0.78020426  0.38379010  1
  Cl  Cl501  1  0.50539374  0.10775636  0.39166950  1
  Cl  Cl502  1  0.50073239  0.44833355  0.38322567  1
  Cl  Cl503  1  0.49253726  0.77692746  0.39293984  1
  Cl  Cl504  1  0.36621795  0.14296369  0.75050787  1
  Cl  Cl505  1  0.36174223  0.47998608  0.74996455  1
  Cl  Cl506  1  0.36344500  0.81290558  0.74469495  1
  Cl  Cl507  1  0.85818273  0.14211074  0.74616759  1
  Cl  Cl508  1  0.86486743  0.47956831  0.75129329  1
  Cl  Cl509  1  0.86250573  0.81221560  0.74582773  1
  Cl  Cl510  1  0.14026835  0.18582792  0.25303468  1
  Cl  Cl511  1  0.14027591  0.52375348  0.24750205  1
  Cl  Cl512  1  0.14010804  0.85666785  0.25457160  1
  Cl  Cl513  1  0.63764150  0.18794240  0.25003804  1
  Cl  Cl514  1  0.63705749  0.52218975  0.24641296  1
  Cl  Cl515  1  0.63810104  0.85610923  0.24984168  1
  Cl  Cl516  1  0.14162574  0.14497535  0.74758037  1
  Cl  Cl517  1  0.13795071  0.47776336  0.75400082  1
  Cl  Cl518  1  0.13824330  0.81131289  0.74796702  1
  Cl  Cl519  1  0.63731495  0.14433039  0.74856799  1
  Cl  Cl520  1  0.64070853  0.47953688  0.75134825  1
  Cl  Cl521  1  0.63889082  0.81197468  0.74816634  1
  Cl  Cl522  1  0.36494471  0.18865375  0.24996623  1
  Cl  Cl523  1  0.35981322  0.52452981  0.25180244  1
  Cl  Cl524  1  0.36208177  0.85502531  0.25075164  1
  Cl  Cl525  1  0.86143694  0.18775363  0.25137092  1
  Cl  Cl526  1  0.86081346  0.52153493  0.24988225  1
  Cl  Cl527  1  0.85635905  0.85618419  0.25249007  1
  Cl  Cl528  1  0.10892684  0.31011951  0.74853126  1
  Cl  Cl529  1  0.11469839  0.64543177  0.75282529  1
  Cl  Cl530  1  0.11054365  0.97921064  0.74785233  1
  Cl  Cl531  1  0.61362614  0.31245034  0.74943836  1
  Cl  Cl532  1  0.61258836  0.64648324  0.75051737  1
  Cl  Cl533  1  0.60797638  0.97879675  0.74719039  1
  Cl  Cl534  1  0.39319332  0.02292488  0.25269070  1
  Cl  Cl535  1  0.39117868  0.35355844  0.25212913  1
  Cl  Cl536  1  0.38987951  0.68920050  0.25294936  1
  Cl  Cl537  1  0.88547879  0.02154619  0.25587352  1
  Cl  Cl538  1  0.88776293  0.35468693  0.24975900  1
  Cl  Cl539  1  0.88769123  0.68939158  0.25182973  1
  Cl  Cl540  1  0.38948978  0.31113042  0.75059871  1
  Cl  Cl541  1  0.39052979  0.64537711  0.74966499  1
  Cl  Cl542  1  0.38870776  0.97645748  0.74687246  1
  Cl  Cl543  1  0.88736563  0.30950534  0.74623047  1
  Cl  Cl544  1  0.89147108  0.64650833  0.74964647  1
  Cl  Cl545  1  0.88665883  0.97906067  0.74898815  1
  Cl  Cl546  1  0.10947978  0.01951251  0.25541568  1
  Cl  Cl547  1  0.10853411  0.35254308  0.25045788  1
  Cl  Cl548  1  0.10724996  0.68953045  0.25027208  1
  Cl  Cl549  1  0.61156650  0.02162172  0.25441246  1
  Cl  Cl550  1  0.61221541  0.35602174  0.24663010  1
  Cl  Cl551  1  0.61388388  0.68972770  0.24662004  1
