# generated using pymatgen
data_H8PbC4(N3Cl2)2
_symmetry_space_group_name_H-M   'P 1'
_cell_length_a   16.63053410
_cell_length_b   22.52283702
_cell_length_c   21.59311517
_cell_angle_alpha   89.99958183
_cell_angle_beta   89.96655917
_cell_angle_gamma   89.98541272
_symmetry_Int_Tables_number   1
_chemical_formula_structural   H8PbC4(N3Cl2)2
_chemical_formula_sum   'H192 Pb24 C96 N144 Cl96'
_cell_volume   8088.06260996
_cell_formula_units_Z   24
loop_
 _symmetry_equiv_pos_site_id
 _symmetry_equiv_pos_as_xyz
  1  'x, y, z'
loop_
 _atom_site_type_symbol
 _atom_site_label
 _atom_site_symmetry_multiplicity
 _atom_site_fract_x
 _atom_site_fract_y
 _atom_site_fract_z
 _atom_site_occupancy
  H  H0  1  -0.00320751  0.02590325  0.67788678  1
  H  H1  1  0.00785502  0.36003251  0.68054348  1
  H  H2  1  0.00266899  0.69688018  0.67241740  1
  H  H3  1  0.49914426  0.02751491  0.67851912  1
  H  H4  1  0.47386582  0.36620892  0.65836365  1
  H  H5  1  0.50216447  0.69163419  0.67516188  1
  H  H6  1  -0.00744556  0.30498948  0.18037791  1
  H  H7  1  0.02067562  0.63464851  0.15563186  1
  H  H8  1  -0.01289534  0.97168137  0.17703909  1
  H  H9  1  0.50884567  0.30413554  0.17975982  1
  H  H10  1  0.50619407  0.64096364  0.18036333  1
  H  H11  1  0.51309566  0.96746943  0.17528050  1
  H  H12  1  0.01418655  0.02863744  0.82225916  1
  H  H13  1  0.00378998  0.36577544  0.81858060  1
  H  H14  1  0.00860206  0.69791072  0.82657601  1
  H  H15  1  0.48573602  0.03361643  0.81498029  1
  H  H16  1  0.50538188  0.36375828  0.82223669  1
  H  H17  1  0.49361354  0.69724998  0.81929630  1
  H  H18  1  0.00869362  0.30146382  0.31976188  1
  H  H19  1  0.02019429  0.64066732  0.32317337  1
  H  H20  1  0.00430176  0.97419994  0.32311984  1
  H  H21  1  0.48972171  0.30343587  0.32323132  1
  H  H22  1  0.48591134  0.63450983  0.32566791  1
  H  H23  1  0.50397128  0.97296126  0.32775183  1
  H  H24  1  0.24688354  0.19052400  0.67615210  1
  H  H25  1  0.23983608  0.53016542  0.67762793  1
  H  H26  1  0.24237519  0.86402451  0.67861414  1
  H  H27  1  0.74345624  0.19269499  0.67834924  1
  H  H28  1  0.76372199  0.53234803  0.67470679  1
  H  H29  1  0.75572054  0.86194582  0.67381659  1
  H  H30  1  0.26348542  0.13349311  0.18484436  1
  H  H31  1  0.24180542  0.46914006  0.18344561  1
  H  H32  1  0.24450071  0.80702792  0.17780260  1
  H  H33  1  0.73657827  0.13335124  0.18251726  1
  H  H34  1  0.74391610  0.46843774  0.18196849  1
  H  H35  1  0.75032694  0.80376854  0.18095003  1
  H  H36  1  0.25270223  0.19616382  0.82587179  1
  H  H37  1  0.22908657  0.53383384  0.84477026  1
  H  H38  1  0.23538027  0.86388412  0.82692853  1
  H  H39  1  0.76277370  0.19748951  0.81975951  1
  H  H40  1  0.75405391  0.52131767  0.82448065  1
  H  H41  1  0.76882649  0.86265627  0.81756234  1
  H  H42  1  0.24232359  0.13984840  0.32449572  1
  H  H43  1  0.27689745  0.46605622  0.34149419  1
  H  H44  1  0.26419006  0.80363061  0.32372545  1
  H  H45  1  0.76955587  0.13715853  0.32528102  1
  H  H46  1  0.75041867  0.46992849  0.31792654  1
  H  H47  1  0.73720817  0.80691924  0.32305763  1
  H  H48  1  0.12657322  0.05075698  0.61323474  1
  H  H49  1  0.11052344  0.39060979  0.59535107  1
  H  H50  1  0.11906865  0.72713265  0.59932983  1
  H  H51  1  0.62258663  0.05387836  0.60741202  1
  H  H52  1  0.58481336  0.39214536  0.57827125  1
  H  H53  1  0.61108748  0.72530573  0.59474872  1
  H  H54  1  0.38035381  0.28146516  0.11192263  1
  H  H55  1  0.39139707  0.61090268  0.10580596  1
  H  H56  1  0.37452195  0.94706173  0.11965104  1
  H  H57  1  0.88767286  0.27705443  0.09568650  1
  H  H58  1  0.91441000  0.59932133  0.07509909  1
  H  H59  1  0.88095293  0.93787355  0.09418372  1
  H  H60  1  0.37099414  0.05342837  0.89444936  1
  H  H61  1  0.37106919  0.38163312  0.87999378  1
  H  H62  1  0.37044091  0.71945053  0.89018180  1
  H  H63  1  0.87546969  0.05146742  0.87377884  1
  H  H64  1  0.86773093  0.38390884  0.87434851  1
  H  H65  1  0.86850089  0.71679092  0.87976886  1
  H  H66  1  0.11358000  0.27482701  0.40342141  1
  H  H67  1  0.12013923  0.60882242  0.41073663  1
  H  H68  1  0.11381142  0.94091569  0.40181502  1
  H  H69  1  0.61686864  0.27707914  0.38898363  1
  H  H70  1  0.62726856  0.61640581  0.37585337  1
  H  H71  1  0.61224177  0.94509083  0.40961278  1
  H  H72  1  0.38079343  0.21870559  0.61670176  1
  H  H73  1  0.37907230  0.55015109  0.62226601  1
  H  H74  1  0.38243103  0.88217276  0.62718487  1
  H  H75  1  0.87538354  0.21689878  0.61501366  1
  H  H76  1  0.87000682  0.56185280  0.59215167  1
  H  H77  1  0.88571205  0.88744449  0.60951411  1
  H  H78  1  0.13203911  0.11335858  0.12263918  1
  H  H79  1  0.13185732  0.44475627  0.10387875  1
  H  H80  1  0.13332829  0.77643600  0.09885183  1
  H  H81  1  0.63235539  0.10784493  0.09683023  1
  H  H82  1  0.63223824  0.44278104  0.09893820  1
  H  H83  1  0.63589457  0.77582263  0.10299344  1
  H  H84  1  0.12057499  0.22236910  0.88713446  1
  H  H85  1  0.09040184  0.55560659  0.89625287  1
  H  H86  1  0.13302961  0.89153200  0.91439195  1
  H  H87  1  0.62227374  0.21825281  0.87254517  1
  H  H88  1  0.61450057  0.54603997  0.87599821  1
  H  H89  1  0.62723639  0.88289426  0.86969722  1
  H  H90  1  0.37032224  0.11434221  0.38992204  1
  H  H91  1  0.41269122  0.44663791  0.39718822  1
  H  H92  1  0.38278822  0.77552100  0.39757941  1
  H  H93  1  0.87106582  0.10571892  0.40956415  1
  H  H94  1  0.88380136  0.44940196  0.37662377  1
  H  H95  1  0.88069112  0.78531512  0.37032808  1
  H  H96  1  0.36828093  0.27563751  0.39662089  1
  H  H97  1  0.38405373  0.60665478  0.41368670  1
  H  H98  1  0.36662207  0.94642373  0.38329161  1
  H  H99  1  0.86834776  0.28410645  0.37085111  1
  H  H100  1  0.87797476  0.61708124  0.37181810  1
  H  H101  1  0.86703176  0.95117380  0.38080335  1
  H  H102  1  0.12004494  0.05545610  0.90660973  1
  H  H103  1  0.11463557  0.38987515  0.89934231  1
  H  H104  1  0.11364833  0.72891594  0.90899946  1
  H  H105  1  0.61953960  0.05301496  0.87784716  1
  H  H106  1  0.61761188  0.39018945  0.90013347  1
  H  H107  1  0.61978584  0.71976617  0.88624934  1
  H  H108  1  0.13292238  0.28491550  0.12657736  1
  H  H109  1  0.15958088  0.61348819  0.10467500  1
  H  H110  1  0.12582789  0.94854989  0.12257692  1
  H  H111  1  0.62908843  0.28039119  0.10479861  1
  H  H112  1  0.63856863  0.61282793  0.11990334  1
  H  H113  1  0.62104116  0.93692297  0.09479702  1
  H  H114  1  0.37404473  0.05625002  0.61215109  1
  H  H115  1  0.33773103  0.38649868  0.60372276  1
  H  H116  1  0.36510434  0.71781127  0.62185438  1
  H  H117  1  0.87797707  0.05487411  0.60298823  1
  H  H118  1  0.86795071  0.38189523  0.62843435  1
  H  H119  1  0.87157799  0.72313561  0.61007439  1
  H  H120  1  0.12145667  0.10972361  0.39498926  1
  H  H121  1  0.16499796  0.43669522  0.41976986  1
  H  H122  1  0.13422982  0.78137109  0.39019061  1
  H  H123  1  0.62835695  0.12115570  0.37323242  1
  H  H124  1  0.63690632  0.44189993  0.39670308  1
  H  H125  1  0.63956183  0.77365089  0.41104461  1
  H  H126  1  0.36861647  0.22482356  0.90132496  1
  H  H127  1  0.33569927  0.56479963  0.92646383  1
  H  H128  1  0.37657998  0.88203090  0.87732302  1
  H  H129  1  0.86562132  0.22721025  0.90594656  1
  H  H130  1  0.85698911  0.55817295  0.90678897  1
  H  H131  1  0.87165024  0.88944810  0.90394647  1
  H  H132  1  0.38063408  0.11558529  0.10736769  1
  H  H133  1  0.37923797  0.45064838  0.12586371  1
  H  H134  1  0.38018953  0.78188815  0.12048343  1
  H  H135  1  0.87757835  0.11447469  0.12803503  1
  H  H136  1  0.87941652  0.44953314  0.12008562  1
  H  H137  1  0.88368478  0.78050139  0.12024549  1
  H  H138  1  0.13374535  0.22360261  0.59837087  1
  H  H139  1  0.13444834  0.56204041  0.59313975  1
  H  H140  1  0.13772620  0.88875289  0.59558004  1
  H  H141  1  0.62733465  0.22148591  0.60277251  1
  H  H142  1  0.62418333  0.54988744  0.61978362  1
  H  H143  1  0.63697213  0.89123103  0.60179251  1
  H  H144  1  0.38688242  0.91643481  0.49437652  1
  H  H145  1  0.89077490  0.41426400  -0.01085083  1
  H  H146  1  0.64394462  0.58069473  0.50975676  1
  H  H147  1  0.53911214  0.90423460  0.50405955  1
  H  H148  1  0.19752913  0.41388181  -0.00306399  1
  H  H149  1  0.57868802  0.75165321  0.99706753  1
  H  H150  1  0.26390739  0.58861257  1.02836095  1
  H  H151  1  0.77935678  0.58501276  1.00576161  1
  H  H152  1  0.32786339  0.08639944  0.49648244  1
  H  H153  1  0.63874755  0.08938528  0.48821877  1
  H  H154  1  0.57444343  0.25282002  -0.00231204  1
  H  H155  1  0.55365325  0.90673463  -0.00931406  1
  H  H156  1  0.96214913  0.25183345  -0.00713405  1
  H  H157  1  0.39589511  0.91654964  0.01011392  1
  H  H158  1  0.90904626  0.75305864  0.50261118  1
  H  H159  1  0.20983755  0.91579601  0.48998953  1
  H  H160  1  0.15594350  0.25409625  0.99408096  1
  H  H161  1  0.22617839  0.40675274  0.52582380  1
  H  H162  1  0.43303299  0.06788544  1.00495808  1
  H  H163  1  0.88799405  0.74796021  0.99020721  1
  H  H164  1  0.21226398  0.58749400  0.49468420  1
  H  H165  1  0.52190113  0.42245108  0.47234125  1
  H  H166  1  0.53887437  0.75317971  0.49461520  1
  H  H167  1  0.04208096  0.24547602  0.50719477  1
  H  H168  1  0.95859888  0.91042472  -0.00434886  1
  H  H169  1  0.85491122  0.41826974  0.49003416  1
  H  H170  1  0.88297842  0.25273035  0.48449777  1
  H  H171  1  0.78532965  0.25312149  1.00380039  1
  H  H172  1  0.03191522  0.41794479  0.49666257  1
  H  H173  1  0.60516440  0.58589219  0.01114482  1
  H  H174  1  0.98653550  0.57753940  -0.02679602  1
  H  H175  1  0.16543825  0.09394679  0.00658122  1
  H  H176  1  0.04457033  0.07177300  1.00839993  1
  H  H177  1  0.32407680  0.09956177  -0.00428333  1
  H  H178  1  0.70921509  0.08157620  -0.00609307  1
  H  H179  1  0.03641379  0.58279708  0.50674716  1
  H  H180  1  0.41509832  0.74904591  0.99926406  1
  H  H181  1  0.39323123  0.41425812  0.99402652  1
  H  H182  1  0.45030281  0.57732291  -0.00107167  1
  H  H183  1  0.80035054  0.58999335  0.48827636  1
  H  H184  1  0.70063439  0.40925048  0.49732133  1
  H  H185  1  0.20444938  0.25285869  0.49707596  1
  H  H186  1  0.84542036  0.91909160  0.50349287  1
  H  H187  1  0.08765406  0.08141370  0.50342491  1
  H  H188  1  0.58254495  0.08859908  0.98238158  1
  H  H189  1  0.89399581  0.08320329  0.98743163  1
  H  H190  1  0.72458575  0.74778752  0.50647207  1
  H  H191  1  0.79363916  0.91760805  1.00498164  1
  Pb  Pb192  1  0.24249908  0.05126986  0.75356659  1
  Pb  Pb193  1  0.24415588  0.38295325  0.75921793  1
  Pb  Pb194  1  0.24242366  0.71553261  0.75668326  1
  Pb  Pb195  1  0.74664145  0.04805858  0.74843441  1
  Pb  Pb196  1  0.73305359  0.38518132  0.73614324  1
  Pb  Pb197  1  0.74275856  0.71407739  0.74088608  1
  Pb  Pb198  1  0.25777470  0.28335615  0.25937318  1
  Pb  Pb199  1  0.25750899  0.61602714  0.26341947  1
  Pb  Pb200  1  0.25303329  0.95096971  0.25403306  1
  Pb  Pb201  1  0.75177410  0.28451724  0.23963877  1
  Pb  Pb202  1  0.76549564  0.61688590  0.23834196  1
  Pb  Pb203  1  0.75397871  0.94971229  0.24858709  1
  Pb  Pb204  1  -0.00882818  0.21844422  0.75144361  1
  Pb  Pb205  1  -0.00502794  0.54849834  0.73910520  1
  Pb  Pb206  1  -0.00240010  0.88062105  0.75512249  1
  Pb  Pb207  1  0.49539293  0.21619300  0.75027575  1
  Pb  Pb208  1  0.48728540  0.54886641  0.76334993  1
  Pb  Pb209  1  0.49842596  0.88115488  0.74395127  1
  Pb  Pb210  1  0.00352148  0.11738045  0.25267075  1
  Pb  Pb211  1  0.01286502  0.44780994  0.26068513  1
  Pb  Pb212  1  0.01026125  0.78378909  0.24675633  1
  Pb  Pb213  1  0.50511944  0.11622579  0.24157896  1
  Pb  Pb214  1  0.50940447  0.45196442  0.23885062  1
  Pb  Pb215  1  0.50848464  0.78069354  0.25454767  1
  C  C216  1  0.00036257  0.04303561  0.63103929  1
  C  C217  1  -0.00472992  0.37643261  0.63431444  1
  C  C218  1  -0.00288438  0.71433782  0.62589179  1
  C  C219  1  0.49887091  0.04529478  0.63214872  1
  C  C220  1  0.46499251  0.38217362  0.61125521  1
  C  C221  1  0.49309236  0.70994809  0.62934694  1
  C  C222  1  0.00479916  0.28966685  0.13365719  1
  C  C223  1  0.03138772  0.61729870  0.10928821  1
  C  C224  1  -0.00239332  0.95375550  0.13113826  1
  C  C225  1  0.50607928  0.28864506  0.13226912  1
  C  C226  1  0.51315227  0.62369935  0.13360580  1
  C  C227  1  0.50216864  0.95171710  0.12833326  1
  C  C228  1  0.00318589  0.04355884  0.86940722  1
  C  C229  1  -0.00545388  0.37995737  0.86595216  1
  C  C230  1  -0.00368973  0.71442874  0.87279347  1
  C  C231  1  0.49273391  0.04721551  0.86297983  1
  C  C232  1  0.49717667  0.37865348  0.86952710  1
  C  C233  1  0.49474904  0.71246540  0.86708205  1
  C  C234  1  -0.00368360  0.28709818  0.36688965  1
  C  C235  1  0.00641647  0.62361853  0.36894967  1
  C  C236  1  -0.00533321  0.95601734  0.36876515  1
  C  C237  1  0.49123222  0.28590709  0.36986015  1
  C  C238  1  0.49873233  0.61976120  0.37226716  1
  C  C239  1  0.49393409  0.95511228  0.37400571  1
  C  C240  1  0.25328331  0.20952193  0.63030286  1
  C  C241  1  0.25055439  0.54641407  0.63106114  1
  C  C242  1  0.25445456  0.87842991  0.63143697  1
  C  C243  1  0.74914652  0.20949578  0.63169808  1
  C  C244  1  0.75215478  0.54770782  0.62775270  1
  C  C245  1  0.75987669  0.87951059  0.62722688  1
  C  C246  1  0.25841431  0.12175762  0.13621247  1
  C  C247  1  0.25069841  0.45467095  0.13604122  1
  C  C248  1  0.25304621  0.78928664  0.13182714  1
  C  C249  1  0.74929471  0.11941494  0.13534498  1
  C  C250  1  0.75173807  0.45366262  0.13452863  1
  C  C251  1  0.75649851  0.78691179  0.13428049  1
  C  C252  1  0.24664191  0.21364867  0.87236181  1
  C  C253  1  0.21847238  0.55016353  0.89157587  1
  C  C254  1  0.24815771  0.87899675  0.87341938  1
  C  C255  1  0.75037982  0.21343988  0.86621666  1
  C  C256  1  0.74189376  0.54007371  0.86980744  1
  C  C257  1  0.75544944  0.87771586  0.86421275  1
  C  C258  1  0.24517122  0.12283792  0.37137795  1
  C  C259  1  0.28532243  0.44966015  0.38843522  1
  C  C260  1  0.26016556  0.78707000  0.37065304  1
  C  C261  1  0.75524805  0.12164819  0.37150553  1
  C  C262  1  0.75715528  0.45273735  0.36464304  1
  C  C263  1  0.75245573  0.79002089  0.36859608  1
  C  C264  1  0.93235409  0.26150488  0.45257728  1
  C  C265  1  0.01540848  0.91985411  0.46168903  1
  C  C266  1  0.27775554  0.24711913  0.96629102  1
  C  C267  1  0.40659366  0.40890389  0.52223677  1
  C  C268  1  0.77126632  0.57765231  0.53154091  1
  C  C269  1  0.29108134  0.75521418  0.46336679  1
  C  C270  1  0.48919523  0.41053421  0.51422630  1
  C  C271  1  0.15621808  0.57773244  0.97782863  1
  C  C272  1  0.93801159  0.40520960  0.95528825  1
  C  C273  1  0.52300449  0.40786670  0.96484088  1
  C  C274  1  0.01477828  0.74756216  0.96875037  1
  C  C275  1  0.45545164  0.73930134  0.96102379  1
  C  C276  1  0.68947455  0.09671864  0.45726895  1
  C  C277  1  0.43273560  0.74406378  0.54472145  1
  C  C278  1  0.73577905  0.09372121  0.03835789  1
  C  C279  1  0.80594343  0.75967350  0.04482591  1
  C  C280  1  0.23922561  0.90498871  0.53360236  1
  C  C281  1  0.02975050  0.74960163  0.53309566  1
  C  C282  1  0.44206312  0.40503888  0.95945404  1
  C  C283  1  0.32000371  0.90298726  0.54517886  1
  C  C284  1  0.56063831  0.59387845  0.45729449  1
  C  C285  1  0.81141836  0.42664026  0.45350895  1
  C  C286  1  0.01902512  0.40695763  0.96246305  1
  C  C287  1  0.22931044  0.42622813  0.03891186  1
  C  C288  1  0.52319739  0.91985657  0.03320585  1
  C  C289  1  0.04438460  0.07164341  0.54067902  1
  C  C290  1  0.30980887  0.90443606  0.95868435  1
  C  C291  1  0.28974681  0.10381706  0.03835617  1
  C  C292  1  0.25998998  0.41923625  0.48459443  1
  C  C293  1  0.76692323  0.90578060  0.96052753  1
  C  C294  1  0.46363888  0.06635992  0.96049929  1
  C  C295  1  0.01300552  0.25814941  0.46399044  1
  C  C296  1  0.94120431  0.07282050  0.95404527  1
  C  C297  1  0.53272031  0.25368662  0.45978469  1
  C  C298  1  0.53760956  0.74003218  0.95989124  1
  C  C299  1  0.34268219  0.42216794  0.47758824  1
  C  C300  1  0.76942138  0.09136849  0.46808534  1
  C  C301  1  0.45873584  0.07792512  0.54158626  1
  C  C302  1  0.48344865  0.59098887  0.04024481  1
  C  C303  1  0.53769363  0.26237929  0.03806156  1
  C  C304  1  0.72089417  0.24245644  0.53884611  1
  C  C305  1  0.20742533  0.09095301  0.46444135  1
  C  C306  1  0.20806437  0.10206144  0.04373709  1
  C  C307  1  0.99028677  0.26279144  0.03707270  1
  C  C308  1  0.09400541  0.58845551  0.02382510  1
  C  C309  1  0.72479916  0.91454328  0.53487441  1
  C  C310  1  0.30977064  0.42879864  0.04867577  1
  C  C311  1  0.23100686  0.75558893  0.03821800  1
  N  N312  1  0.23397641  0.90899863  0.97123671  1
  N  N313  1  0.30861554  0.24391612  0.54496132  1
  N  N314  1  0.76216085  0.24581496  0.95964642  1
  N  N315  1  0.45560902  0.25320520  0.46332352  1
  N  N316  1  0.21392519  0.75731784  0.46245868  1
  N  N317  1  0.93853067  0.92434072  0.45605840  1
  N  N318  1  0.81365693  0.09695747  0.04859952  1
  N  N319  1  0.68527970  0.24243366  0.94985138  1
  N  N320  1  0.72872455  0.75747602  0.03784504  1
  N  N321  1  0.06827691  0.26527409  0.04707743  1
  N  N322  1  0.45851193  0.26210477  0.04012995  1
  N  N323  1  0.73250878  0.42298184  0.45856011  1
  N  N324  1  0.69292595  0.57359054  0.54184378  1
  N  N325  1  0.93831079  0.59303414  0.45056656  1
  N  N326  1  0.51367685  0.93008055  0.46976613  1
  N  N327  1  0.51097702  0.74502762  0.53661215  1
  N  N328  1  0.80441384  0.42837666  0.04518607  1
  N  N329  1  0.43670433  0.92241049  0.45772745  1
  N  N330  1  0.82178003  0.76008518  0.44945917  1
  N  N331  1  0.79811111  0.24044553  0.54171519  1
  N  N332  1  0.53652558  0.07705423  0.53904888  1
  N  N333  1  0.44459026  0.92416881  0.04240917  1
  N  N334  1  0.01967881  0.07307954  0.96479730  1
  N  N335  1  0.23663099  0.57906493  0.53807571  1
  N  N336  1  0.28669031  0.09304210  0.46164775  1
  N  N337  1  0.23611131  0.58393242  0.98540353  1
  N  N338  1  0.01489285  0.59000012  0.46208654  1
  N  N339  1  0.68894305  0.90352358  0.94944414  1
  N  N340  1  0.96528004  0.07461102  0.53715753  1
  N  N341  1  0.56264693  0.59241653  0.04616121  1
  N  N342  1  0.72874421  0.42594093  0.03850171  1
  N  N343  1  0.74567866  0.75535249  0.46144495  1
  N  N344  1  0.67846903  0.57291636  0.95224681  1
  N  N345  1  0.05987694  0.92420698  0.04644145  1
  N  N346  1  0.48490510  0.59047572  0.47040941  1
  N  N347  1  0.80352595  0.91169306  0.53834294  1
  N  N348  1  0.19926745  0.24492909  0.96064027  1
  N  N349  1  0.31354304  0.57534868  0.54652502  1
  N  N350  1  0.30803775  0.75685269  0.04419789  1
  N  N351  1  0.00795814  0.41015313  0.54137445  1
  N  N352  1  0.23105942  0.24565216  0.53971190  1
  N  N353  1  1.01421604  0.58050734  0.01658648  1
  N  N354  1  0.98280881  0.92001575  0.03867301  1
  N  N355  1  0.75507288  0.57693260  0.96143260  1
  N  N356  1  0.93726862  0.74154918  0.95838333  1
  N  N357  1  0.95112836  0.74612766  0.53739842  1
  N  N358  1  0.54292064  0.06744704  0.95372033  1
  N  N359  1  0.93123246  0.40720195  0.55125459  1
  N  N360  1  0.06738392  0.05282239  0.59814609  1
  N  N361  1  0.04804399  0.38867231  0.59036163  1
  N  N362  1  0.05846742  0.73000644  0.58755042  1
  N  N363  1  0.56166657  0.05643948  0.59655842  1
  N  N364  1  0.52285231  0.39400724  0.56957539  1
  N  N365  1  0.54919133  0.72214117  0.58781851  1
  N  N366  1  0.44078614  0.27881738  0.09873566  1
  N  N367  1  0.45273335  0.60980293  0.09466191  1
  N  N368  1  0.43211569  0.94486376  0.10060280  1
  N  N369  1  0.94998710  0.27727019  0.08995197  1
  N  N370  1  0.97632554  0.60350787  0.06752761  1
  N  N371  1  0.94306550  0.94003696  0.08879086  1
  N  N372  1  0.43228266  0.05305205  0.90454970  1
  N  N373  1  0.42755469  0.38683288  0.89875045  1
  N  N374  1  0.43034686  0.72248233  0.90301434  1
  N  N375  1  0.93108670  0.05624241  0.89460931  1
  N  N376  1  0.92421186  0.38840357  0.89418474  1
  N  N377  1  0.92537257  0.72103892  0.89924911  1
  N  N378  1  0.05152823  0.27422108  0.41008379  1
  N  N379  1  0.05777159  0.61098570  0.41380025  1
  N  N380  1  0.05206206  0.93905436  0.40936919  1
  N  N381  1  0.55754398  0.27332297  0.40348256  1
  N  N382  1  0.57189083  0.61141826  0.39732278  1
  N  N383  1  0.55008265  0.94071733  0.41485717  1
  N  N384  1  0.32180132  0.22326499  0.60184925  1
  N  N385  1  0.32169356  0.55635745  0.60468178  1
  N  N386  1  0.32776056  0.88710707  0.60544401  1
  N  N387  1  0.81617013  0.21953211  0.60051394  1
  N  N388  1  0.80853843  0.56188301  0.58492547  1
  N  N389  1  0.82604469  0.88898260  0.59489223  1
  N  N390  1  0.18996682  0.11332533  0.10467101  1
  N  N391  1  0.19331262  0.44285125  0.09475704  1
  N  N392  1  0.19494960  0.77468070  0.09091676  1
  N  N393  1  0.69472768  0.10763549  0.09119955  1
  N  N394  1  0.69463074  0.44148080  0.09363903  1
  N  N395  1  0.69789973  0.77481414  0.09513054  1
  N  N396  1  0.17925489  0.22354968  0.90292785  1
  N  N397  1  0.14606322  0.55866587  0.91801714  1
  N  N398  1  0.19542935  0.89231719  0.91693209  1
  N  N399  1  0.67874775  0.22422758  0.89100051  1
  N  N400  1  0.67042395  0.55174341  0.89449563  1
  N  N401  1  0.68389966  0.88621287  0.88951075  1
  N  N402  1  0.31041877  0.11396546  0.40475667  1
  N  N403  1  0.35574571  0.44126163  0.41668115  1
  N  N404  1  0.32235487  0.77295648  0.40809425  1
  N  N405  1  0.80919390  0.10629658  0.41650958  1
  N  N406  1  0.82733231  0.44497780  0.39512444  1
  N  N407  1  0.82548282  0.77965109  0.39096753  1
  N  N408  1  0.42933928  0.27377640  0.40605102  1
  N  N409  1  0.44618174  0.60721436  0.41616250  1
  N  N410  1  0.42400829  0.94526136  0.40146062  1
  N  N411  1  0.92361141  0.27923180  0.39239089  1
  N  N412  1  0.93391896  0.61211700  0.39200686  1
  N  N413  1  0.92543761  0.94691564  0.39694267  1
  N  N414  1  0.05788027  0.05131688  0.91319020  1
  N  N415  1  0.05293997  0.39199803  0.90849896  1
  N  N416  1  0.05171509  0.73040260  0.91602483  1
  N  N417  1  0.56027897  0.05925577  0.89246194  1
  N  N418  1  0.55639219  0.39194645  0.91086462  1
  N  N419  1  0.56051404  0.72332710  0.90109473  1
  N  N420  1  0.07574713  0.28197001  0.10737813  1
  N  N421  1  0.10387319  0.60886898  0.08306360  1
  N  N422  1  0.06849042  0.94341281  0.10472030  1
  N  N423  1  0.56849151  0.27803993  0.09446767  1
  N  N424  1  0.58094456  0.61502121  0.10281302  1
  N  N425  1  0.55949018  0.93685810  0.08657724  1
  N  N426  1  0.43371510  0.05877296  0.59797751  1
  N  N427  1  0.39422600  0.39122213  0.58372335  1
  N  N428  1  0.42155470  0.72325235  0.60244484  1
  N  N429  1  0.93952329  0.05653381  0.59394951  1
  N  N430  1  0.92374376  0.38755186  0.60954236  1
  N  N431  1  0.93006345  0.72290125  0.59436274  1
  N  N432  1  0.18175644  0.10851350  0.40821117  1
  N  N433  1  0.22696024  0.43619241  0.42913271  1
  N  N434  1  0.19440372  0.77766060  0.40345516  1
  N  N435  1  0.68224827  0.11521373  0.39604382  1
  N  N436  1  0.69920938  0.43796613  0.40352265  1
  N  N437  1  0.70206839  0.77635951  0.41380931  1
  N  N438  1  0.30743870  0.22788363  0.91168281  1
  N  N439  1  0.27373115  0.56242281  0.93372400  1
  N  N440  1  0.32115353  0.88684848  0.89870061  1
  N  N441  1  0.80323207  0.22557519  0.91016095  1
  N  N442  1  0.79504154  0.55414166  0.91281794  1
  N  N443  1  0.80917717  0.89020873  0.90868233  1
  N  N444  1  0.31989697  0.11588291  0.09629136  1
  N  N445  1  0.32236716  0.44579796  0.10742378  1
  N  N446  1  0.32192758  0.77807664  0.10377214  1
  N  N447  1  0.82047830  0.11239644  0.10912620  1
  N  N448  1  0.82037888  0.44512543  0.10461913  1
  N  N449  1  0.82551003  0.77673591  0.10364755  1
  N  N450  1  0.19560631  0.22232640  0.59024782  1
  N  N451  1  0.19648616  0.55923127  0.58816051  1
  N  N452  1  0.19955593  0.88964232  0.58813529  1
  N  N453  1  0.68855631  0.22377924  0.59296971  1
  N  N454  1  0.68162182  0.55499883  0.60090666  1
  N  N455  1  0.69752867  0.89473789  0.58988288  1
  Cl  Cl456  1  0.25115516  0.06056760  0.61811626  1
  Cl  Cl457  1  0.21959484  0.38380751  0.62516749  1
  Cl  Cl458  1  0.23869385  0.71839912  0.62504929  1
  Cl  Cl459  1  0.75061165  0.05193191  0.61542675  1
  Cl  Cl460  1  0.70909851  0.39049215  0.59579341  1
  Cl  Cl461  1  0.73480560  0.72905384  0.59905320  1
  Cl  Cl462  1  0.25832035  0.28140971  0.12694981  1
  Cl  Cl463  1  0.27621694  0.60823219  0.12172487  1
  Cl  Cl464  1  0.25104474  0.94569669  0.12690325  1
  Cl  Cl465  1  0.76365481  0.27235948  0.10008111  1
  Cl  Cl466  1  0.79078519  0.60474495  0.09634845  1
  Cl  Cl467  1  0.75462186  0.93837065  0.11031876  1
  Cl  Cl468  1  0.24421732  0.06146827  0.88933409  1
  Cl  Cl469  1  0.23759888  0.38819375  0.89126363  1
  Cl  Cl470  1  0.23852944  0.71980967  0.89092157  1
  Cl  Cl471  1  0.74378481  0.05692515  0.88475470  1
  Cl  Cl472  1  0.73900708  0.38652742  0.86827294  1
  Cl  Cl473  1  0.74546541  0.71400929  0.87049146  1
  Cl  Cl474  1  0.23704833  0.27218151  0.39766692  1
  Cl  Cl475  1  0.24420195  0.60503924  0.40010138  1
  Cl  Cl476  1  0.23917213  0.94702402  0.38961668  1
  Cl  Cl477  1  0.73953967  0.28215747  0.36992749  1
  Cl  Cl478  1  0.75227587  0.61452649  0.37292805  1
  Cl  Cl479  1  0.73640337  0.94521262  0.38491789  1
  Cl  Cl480  1  0.01160995  0.22433173  0.61696875  1
  Cl  Cl481  1  0.00999809  0.56314606  0.60138833  1
  Cl  Cl482  1  0.00939370  0.88711550  0.62172808  1
  Cl  Cl483  1  0.50470331  0.21916667  0.61886264  1
  Cl  Cl484  1  0.50198404  0.54517688  0.63226114  1
  Cl  Cl485  1  0.51602085  0.88531428  0.60719916  1
  Cl  Cl486  1  0.00721765  0.10272526  0.11584756  1
  Cl  Cl487  1  0.00608933  0.45203597  0.12860223  1
  Cl  Cl488  1  0.00888108  0.77526219  0.11104195  1
  Cl  Cl489  1  0.50827245  0.10656933  0.10297063  1
  Cl  Cl490  1  0.50919872  0.44601668  0.10605545  1
  Cl  Cl491  1  0.51071848  0.77698260  0.12102777  1
  Cl  Cl492  1  -0.01147338  0.22444763  0.88964668  1
  Cl  Cl493  1  -0.02944638  0.56351366  0.88043876  1
  Cl  Cl494  1  -0.00306371  0.88961043  0.89958177  1
  Cl  Cl495  1  0.49155191  0.21870282  0.88376395  1
  Cl  Cl496  1  0.46224884  0.55747759  0.89876511  1
  Cl  Cl497  1  0.50073375  0.88947368  0.87571787  1
  Cl  Cl498  1  -0.00208157  0.10563069  0.38418876  1
  Cl  Cl499  1  0.04217731  0.43842923  0.40579270  1
  Cl  Cl500  1  0.01043853  0.77987121  0.38056119  1
  Cl  Cl501  1  0.49149686  0.10910174  0.37233123  1
  Cl  Cl502  1  0.52623266  0.45511057  0.37274042  1
  Cl  Cl503  1  0.51718809  0.77472979  0.39953363  1
  Cl  Cl504  1  0.36082787  0.14769069  0.75015933  1
  Cl  Cl505  1  0.35167045  0.48461728  0.74682763  1
  Cl  Cl506  1  0.36310693  0.81186814  0.75043114  1
  Cl  Cl507  1  0.85952401  0.14780429  0.74501987  1
  Cl  Cl508  1  0.86340212  0.47536606  0.73793395  1
  Cl  Cl509  1  0.86049866  0.81192420  0.74253880  1
  Cl  Cl510  1  0.13783963  0.18750903  0.24521508  1
  Cl  Cl511  1  0.14442372  0.51608702  0.25656439  1
  Cl  Cl512  1  0.14779890  0.84669474  0.25385689  1
  Cl  Cl513  1  0.64242910  0.18221569  0.25360082  1
  Cl  Cl514  1  0.64507453  0.52073534  0.24197238  1
  Cl  Cl515  1  0.64091734  0.84972543  0.24853501  1
  Cl  Cl516  1  0.14205142  0.15051267  0.75369267  1
  Cl  Cl517  1  0.13294363  0.48564187  0.76232402  1
  Cl  Cl518  1  0.14216417  0.82067426  0.75519876  1
  Cl  Cl519  1  0.63573148  0.14930185  0.75701714  1
  Cl  Cl520  1  0.64248130  0.48690019  0.75188313  1
  Cl  Cl521  1  0.63947554  0.81791587  0.75066924  1
  Cl  Cl522  1  0.35783270  0.18665661  0.25865470  1
  Cl  Cl523  1  0.36002666  0.51841490  0.25866771  1
  Cl  Cl524  1  0.37051805  0.85359169  0.25013295  1
  Cl  Cl525  1  0.86551553  0.18578715  0.24627310  1
  Cl  Cl526  1  0.86784203  0.52235746  0.25911945  1
  Cl  Cl527  1  0.86364507  0.85551835  0.25610941  1
  Cl  Cl528  1  0.10501335  0.31726688  0.75866167  1
  Cl  Cl529  1  0.09955319  0.65251760  0.75381236  1
  Cl  Cl530  1  0.10576238  0.98398310  0.74876688  1
  Cl  Cl531  1  0.60046679  0.31983735  0.74855088  1
  Cl  Cl532  1  0.60630578  0.64640764  0.74890814  1
  Cl  Cl533  1  0.61071473  0.98088725  0.75311469  1
  Cl  Cl534  1  0.38282499  0.02235546  0.24037117  1
  Cl  Cl535  1  0.39114799  0.35513382  0.25170512  1
  Cl  Cl536  1  0.39257515  0.68271662  0.25245788  1
  Cl  Cl537  1  0.88812499  0.01925219  0.24792525  1
  Cl  Cl538  1  0.88320881  0.35782966  0.25822554  1
  Cl  Cl539  1  0.88778536  0.69016356  0.25716455  1
  Cl  Cl540  1  0.38210509  0.31659953  0.74006453  1
  Cl  Cl541  1  0.38943844  0.64823347  0.74614604  1
  Cl  Cl542  1  0.38910813  0.97998058  0.74337998  1
  Cl  Cl543  1  0.87976737  0.31163888  0.74143665  1
  Cl  Cl544  1  0.87930527  0.64616241  0.73575120  1
  Cl  Cl545  1  0.88506595  0.98093193  0.75904806  1
  Cl  Cl546  1  0.11317760  0.01657304  0.24727521  1
  Cl  Cl547  1  0.10594332  0.34894991  0.24831453  1
  Cl  Cl548  1  0.10675107  0.67891756  0.23808171  1
  Cl  Cl549  1  0.60153553  0.01574121  0.25067530  1
  Cl  Cl550  1  0.60959816  0.35111726  0.24701673  1
  Cl  Cl551  1  0.61421902  0.68317179  0.25051375  1
