# generated using pymatgen
data_H8PbC4(N3Cl2)2
_symmetry_space_group_name_H-M   'P 1'
_cell_length_a   16.62172546
_cell_length_b   22.50701266
_cell_length_c   21.59079988
_cell_angle_alpha   90.00060420
_cell_angle_beta   90.00290359
_cell_angle_gamma   89.99475942
_symmetry_Int_Tables_number   1
_chemical_formula_structural   H8PbC4(N3Cl2)2
_chemical_formula_sum   'H192 Pb24 C96 N144 Cl96'
_cell_volume   8077.23446666
_cell_formula_units_Z   24
loop_
 _symmetry_equiv_pos_site_id
 _symmetry_equiv_pos_as_xyz
  1  'x, y, z'
loop_
 _atom_site_type_symbol
 _atom_site_label
 _atom_site_symmetry_multiplicity
 _atom_site_fract_x
 _atom_site_fract_y
 _atom_site_fract_z
 _atom_site_occupancy
  H  H0  1  0.00449253  0.02818920  0.67973568  1
  H  H1  1  -0.00881012  0.36355707  0.68168337  1
  H  H2  1  -0.00115065  0.69704507  0.68196938  1
  H  H3  1  0.49918242  0.03243543  0.67930179  1
  H  H4  1  0.50310448  0.36375346  0.67949593  1
  H  H5  1  0.49542348  0.69717329  0.68289989  1
  H  H6  1  0.00331458  0.30386251  0.17763025  1
  H  H7  1  -0.00875939  0.63514122  0.17691988  1
  H  H8  1  0.00880511  0.97007268  0.17672781  1
  H  H9  1  0.49600196  0.29904166  0.17770750  1
  H  H10  1  0.50531874  0.63610714  0.18111632  1
  H  H11  1  0.49189372  0.96827860  0.17907767  1
  H  H12  1  0.00662787  0.03013110  0.81999966  1
  H  H13  1  -0.00784959  0.35989864  0.82121569  1
  H  H14  1  -0.00088875  0.69812480  0.82178267  1
  H  H15  1  0.49866810  0.03133074  0.81835642  1
  H  H16  1  0.50703721  0.36522362  0.81888878  1
  H  H17  1  0.49925257  0.69789160  0.82192831  1
  H  H18  1  -0.01025901  0.30013280  0.32097440  1
  H  H19  1  -0.00203901  0.63773099  0.32160760  1
  H  H20  1  -0.00282892  0.96997824  0.31798369  1
  H  H21  1  0.50892730  0.30210637  0.32067910  1
  H  H22  1  0.49669741  0.63801544  0.31966733  1
  H  H23  1  0.49332209  0.96855011  0.32318574  1
  H  H24  1  0.25185894  0.19927816  0.67853643  1
  H  H25  1  0.25369517  0.53126572  0.68006598  1
  H  H26  1  0.25081551  0.86494055  0.68298809  1
  H  H27  1  0.75060990  0.19706874  0.67848932  1
  H  H28  1  0.75702963  0.53056743  0.67967687  1
  H  H29  1  0.75433061  0.86622908  0.67816247  1
  H  H30  1  0.24201132  0.13690834  0.17848792  1
  H  H31  1  0.24729375  0.46895015  0.18056221  1
  H  H32  1  0.23953514  0.80290354  0.17835664  1
  H  H33  1  0.75493817  0.13766203  0.17993673  1
  H  H34  1  0.74724571  0.46846378  0.17885514  1
  H  H35  1  0.75994291  0.80034668  0.17867340  1
  H  H36  1  0.24154734  0.19616143  0.82002466  1
  H  H37  1  0.24615119  0.53011184  0.82179256  1
  H  H38  1  0.25120018  0.86511482  0.82008928  1
  H  H39  1  0.75874410  0.19794348  0.82365087  1
  H  H40  1  0.75867811  0.53092289  0.81714499  1
  H  H41  1  0.74844965  0.86628797  0.82135928  1
  H  H42  1  0.25645808  0.13706057  0.32116580  1
  H  H43  1  0.24413643  0.46936621  0.32007469  1
  H  H44  1  0.24428944  0.80239592  0.31671714  1
  H  H45  1  0.74316724  0.13504393  0.32192497  1
  H  H46  1  0.76307833  0.46691621  0.31877231  1
  H  H47  1  0.74570416  0.80247822  0.31767355  1
  H  H48  1  0.12987326  0.05469387  0.61142744  1
  H  H49  1  0.12466146  0.38439524  0.62092919  1
  H  H50  1  0.12321757  0.71972231  0.60987298  1
  H  H51  1  0.63271842  0.05195416  0.61773919  1
  H  H52  1  0.62048387  0.38664143  0.60524587  1
  H  H53  1  0.62367787  0.71968574  0.61423892  1
  H  H54  1  0.38072406  0.27942613  0.09831250  1
  H  H55  1  0.37797597  0.61305454  0.11254221  1
  H  H56  1  0.37965818  0.94214764  0.09971508  1
  H  H57  1  0.87534259  0.28072490  0.11051681  1
  H  H58  1  0.88720390  0.60531669  0.09265760  1
  H  H59  1  0.87364073  0.94905543  0.11900797  1
  H  H60  1  0.37206551  0.05250973  0.88566650  1
  H  H61  1  0.37029137  0.38375630  0.87452280  1
  H  H62  1  0.38066344  0.72337233  0.89617647  1
  H  H63  1  0.87424479  0.05318022  0.88493807  1
  H  H64  1  0.87331345  0.38800270  0.89742612  1
  H  H65  1  0.88206181  0.72410952  0.89843918  1
  H  H66  1  0.13107241  0.28239527  0.37402465  1
  H  H67  1  0.13094209  0.61218279  0.38156724  1
  H  H68  1  0.12675896  0.94642900  0.38531674  1
  H  H69  1  0.62517644  0.27697813  0.39981753  1
  H  H70  1  0.63164529  0.61534251  0.37765728  1
  H  H71  1  0.63252951  0.95303364  0.37982908  1
  H  H72  1  0.36827980  0.22309142  0.60365909  1
  H  H73  1  0.36537412  0.55722322  0.59814148  1
  H  H74  1  0.36744687  0.88877537  0.60735199  1
  H  H75  1  0.86690284  0.22251166  0.60109352  1
  H  H76  1  0.86543536  0.55903164  0.59723637  1
  H  H77  1  0.86451008  0.89062679  0.59569316  1
  H  H78  1  0.12781466  0.11062532  0.10026324  1
  H  H79  1  0.13044193  0.44515011  0.10638744  1
  H  H80  1  0.12333346  0.77783873  0.09907159  1
  H  H81  1  0.63032957  0.11353560  0.10953716  1
  H  H82  1  0.63261232  0.44253134  0.10008966  1
  H  H83  1  0.61750833  0.78470879  0.12916929  1
  H  H84  1  0.12302323  0.22199645  0.89715238  1
  H  H85  1  0.11856299  0.55570905  0.88969103  1
  H  H86  1  0.11924274  0.88375743  0.88388957  1
  H  H87  1  0.62136637  0.21771127  0.87908494  1
  H  H88  1  0.62200098  0.55174054  0.87662407  1
  H  H89  1  0.62775356  0.88978414  0.89593335  1
  H  H90  1  0.36762347  0.11020122  0.40226248  1
  H  H91  1  0.37850473  0.44703339  0.38120200  1
  H  H92  1  0.37344561  0.78086032  0.38490907  1
  H  H93  1  0.86931427  0.11332224  0.38820894  1
  H  H94  1  0.86814267  0.44375191  0.40261466  1
  H  H95  1  0.87694739  0.78151596  0.38132190  1
  H  H96  1  0.37728596  0.28173760  0.38375338  1
  H  H97  1  0.38415933  0.60821455  0.39925078  1
  H  H98  1  0.38714966  0.93955560  0.40604206  1
  H  H99  1  0.88554018  0.27358948  0.40582617  1
  H  H100  1  0.88310362  0.61068510  0.39988685  1
  H  H101  1  0.87877001  0.94479518  0.39512255  1
  H  H102  1  0.12217359  0.05461740  0.89887669  1
  H  H103  1  0.12155965  0.38546807  0.88734170  1
  H  H104  1  0.13077314  0.72026439  0.88483173  1
  H  H105  1  0.62171702  0.05464471  0.88903964  1
  H  H106  1  0.61715183  0.38963544  0.89956446  1
  H  H107  1  0.62982220  0.72086199  0.88712136  1
  H  H108  1  0.12426586  0.27797611  0.10482387  1
  H  H109  1  0.13179881  0.61796532  0.12496475  1
  H  H110  1  0.11988749  0.94237446  0.09540478  1
  H  H111  1  0.62836215  0.27899819  0.11496371  1
  H  H112  1  0.62747755  0.61131667  0.11005091  1
  H  H113  1  0.62654968  0.95047333  0.11824910  1
  H  H114  1  0.38407061  0.05701435  0.60347929  1
  H  H115  1  0.37180030  0.38421717  0.61599287  1
  H  H116  1  0.37459571  0.72181713  0.60970783  1
  H  H117  1  0.88106738  0.05379898  0.60820602  1
  H  H118  1  0.87574443  0.38994930  0.60368615  1
  H  H119  1  0.87414695  0.72080561  0.61228177  1
  H  H120  1  0.11982347  0.11621563  0.37839230  1
  H  H121  1  0.13195759  0.44456804  0.40134659  1
  H  H122  1  0.12440203  0.77754471  0.39008330  1
  H  H123  1  0.62003534  0.11352950  0.39410849  1
  H  H124  1  0.62265137  0.45083273  0.37125336  1
  H  H125  1  0.62776449  0.78008778  0.39186276  1
  H  H126  1  0.37121832  0.21979386  0.88683272  1
  H  H127  1  0.36660437  0.55574967  0.89593126  1
  H  H128  1  0.36819511  0.88743732  0.89479876  1
  H  H129  1  0.86693366  0.22578562  0.90671707  1
  H  H130  1  0.86891088  0.55700066  0.89831649  1
  H  H131  1  0.87608454  0.88581902  0.89071019  1
  H  H132  1  0.37573424  0.11506251  0.11704930  1
  H  H133  1  0.37935336  0.44857559  0.11744453  1
  H  H134  1  0.37110665  0.78116456  0.11612024  1
  H  H135  1  0.87899673  0.11373599  0.10765509  1
  H  H136  1  0.88084271  0.44675456  0.11868444  1
  H  H137  1  0.86198540  0.77531890  0.09323657  1
  H  H138  1  0.11953099  0.21896620  0.61626254  1
  H  H139  1  0.11889159  0.55215113  0.61923403  1
  H  H140  1  0.11852573  0.88537474  0.62111129  1
  H  H141  1  0.61785625  0.21791792  0.61525587  1
  H  H142  1  0.61862114  0.54922789  0.62312797  1
  H  H143  1  0.61766386  0.88658124  0.62015069  1
  H  H144  1  0.91979153  0.75273723  0.50403153  1
  H  H145  1  0.42217864  0.58239115  0.00806211  1
  H  H146  1  0.59427193  0.90954559  0.01771812  1
  H  H147  1  0.59698399  0.25618734  0.00538714  1
  H  H148  1  0.57013155  0.41485408  0.49606999  1
  H  H149  1  0.68116561  0.75076064  0.50129834  1
  H  H150  1  0.43371686  0.75270931  1.00411493  1
  H  H151  1  0.79200672  0.58456222  0.49591274  1
  H  H152  1  0.69860616  0.41554202  -0.00270133  1
  H  H153  1  0.17919960  0.75047466  0.49868007  1
  H  H154  1  0.94877665  0.58423567  0.50290020  1
  H  H155  1  0.31058353  0.91231987  0.49692513  1
  H  H156  1  0.38814733  0.41262350  0.98851835  1
  H  H157  1  0.83327903  0.91420379  0.99597941  1
  H  H158  1  0.55158845  0.41532303  1.00650850  1
  H  H159  1  0.93855314  0.41593763  0.50064350  1
  H  H160  1  0.34893447  0.41785535  0.48833813  1
  H  H161  1  0.44447033  0.24174931  0.00160760  1
  H  H162  1  0.79579573  0.41585592  0.50826792  1
  H  H163  1  0.44342837  0.08580643  0.49378879  1
  H  H164  1  0.94465317  0.75230261  1.00193322  1
  H  H165  1  0.09367526  0.41586259  0.50930750  1
  H  H166  1  0.82752138  0.08701724  0.00401957  1
  H  H167  1  0.44825278  0.93047109  -0.00352047  1
  H  H168  1  0.31193975  0.91462306  1.00567646  1
  H  H169  1  0.45055049  0.58549036  0.50181178  1
  H  H170  1  0.41149354  0.08179116  0.99654417  1
  H  H171  1  0.15974278  0.58155902  0.99600179  1
  H  H172  1  0.59717055  0.75042689  0.99474106  1
  H  H173  1  0.57995018  0.58315268  0.00044802  1
  H  H174  1  0.11658338  0.25332880  0.48464183  1
  H  H175  1  0.29410147  0.58115954  0.49660118  1
  H  H176  1  0.46313341  0.92496253  0.50801639  1
  H  H177  1  0.29925784  0.08911170  0.50487487  1
  H  H178  1  0.78678542  0.74988042  -0.01118828  1
  H  H179  1  0.80037421  0.58369272  1.00348698  1
  H  H180  1  0.57615180  0.08247914  0.99889660  1
  H  H181  1  0.42796548  0.75139258  0.50218697  1
  H  H182  1  0.14940653  0.91308338  0.50856431  1
  H  H183  1  0.95999224  0.24481747  0.50886681  1
  H  H184  1  0.80331034  0.24836481  0.49706406  1
  H  H185  1  0.18491522  0.41358835  -0.00239182  1
  H  H186  1  0.61151343  0.91911828  0.48787413  1
  H  H187  1  0.60563127  0.58332529  0.48994740  1
  H  H188  1  0.31433167  0.25309212  0.49509791  1
  H  H189  1  0.82809664  0.08065301  0.50004272  1
  H  H190  1  0.96306258  0.58033429  -0.00680788  1
  H  H191  1  0.14372723  0.08479553  0.49120890  1
  Pb  Pb192  1  0.24448179  0.04755065  0.74467489  1
  Pb  Pb193  1  0.24605734  0.37886658  0.74903146  1
  Pb  Pb194  1  0.25035742  0.71356231  0.74832922  1
  Pb  Pb195  1  0.75220253  0.04709147  0.75247391  1
  Pb  Pb196  1  0.74761930  0.37941665  0.75388756  1
  Pb  Pb197  1  0.74620666  0.71338724  0.75062758  1
  Pb  Pb198  1  0.25315963  0.28684197  0.24432591  1
  Pb  Pb199  1  0.25297385  0.62079484  0.25505400  1
  Pb  Pb200  1  0.24850609  0.95268923  0.24922670  1
  Pb  Pb201  1  0.74955806  0.28427072  0.25939993  1
  Pb  Pb202  1  0.75780652  0.61790191  0.24833569  1
  Pb  Pb203  1  0.75261025  0.95363412  0.24799294  1
  Pb  Pb204  1  -0.00393239  0.21235407  0.75076541  1
  Pb  Pb205  1  -0.00413697  0.54824259  0.74963089  1
  Pb  Pb206  1  -0.00403618  0.87754347  0.74635744  1
  Pb  Pb207  1  0.49721072  0.21259506  0.75425829  1
  Pb  Pb208  1  0.49496706  0.54555751  0.74922266  1
  Pb  Pb209  1  0.49731052  0.88347366  0.75232101  1
  Pb  Pb210  1  0.00079366  0.12196606  0.24631934  1
  Pb  Pb211  1  0.00438570  0.45057743  0.25971451  1
  Pb  Pb212  1  0.00117025  0.78721070  0.23976361  1
  Pb  Pb213  1  0.49752152  0.11801183  0.25155020  1
  Pb  Pb214  1  0.50246580  0.45307919  0.24487255  1
  Pb  Pb215  1  0.50042997  0.78646875  0.25249221  1
  C  C216  1  0.00497349  0.04510891  0.63296240  1
  C  C217  1  -0.00303787  0.37908818  0.63415708  1
  C  C218  1  -0.00115076  0.71254491  0.63444513  1
  C  C219  1  0.50513279  0.04685060  0.63167502  1
  C  C220  1  0.49878667  0.37849694  0.63182480  1
  C  C221  1  0.49812933  0.71323316  0.63555296  1
  C  C222  1  0.00084144  0.28764646  0.13061510  1
  C  C223  1  0.00322185  0.62056012  0.12987918  1
  C  C224  1  0.00096201  0.95405690  0.12994293  1
  C  C225  1  0.50172527  0.28519080  0.12956300  1
  C  C226  1  0.50323708  0.62020465  0.13359688  1
  C  C227  1  0.49954103  0.95380606  0.13130430  1
  C  C228  1  0.00095589  0.04558242  0.86742164  1
  C  C229  1  -0.00455927  0.37708785  0.86806991  1
  C  C230  1  0.00362938  0.71335162  0.86912008  1
  C  C231  1  0.49748322  0.04645609  0.86614184  1
  C  C232  1  0.49763282  0.37970196  0.86631880  1
  C  C233  1  0.50391938  0.71398845  0.86932989  1
  C  C234  1  0.00297080  0.28610946  0.36821338  1
  C  C235  1  0.00383339  0.62167706  0.36863228  1
  C  C236  1  0.00101499  0.95441973  0.36546862  1
  C  C237  1  0.50419740  0.28719871  0.36811823  1
  C  C238  1  0.50396355  0.62203348  0.36689040  1
  C  C239  1  0.50454873  0.95403923  0.37057234  1
  C  C240  1  0.24689883  0.21385245  0.63079886  1
  C  C241  1  0.24609940  0.54582749  0.63256331  1
  C  C242  1  0.24527606  0.87962261  0.63524828  1
  C  C243  1  0.74541290  0.21172644  0.63094356  1
  C  C244  1  0.74729228  0.54530673  0.63242822  1
  C  C245  1  0.74547555  0.88041462  0.63076541  1
  C  C246  1  0.24888174  0.12085845  0.13164114  1
  C  C247  1  0.25200081  0.45407862  0.13299308  1
  C  C248  1  0.24425174  0.78747330  0.13109946  1
  C  C249  1  0.75512972  0.12170880  0.13257760  1
  C  C250  1  0.75327506  0.45328420  0.13152662  1
  C  C251  1  0.74639750  0.78680475  0.13162244  1
  C  C252  1  0.24522398  0.21170905  0.86750431  1
  C  C253  1  0.24333444  0.54640537  0.86903258  1
  C  C254  1  0.24648583  0.87917962  0.86786037  1
  C  C255  1  0.74905256  0.21334128  0.87051225  1
  C  C256  1  0.74946910  0.54581033  0.86444834  1
  C  C257  1  0.75088317  0.88112627  0.86914974  1
  C  C258  1  0.24814152  0.12174073  0.36859336  1
  C  C259  1  0.25186211  0.45347241  0.36712353  1
  C  C260  1  0.24770855  0.78687086  0.36422874  1
  C  C261  1  0.74472646  0.12025654  0.36961396  1
  C  C262  1  0.75127584  0.45365205  0.36618162  1
  C  C263  1  0.74974655  0.78800369  0.36540470  1
  C  C264  1  0.70538668  0.09320131  0.46326753  1
  C  C265  1  0.03361977  0.25640010  0.03829556  1
  C  C266  1  0.04469034  0.07464146  0.54097730  1
  C  C267  1  0.96091024  0.74109288  0.54231594  1
  C  C268  1  0.55869871  0.07176880  0.54168194  1
  C  C269  1  0.45378196  0.07184751  0.95943013  1
  C  C270  1  0.27619609  0.24140966  0.53462280  1
  C  C271  1  0.21585183  0.76063988  0.45832777  1
  C  C272  1  0.78708091  0.09228360  0.46275867  1
  C  C273  1  0.06831869  0.59385470  0.04481378  1
  C  C274  1  0.47734893  0.07399344  0.53515035  1
  C  C275  1  0.55980849  0.59288810  0.45423573  1
  C  C276  1  0.75834370  0.76086410  0.03290095  1
  C  C277  1  0.52992523  0.40459536  0.53551751  1
  C  C278  1  0.69210572  0.90418694  0.54170697  1
  C  C279  1  0.76974906  0.57251309  0.96038695  1
  C  C280  1  0.69245222  0.24200471  0.95709118  1
  C  C281  1  0.22339369  0.08915097  0.03795368  1
  C  C282  1  0.04991752  0.40637181  0.54535079  1
  C  C283  1  0.27601328  0.90371366  0.53871252  1
  C  C284  1  0.19474097  0.23914699  0.54028305  1
  C  C285  1  0.94726735  0.92579221  0.04200129  1
  C  C286  1  0.71824138  0.76145718  0.46137151  1
  C  C287  1  0.47103252  0.74222845  0.96370944  1
  C  C288  1  0.30337317  0.42791662  0.04278929  1
  C  C289  1  0.29275391  0.75918947  0.04144357  1
  C  C290  1  0.80808304  0.42398312  0.04279663  1
  C  C291  1  0.54171748  0.59351496  0.03987467  1
  C  C292  1  0.22209331  0.42577485  0.03703960  1
  C  C293  1  0.19583156  0.90361241  0.95850165  1
  C  C294  1  0.44801011  0.40349915  0.54059310  1
  C  C295  1  0.76683166  0.42727362  0.46460214  1
  C  C296  1  0.05830719  0.59092177  0.45716393  1
  C  C297  1  0.98733328  0.25769327  0.46498675  1
  C  C298  1  0.79953966  0.76269030  0.45622907  1
  C  C299  1  0.27697015  0.90471929  0.96436660  1
  C  C300  1  0.43836266  0.40353652  0.95502342  1
  C  C301  1  0.53603477  0.07237730  0.96054783  1
  C  C302  1  0.67863177  0.76450179  0.04669331  1
  C  C303  1  0.68644664  0.57089951  0.54522279  1
  C  C304  1  0.19407482  0.90345310  0.54401301  1
  C  C305  1  0.46530315  0.74061988  0.54200721  1
  C  C306  1  0.51973186  0.40533149  0.96380026  1
  C  C307  1  0.45590699  0.26127817  0.45863810  1
  C  C308  1  0.68664791  0.43016730  0.45213620  1
  C  C309  1  0.05545428  0.74184991  0.95923529  1
  C  C310  1  0.19075015  0.09395341  0.45590010  1
  C  C311  1  0.69300410  0.23870040  0.54055293  1
  N  N312  1  0.04065290  0.40809113  0.95841504  1
  N  N313  1  0.21561758  0.75778413  0.03502519  1
  N  N314  1  0.79186472  0.90380796  0.96085688  1
  N  N315  1  0.55220565  0.25751909  0.04144351  1
  N  N316  1  0.26665619  0.57249849  0.53840911  1
  N  N317  1  0.76440679  0.57412411  0.53722853  1
  N  N318  1  0.29066796  0.23998779  0.95877658  1
  N  N319  1  0.97058161  0.40880013  0.54053348  1
  N  N320  1  0.22408517  0.42689084  0.46314902  1
  N  N321  1  0.76895535  0.90629403  0.53283908  1
  N  N322  1  0.46207464  0.59540669  0.04151655  1
  N  N323  1  0.96687809  0.07513903  0.53881236  1
  N  N324  1  0.47429953  0.26827121  0.03279977  1
  N  N325  1  0.06533770  0.26124277  0.45331289  1
  N  N326  1  0.28058836  0.57306528  0.96304140  1
  N  N327  1  0.18906657  0.57056520  0.54389239  1
  N  N328  1  0.97684825  0.74202129  0.96291247  1
  N  N329  1  0.04601575  0.92658654  0.45696094  1
  N  N330  1  0.56380476  0.93459417  0.45743018  1
  N  N331  1  0.29531919  0.76146929  0.45673290  1
  N  N332  1  0.55067764  0.74084350  0.95972310  1
  N  N333  1  0.30217318  0.42749679  0.45520343  1
  N  N334  1  0.02899939  0.07426649  0.96249504  1
  N  N335  1  0.20215977  0.57302341  0.95957389  1
  N  N336  1  0.97974876  0.59179251  0.46256365  1
  N  N337  1  0.02430108  0.92327955  0.03336183  1
  N  N338  1  0.99038526  0.58964956  0.03487042  1
  N  N339  1  0.27002218  0.09185482  0.46297085  1
  N  N340  1  0.95264011  0.07392731  0.95770676  1
  N  N341  1  0.76910152  0.24463657  0.96746094  1
  N  N342  1  0.72942632  0.42371242  0.03757412  1
  N  N343  1  0.53301173  0.25965263  0.46484238  1
  N  N344  1  0.54478300  0.74003864  0.54317692  1
  N  N345  1  0.48690555  0.92137847  0.46404481  1
  N  N346  1  0.96997811  0.92567088  0.46005716  1
  N  N347  1  0.71181335  0.09384917  0.04026221  1
  N  N348  1  0.48068101  0.59005068  0.46043107  1
  N  N349  1  0.30079175  0.09051518  0.04195878  1
  N  N350  1  0.95618898  0.25731469  0.03879289  1
  N  N351  1  0.96433373  0.40914044  0.96147305  1
  N  N352  1  0.69104485  0.57071801  0.95332472  1
  N  N353  1  0.21442745  0.24089890  0.96192665  1
  N  N354  1  0.71318512  0.90529295  0.96388142  1
  N  N355  1  0.77161107  0.23991169  0.53689692  1
  N  N356  1  0.04031118  0.74029679  0.54078569  1
  N  N357  1  0.55331383  0.93456897  0.04205100  1
  N  N358  1  0.79027739  0.09344151  0.04140106  1
  N  N359  1  0.47459848  0.92141957  0.03843875  1
  N  N360  1  0.07020998  0.05715069  0.59814313  1
  N  N361  1  0.06654477  0.38895402  0.60372706  1
  N  N362  1  0.06215008  0.72255521  0.59871716  1
  N  N363  1  0.57474405  0.05573473  0.60009522  1
  N  N364  1  0.56001488  0.38908884  0.59369133  1
  N  N365  1  0.56321267  0.72329971  0.60177111  1
  N  N366  1  0.44223569  0.27454128  0.09031957  1
  N  N367  1  0.43853082  0.61079356  0.09954481  1
  N  N368  1  0.44136066  0.94505666  0.09039498  1
  N  N369  1  0.93555855  0.27694800  0.09750126  1
  N  N370  1  0.94933069  0.60838239  0.08681096  1
  N  N371  1  0.93079155  0.94387695  0.10091263  1
  N  N372  1  0.43141230  0.05579571  0.90043072  1
  N  N373  1  0.42668965  0.38781342  0.89426554  1
  N  N374  1  0.44178501  0.72597626  0.90751615  1
  N  N375  1  0.93412329  0.05629752  0.89864579  1
  N  N376  1  0.93484701  0.38996257  0.90562318  1
  N  N377  1  0.94355955  0.72340605  0.90789671  1
  N  N378  1  0.07437547  0.27913640  0.39399436  1
  N  N379  1  0.07350420  0.60897354  0.39897447  1
  N  N380  1  0.06692315  0.94447342  0.39839313  1
  N  N381  1  0.56350565  0.27617697  0.40721623  1
  N  N382  1  0.57432011  0.61126067  0.39576368  1
  N  N383  1  0.57520514  0.94568164  0.39732242  1
  N  N384  1  0.30740788  0.22522896  0.59232148  1
  N  N385  1  0.30314762  0.55583511  0.59120307  1
  N  N386  1  0.30647515  0.88910142  0.59598631  1
  N  N387  1  0.80522008  0.22192220  0.59193988  1
  N  N388  1  0.80310344  0.55653649  0.59052869  1
  N  N389  1  0.80215089  0.89105353  0.58946825  1
  N  N390  1  0.18915821  0.10744422  0.09159686  1
  N  N391  1  0.19117940  0.44239572  0.09476520  1
  N  N392  1  0.18506003  0.77585770  0.09203931  1
  N  N393  1  0.69085480  0.11021395  0.09774796  1
  N  N394  1  0.69444141  0.44331324  0.09161582  1
  N  N395  1  0.67217821  0.77984382  0.10668932  1
  N  N396  1  0.18476160  0.22302684  0.90573746  1
  N  N397  1  0.17852315  0.55626811  0.90284949  1
  N  N398  1  0.17780800  0.88837982  0.90032615  1
  N  N399  1  0.67784415  0.22303843  0.89808339  1
  N  N400  1  0.68022465  0.55436211  0.89329572  1
  N  N401  1  0.68867521  0.89094401  0.90658298  1
  N  N402  1  0.30527228  0.11213699  0.41010510  1
  N  N403  1  0.31962085  0.44311380  0.39699183  1
  N  N404  1  0.31314089  0.77756113  0.39781694  1
  N  N405  1  0.81023104  0.10934604  0.40344000  1
  N  N406  1  0.80625099  0.44230017  0.40965505  1
  N  N407  1  0.81825233  0.77844576  0.39814147  1
  N  N408  1  0.43578603  0.27770252  0.40011407  1
  N  N409  1  0.44623600  0.61128317  0.40756944  1
  N  N410  1  0.44917505  0.94340730  0.41343213  1
  N  N411  1  0.94795870  0.27346657  0.41236257  1
  N  N412  1  0.94500618  0.61234564  0.40863645  1
  N  N413  1  0.94048761  0.94290711  0.40358854  1
  N  N414  1  0.06026797  0.05664679  0.90684523  1
  N  N415  1  0.06124261  0.38846841  0.90053145  1
  N  N416  1  0.07249524  0.72430269  0.90119157  1
  N  N417  1  0.56166050  0.05677491  0.90216012  1
  N  N418  1  0.55544659  0.39060569  0.90815995  1
  N  N419  1  0.57023202  0.72316065  0.90160137  1
  N  N420  1  0.06395875  0.27479833  0.09353113  1
  N  N421  1  0.07638149  0.61208964  0.10393945  1
  N  N422  1  0.05787919  0.94155257  0.08929998  1
  N  N423  1  0.56946448  0.27718991  0.09841676  1
  N  N424  1  0.56754194  0.60937301  0.09699462  1
  N  N425  1  0.56832625  0.94288175  0.10278782  1
  N  N426  1  0.44497385  0.05811870  0.59236387  1
  N  N427  1  0.43035832  0.38793452  0.59927274  1
  N  N428  1  0.43529244  0.72462913  0.59841647  1
  N  N429  1  0.94228650  0.05609230  0.59738695  1
  N  N430  1  0.93784164  0.39014598  0.59478269  1
  N  N431  1  0.93419231  0.72416159  0.59946015  1
  N  N432  1  0.17736224  0.11088496  0.39674850  1
  N  N433  1  0.19364416  0.44265942  0.40805909  1
  N  N434  1  0.18524075  0.77571572  0.40182591  1
  N  N435  1  0.68004339  0.10990426  0.40695391  1
  N  N436  1  0.67800146  0.44581318  0.39275557  1
  N  N437  1  0.68826944  0.77726980  0.40347404  1
  N  N438  1  0.31113217  0.22214312  0.90009864  1
  N  N439  1  0.30540633  0.55714840  0.90643897  1
  N  N440  1  0.30771107  0.88940609  0.90648889  1
  N  N441  1  0.80454064  0.22625888  0.91207633  1
  N  N442  1  0.80702975  0.55740932  0.90624652  1
  N  N443  1  0.81565752  0.89037153  0.90324464  1
  N  N444  1  0.31678260  0.11044885  0.10188034  1
  N  N445  1  0.32106440  0.44489017  0.10084545  1
  N  N446  1  0.31272939  0.77685633  0.09958586  1
  N  N447  1  0.81799374  0.11172157  0.09665317  1
  N  N448  1  0.82312220  0.44186563  0.10101556  1
  N  N449  1  0.79971510  0.77503483  0.08723592  1
  N  N450  1  0.17751776  0.22276937  0.59887830  1
  N  N451  1  0.17684612  0.55505047  0.60315212  1
  N  N452  1  0.17662905  0.88864840  0.60415952  1
  N  N453  1  0.67640864  0.22193919  0.59895938  1
  N  N454  1  0.67520586  0.55375341  0.60436235  1
  N  N455  1  0.67497076  0.88889369  0.60162334  1
  Cl  Cl456  1  0.25759279  0.06054652  0.60711587  1
  Cl  Cl457  1  0.24878650  0.38647320  0.61775676  1
  Cl  Cl458  1  0.24816278  0.71969211  0.61348575  1
  Cl  Cl459  1  0.75831298  0.05362432  0.62021712  1
  Cl  Cl460  1  0.75307431  0.38652413  0.61785925  1
  Cl  Cl461  1  0.74825665  0.71547382  0.61888758  1
  Cl  Cl462  1  0.25597859  0.28122265  0.11628757  1
  Cl  Cl463  1  0.25628756  0.61367244  0.12260126  1
  Cl  Cl464  1  0.25467559  0.94314595  0.11405343  1
  Cl  Cl465  1  0.74973922  0.28582129  0.12745963  1
  Cl  Cl466  1  0.76208704  0.60712470  0.11305933  1
  Cl  Cl467  1  0.74966268  0.94695835  0.11288664  1
  Cl  Cl468  1  0.24391421  0.04962757  0.87658330  1
  Cl  Cl469  1  0.24250985  0.38857665  0.88126467  1
  Cl  Cl470  1  0.25769805  0.71806384  0.87898446  1
  Cl  Cl471  1  0.74999455  0.05438348  0.88639554  1
  Cl  Cl472  1  0.74345570  0.39145442  0.89239286  1
  Cl  Cl473  1  0.75786665  0.72230248  0.88640510  1
  Cl  Cl474  1  0.25540461  0.28076713  0.38001818  1
  Cl  Cl475  1  0.26317622  0.60517718  0.39423667  1
  Cl  Cl476  1  0.26250983  0.94378891  0.38542646  1
  Cl  Cl477  1  0.75994681  0.27422929  0.39800160  1
  Cl  Cl478  1  0.76232287  0.60790773  0.39347850  1
  Cl  Cl479  1  0.75602132  0.94873757  0.37904575  1
  Cl  Cl480  1  -0.01017540  0.22313777  0.61338745  1
  Cl  Cl481  1  -0.01337522  0.55828805  0.60776838  1
  Cl  Cl482  1  -0.01144585  0.88692190  0.61872025  1
  Cl  Cl483  1  0.49339865  0.21819231  0.62460289  1
  Cl  Cl484  1  0.48636286  0.55931958  0.60740101  1
  Cl  Cl485  1  0.49050682  0.89557708  0.61140002  1
  Cl  Cl486  1  0.00227183  0.11521937  0.11457067  1
  Cl  Cl487  1  0.00519459  0.45348890  0.12911840  1
  Cl  Cl488  1  -0.01065625  0.77397804  0.10260840  1
  Cl  Cl489  1  0.50507847  0.11530800  0.11694923  1
  Cl  Cl490  1  0.50982465  0.44460937  0.11045055  1
  Cl  Cl491  1  0.49200595  0.78111690  0.11718575  1
  Cl  Cl492  1  -0.00328591  0.22271872  0.88242383  1
  Cl  Cl493  1  -0.00644848  0.56132316  0.89134387  1
  Cl  Cl494  1  -0.00540674  0.87860328  0.88033267  1
  Cl  Cl495  1  0.49498389  0.22364052  0.89170425  1
  Cl  Cl496  1  0.49032116  0.55810037  0.88476381  1
  Cl  Cl497  1  0.49966405  0.89178547  0.89226908  1
  Cl  Cl498  1  -0.00412620  0.11874780  0.37770840  1
  Cl  Cl499  1  -0.00159625  0.44349064  0.40101561  1
  Cl  Cl500  1  0.00129438  0.77782943  0.37211424  1
  Cl  Cl501  1  0.48986565  0.11115394  0.38639430  1
  Cl  Cl502  1  0.49708808  0.45017291  0.37687555  1
  Cl  Cl503  1  0.49880073  0.78197158  0.38417902  1
  Cl  Cl504  1  0.36140604  0.14465617  0.75442048  1
  Cl  Cl505  1  0.35758086  0.48015928  0.75236115  1
  Cl  Cl506  1  0.36065738  0.81395220  0.74885801  1
  Cl  Cl507  1  0.85598580  0.14880057  0.75232193  1
  Cl  Cl508  1  0.85852441  0.48092549  0.74796094  1
  Cl  Cl509  1  0.85696158  0.81319300  0.74936914  1
  Cl  Cl510  1  0.13899792  0.18855693  0.25583881  1
  Cl  Cl511  1  0.14096977  0.52100243  0.25628311  1
  Cl  Cl512  1  0.14278044  0.85444480  0.24960851  1
  Cl  Cl513  1  0.64422602  0.18959186  0.24932441  1
  Cl  Cl514  1  0.63678027  0.52290091  0.25500954  1
  Cl  Cl515  1  0.63534210  0.85615926  0.24313017  1
  Cl  Cl516  1  0.13952935  0.14468307  0.74215965  1
  Cl  Cl517  1  0.13498890  0.48006493  0.74531819  1
  Cl  Cl518  1  0.13584256  0.81175626  0.74948895  1
  Cl  Cl519  1  0.63444509  0.14470505  0.75258653  1
  Cl  Cl520  1  0.63455457  0.48005236  0.75035266  1
  Cl  Cl521  1  0.63665116  0.81087244  0.75029876  1
  Cl  Cl522  1  0.36113154  0.18535984  0.24682478  1
  Cl  Cl523  1  0.36413712  0.52018716  0.24740068  1
  Cl  Cl524  1  0.36448427  0.85395002  0.24976699  1
  Cl  Cl525  1  0.86234585  0.18899028  0.25173112  1
  Cl  Cl526  1  0.85758160  0.52104522  0.25106190  1
  Cl  Cl527  1  0.85998736  0.85049083  0.24802424  1
  Cl  Cl528  1  0.10970064  0.31198342  0.74345428  1
  Cl  Cl529  1  0.11101145  0.64474715  0.75049349  1
  Cl  Cl530  1  0.11118204  0.97654000  0.74676720  1
  Cl  Cl531  1  0.60903570  0.31312072  0.75197859  1
  Cl  Cl532  1  0.60988868  0.64457199  0.75239873  1
  Cl  Cl533  1  0.61048342  0.97644066  0.74733583  1
  Cl  Cl534  1  0.39916968  0.01942872  0.24924492  1
  Cl  Cl535  1  0.38902533  0.35467739  0.24848038  1
  Cl  Cl536  1  0.39043726  0.68634060  0.25130274  1
  Cl  Cl537  1  0.88882972  0.02141511  0.24334776  1
  Cl  Cl538  1  0.89343826  0.35519768  0.25261109  1
  Cl  Cl539  1  0.89221887  0.68508755  0.25026920  1
  Cl  Cl540  1  0.38660600  0.31390219  0.75237843  1
  Cl  Cl541  1  0.38954564  0.64810341  0.75055763  1
  Cl  Cl542  1  0.39199612  0.97831332  0.74993363  1
  Cl  Cl543  1  0.88816628  0.31514493  0.74897311  1
  Cl  Cl544  1  0.88933310  0.64575705  0.75179680  1
  Cl  Cl545  1  0.88859729  0.98019434  0.75448964  1
  Cl  Cl546  1  0.11266205  0.02087248  0.25237954  1
  Cl  Cl547  1  0.11270298  0.35597849  0.25666980  1
  Cl  Cl548  1  0.11425297  0.68672549  0.24700608  1
  Cl  Cl549  1  0.61701651  0.02167717  0.25046671  1
  Cl  Cl550  1  0.60868203  0.35355956  0.25174748  1
  Cl  Cl551  1  0.60937398  0.68703298  0.24840451  1
