# generated using pymatgen
data_H8PbC4(N3Cl2)2
_symmetry_space_group_name_H-M   'P 1'
_cell_length_a   16.62291260
_cell_length_b   22.50192780
_cell_length_c   21.58893840
_cell_angle_alpha   90.00085127
_cell_angle_beta   89.99377935
_cell_angle_gamma   89.99727107
_symmetry_Int_Tables_number   1
_chemical_formula_structural   H8PbC4(N3Cl2)2
_chemical_formula_sum   'H192 Pb24 C96 N144 Cl96'
_cell_volume   8075.29008991
_cell_formula_units_Z   24
loop_
 _symmetry_equiv_pos_site_id
 _symmetry_equiv_pos_as_xyz
  1  'x, y, z'
loop_
 _atom_site_type_symbol
 _atom_site_label
 _atom_site_symmetry_multiplicity
 _atom_site_fract_x
 _atom_site_fract_y
 _atom_site_fract_z
 _atom_site_occupancy
  H  H0  1  0.00255530  0.03126284  0.68211555  1
  H  H1  1  0.00161553  0.36608899  0.67993883  1
  H  H2  1  -0.00051407  0.69709106  0.67987956  1
  H  H3  1  0.49777632  0.03282173  0.68058004  1
  H  H4  1  0.49860430  0.36563864  0.68333026  1
  H  H5  1  0.49462379  0.69844968  0.67852211  1
  H  H6  1  -0.00749348  0.30239746  0.18201871  1
  H  H7  1  0.00335463  0.63457091  0.17980843  1
  H  H8  1  0.00704165  0.96761543  0.18103160  1
  H  H9  1  0.50256958  0.30116753  0.17986305  1
  H  H10  1  0.49411699  0.63436802  0.17864776  1
  H  H11  1  0.49466518  0.96945267  0.18270390  1
  H  H12  1  0.00705561  0.03340173  0.82037868  1
  H  H13  1  0.00373321  0.36568238  0.81928646  1
  H  H14  1  0.00408031  0.69884339  0.82110553  1
  H  H15  1  0.49920164  0.03207854  0.81929516  1
  H  H16  1  0.50222677  0.36586861  0.82112493  1
  H  H17  1  0.50747872  0.69895039  0.81689403  1
  H  H18  1  -0.00814145  0.30148205  0.32220580  1
  H  H19  1  0.00973966  0.63449676  0.31994504  1
  H  H20  1  0.00561138  0.96779853  0.32099265  1
  H  H21  1  0.50061702  0.30029121  0.31874555  1
  H  H22  1  0.49625069  0.63488020  0.31815745  1
  H  H23  1  0.49339142  0.96820378  0.32136688  1
  H  H24  1  0.24903779  0.19850782  0.67992192  1
  H  H25  1  0.25422389  0.53226647  0.67985068  1
  H  H26  1  0.25166592  0.86622354  0.68075769  1
  H  H27  1  0.75160704  0.19740608  0.68146308  1
  H  H28  1  0.74543663  0.53287661  0.67984666  1
  H  H29  1  0.74888963  0.86523179  0.67904641  1
  H  H30  1  0.24252075  0.13446222  0.18172732  1
  H  H31  1  0.25030083  0.46752902  0.17978451  1
  H  H32  1  0.25224065  0.80063218  0.18217919  1
  H  H33  1  0.75067130  0.13452352  0.17886544  1
  H  H34  1  0.74592482  0.46763668  0.18180180  1
  H  H35  1  0.74448310  0.80094076  0.17952772  1
  H  H36  1  0.25355362  0.19867093  0.82079300  1
  H  H37  1  0.25116016  0.53217533  0.81820438  1
  H  H38  1  0.25520312  0.86490658  0.81586823  1
  H  H39  1  0.74189994  0.19879989  0.81903255  1
  H  H40  1  0.74757611  0.53238725  0.82004490  1
  H  H41  1  0.74352465  0.86567662  0.82030643  1
  H  H42  1  0.25827345  0.13544746  0.31706350  1
  H  H43  1  0.25542614  0.46596258  0.31905391  1
  H  H44  1  0.25031944  0.80152085  0.32028701  1
  H  H45  1  0.74381265  0.13625443  0.31844395  1
  H  H46  1  0.73845116  0.46905544  0.31875110  1
  H  H47  1  0.75056785  0.80187104  0.32226772  1
  H  H48  1  0.12606404  0.05187580  0.61147883  1
  H  H49  1  0.12694821  0.38667470  0.60990793  1
  H  H50  1  0.12380336  0.72086731  0.60869753  1
  H  H51  1  0.62869296  0.05202248  0.61607396  1
  H  H52  1  0.62491479  0.38664517  0.61547041  1
  H  H53  1  0.62819608  0.71858016  0.61761753  1
  H  H54  1  0.37033362  0.28135379  0.11672222  1
  H  H55  1  0.38275565  0.60598134  0.09938627  1
  H  H56  1  0.37366220  0.94658238  0.10996594  1
  H  H57  1  0.87524691  0.27785346  0.10559105  1
  H  H58  1  0.87600639  0.61401747  0.10980754  1
  H  H59  1  0.87229478  0.94765615  0.11901416  1
  H  H60  1  0.37097786  0.05417552  0.88552428  1
  H  H61  1  0.37082104  0.38594914  0.88554863  1
  H  H62  1  0.37213231  0.71867556  0.87891999  1
  H  H63  1  0.86707552  0.04891260  0.87372721  1
  H  H64  1  0.87298366  0.38669045  0.88525332  1
  H  H65  1  0.87485303  0.71910448  0.88451867  1
  H  H66  1  0.12718968  0.28336125  0.38320301  1
  H  H67  1  0.12474593  0.60881812  0.39792756  1
  H  H68  1  0.12096355  0.94248045  0.39998237  1
  H  H69  1  0.62534554  0.27981575  0.38759448  1
  H  H70  1  0.62819859  0.61463723  0.38430459  1
  H  H71  1  0.62741065  0.95039266  0.38312370  1
  H  H72  1  0.37227247  0.22058956  0.60891647  1
  H  H73  1  0.37035195  0.55768782  0.60141073  1
  H  H74  1  0.36949772  0.88683674  0.60614155  1
  H  H75  1  0.87259468  0.22253199  0.60722947  1
  H  H76  1  0.87283112  0.55190346  0.61384927  1
  H  H77  1  0.87412956  0.88805491  0.60847478  1
  H  H78  1  0.13375869  0.11085003  0.10085193  1
  H  H79  1  0.12745414  0.44554502  0.10784125  1
  H  H80  1  0.12716694  0.77900808  0.11050147  1
  H  H81  1  0.63405940  0.11090855  0.10109484  1
  H  H82  1  0.62879015  0.44472183  0.10612899  1
  H  H83  1  0.63220062  0.77514299  0.09884669  1
  H  H84  1  0.12543090  0.22091701  0.88947952  1
  H  H85  1  0.11994911  0.55311396  0.88503630  1
  H  H86  1  0.12643878  0.88426247  0.88132321  1
  H  H87  1  0.63142665  0.22482101  0.90194553  1
  H  H88  1  0.61982101  0.55312008  0.88727539  1
  H  H89  1  0.63122320  0.89164509  0.90062323  1
  H  H90  1  0.37159509  0.11214238  0.39632265  1
  H  H91  1  0.36890593  0.44373909  0.39658042  1
  H  H92  1  0.37286605  0.77955818  0.39318088  1
  H  H93  1  0.87300348  0.11348317  0.38653959  1
  H  H94  1  0.87482283  0.44966938  0.37874621  1
  H  H95  1  0.87249376  0.77718687  0.39381615  1
  H  H96  1  0.37630025  0.28078987  0.38852442  1
  H  H97  1  0.37923686  0.61207909  0.39548473  1
  H  H98  1  0.38003985  0.94051447  0.39970212  1
  H  H99  1  0.87985522  0.27584916  0.40203256  1
  H  H100  1  0.87654703  0.61569961  0.38363985  1
  H  H101  1  0.87348160  0.94678388  0.38294193  1
  H  H102  1  0.11290735  0.05742466  0.90331631  1
  H  H103  1  0.12170446  0.38936541  0.89499161  1
  H  H104  1  0.12328251  0.72122261  0.89534146  1
  H  H105  1  0.62063813  0.05390796  0.89419636  1
  H  H106  1  0.61989825  0.39029770  0.89758836  1
  H  H107  1  0.62033981  0.72330706  0.89640161  1
  H  H108  1  0.12369567  0.28165118  0.11618264  1
  H  H109  1  0.12438217  0.61127325  0.10540313  1
  H  H110  1  0.11902510  0.94323072  0.09898304  1
  H  H111  1  0.61886031  0.27572270  0.10216059  1
  H  H112  1  0.62957540  0.61775759  0.11811900  1
  H  H113  1  0.62341470  0.94470645  0.11555608  1
  H  H114  1  0.37959474  0.05443664  0.60679092  1
  H  H115  1  0.37499177  0.38535066  0.61236212  1
  H  H116  1  0.38084565  0.72453926  0.59888290  1
  H  H117  1  0.87658429  0.05269232  0.61428652  1
  H  H118  1  0.87763262  0.38731822  0.61101479  1
  H  H119  1  0.87509740  0.72142871  0.60826463  1
  H  H120  1  0.12360580  0.11479386  0.37933511  1
  H  H121  1  0.12088640  0.44904971  0.37988308  1
  H  H122  1  0.12411392  0.77947040  0.39153960  1
  H  H123  1  0.62458428  0.11243284  0.39542288  1
  H  H124  1  0.62846047  0.44240532  0.40135799  1
  H  H125  1  0.62344707  0.77923030  0.39002743  1
  H  H126  1  0.37344266  0.22260802  0.89635584  1
  H  H127  1  0.36877027  0.55370238  0.89508119  1
  H  H128  1  0.37578308  0.88795311  0.88851953  1
  H  H129  1  0.87787172  0.21751518  0.87905986  1
  H  H130  1  0.86835896  0.55527313  0.89492558  1
  H  H131  1  0.87885624  0.88578892  0.87995846  1
  H  H132  1  0.38063461  0.11764712  0.12531814  1
  H  H133  1  0.37655450  0.44462340  0.10952035  1
  H  H134  1  0.37633752  0.77808448  0.11043540  1
  H  H135  1  0.88191328  0.11268814  0.11335254  1
  H  H136  1  0.87801492  0.44870338  0.11940016  1
  H  H137  1  0.87993438  0.78246676  0.12037002  1
  H  H138  1  0.12238009  0.22212650  0.61066456  1
  H  H139  1  0.12209688  0.55060052  0.61440334  1
  H  H140  1  0.12041582  0.88601510  0.61671563  1
  H  H141  1  0.62354557  0.21834379  0.61337310  1
  H  H142  1  0.62378291  0.55607825  0.60731959  1
  H  H143  1  0.62607608  0.88901991  0.60675081  1
  H  H144  1  0.70075853  0.91498990  1.00422579  1
  H  H145  1  0.66555071  0.74906722  0.49572131  1
  H  H146  1  0.30411755  0.58405428  0.49841905  1
  H  H147  1  0.44828759  0.92611219  0.50394576  1
  H  H148  1  0.44074965  0.58715583  0.50378801  1
  H  H149  1  0.84688392  0.42083447  0.00671680  1
  H  H150  1  0.30886808  0.57820557  1.00363358  1
  H  H151  1  0.55780070  0.41612902  1.00247301  1
  H  H152  1  0.32644567  0.25078400  0.49961207  1
  H  H153  1  0.43455370  0.08465006  0.49604674  1
  H  H154  1  0.16637234  0.25076160  0.50586823  1
  H  H155  1  0.32683985  0.75088782  0.00151202  1
  H  H156  1  0.93333397  0.25125183  -0.00147205  1
  H  H157  1  0.83492832  0.58097229  0.50121544  1
  H  H158  1  0.66592099  0.24653318  0.50344324  1
  H  H159  1  0.04243731  0.08318611  1.00950662  1
  H  H160  1  0.56642213  0.08733532  0.99629154  1
  H  H161  1  0.84776374  0.08390348  0.00591313  1
  H  H162  1  0.04788960  0.91732737  -0.00245391  1
  H  H163  1  0.31419999  0.91241257  0.49467690  1
  H  H164  1  0.70408457  0.24772105  1.00312862  1
  H  H165  1  0.55534300  0.25053461  -0.00178476  1
  H  H166  1  0.17111267  0.25086324  0.99424867  1
  H  H167  1  0.40589639  0.08420492  0.99694687  1
  H  H168  1  0.42842129  0.92577763  -0.00278558  1
  H  H169  1  0.68534092  0.41949710  -0.00408634  1
  H  H170  1  0.82735814  0.91662356  0.50408407  1
  H  H171  1  0.57828003  0.92497622  0.00704418  1
  H  H172  1  0.45292169  0.59288383  -0.00429173  1
  H  H173  1  0.08115652  0.07940372  0.50072194  1
  H  H174  1  0.30729344  0.41938317  0.50721181  1
  H  H175  1  0.59535211  0.91409346  0.48727029  1
  H  H176  1  0.70089795  0.74852047  -0.00326738  1
  H  H177  1  0.20110297  0.08456489  -0.00677829  1
  H  H178  1  0.91767048  0.08191718  0.50319475  1
  H  H179  1  0.70130986  0.42120131  0.50296312  1
  H  H180  1  0.16539358  0.90827908  0.99589161  1
  H  H181  1  0.58197219  0.40877783  0.50164153  1
  H  H182  1  0.92221415  0.41649985  0.49903057  1
  H  H183  1  0.92499355  0.58348458  0.00518568  1
  H  H184  1  0.55516040  0.74827428  1.00320204  1
  H  H185  1  0.30640044  0.08402906  0.50286600  1
  H  H186  1  0.90803272  0.74908636  0.99784168  1
  H  H187  1  0.60207014  0.58232565  0.01243837  1
  H  H188  1  0.32289700  0.90966247  1.00138110  1
  H  H189  1  0.92695479  0.74745534  0.50354731  1
  H  H190  1  0.42258625  0.40700879  0.49923397  1
  H  H191  1  0.17449427  0.75235967  0.49618282  1
  Pb  Pb192  1  0.25082548  0.04816963  0.75027319  1
  Pb  Pb193  1  0.24885030  0.37854915  0.75046566  1
  Pb  Pb194  1  0.24601108  0.71445649  0.74655656  1
  Pb  Pb195  1  0.74804126  0.04520590  0.75248963  1
  Pb  Pb196  1  0.75320353  0.38164045  0.74963970  1
  Pb  Pb197  1  0.74914912  0.71182472  0.75266168  1
  Pb  Pb198  1  0.24875894  0.28739171  0.25098837  1
  Pb  Pb199  1  0.25466416  0.61670536  0.25098434  1
  Pb  Pb200  1  0.24650953  0.95312863  0.25001061  1
  Pb  Pb201  1  0.75576067  0.28517603  0.24587470  1
  Pb  Pb202  1  0.75158875  0.62221838  0.25056719  1
  Pb  Pb203  1  0.74860600  0.95037715  0.24819036  1
  Pb  Pb204  1  -0.00056840  0.21097912  0.74856672  1
  Pb  Pb205  1  -0.00045748  0.54487533  0.75335922  1
  Pb  Pb206  1  -0.00217434  0.88034868  0.75385714  1
  Pb  Pb207  1  0.50379029  0.21507010  0.75580900  1
  Pb  Pb208  1  0.49542798  0.54779292  0.75206383  1
  Pb  Pb209  1  0.50017725  0.87958864  0.74888212  1
  Pb  Pb210  1  -0.00113897  0.11946038  0.24954286  1
  Pb  Pb211  1  0.00090610  0.45562320  0.24813950  1
  Pb  Pb212  1  0.00372099  0.78492529  0.25368702  1
  Pb  Pb213  1  0.50147192  0.12069846  0.25020450  1
  Pb  Pb214  1  0.50571187  0.45009362  0.25158392  1
  Pb  Pb215  1  0.49655002  0.78543453  0.24649826  1
  C  C216  1  0.00169765  0.04594431  0.63418147  1
  C  C217  1  0.00153908  0.37999129  0.63196050  1
  C  C218  1  -0.00096785  0.71268114  0.63238215  1
  C  C219  1  0.50174263  0.04658510  0.63263352  1
  C  C220  1  0.49955283  0.37956764  0.63514959  1
  C  C221  1  0.50109722  0.71360948  0.63127712  1
  C  C222  1  -0.00264536  0.28739737  0.13440759  1
  C  C223  1  0.00093017  0.61972104  0.13207168  1
  C  C224  1  -0.00032656  0.95339131  0.13334920  1
  C  C225  1  0.49755099  0.28699461  0.13216896  1
  C  C226  1  0.50237008  0.61922473  0.13115650  1
  C  C227  1  0.49784533  0.95405597  0.13500887  1
  C  C228  1  -0.00426729  0.04676243  0.86785032  1
  C  C229  1  -0.00092600  0.38035971  0.86676647  1
  C  C230  1  0.00009474  0.71313328  0.86889344  1
  C  C231  1  0.49729380  0.04745747  0.86711708  1
  C  C232  1  0.49796222  0.38043839  0.86878315  1
  C  C233  1  0.49956889  0.71353506  0.86443406  1
  C  C234  1  -0.00002674  0.28711754  0.36955644  1
  C  C235  1  0.00340584  0.61997009  0.36739479  1
  C  C236  1  0.00028629  0.95277554  0.36834508  1
  C  C237  1  0.50078880  0.28668393  0.36684070  1
  C  C238  1  0.50150765  0.62035185  0.36591967  1
  C  C239  1  0.50035016  0.95391425  0.36926895  1
  C  C240  1  0.24739313  0.21382044  0.63211849  1
  C  C241  1  0.24917556  0.54678396  0.63205422  1
  C  C242  1  0.24746436  0.87970141  0.63278473  1
  C  C243  1  0.74935143  0.21275744  0.63397195  1
  C  C244  1  0.74790921  0.54698359  0.63195773  1
  C  C245  1  0.74992630  0.88058550  0.63141827  1
  C  C246  1  0.25214604  0.12082588  0.13417144  1
  C  C247  1  0.25178378  0.45276032  0.13219990  1
  C  C248  1  0.25193222  0.78597553  0.13432425  1
  C  C249  1  0.75609119  0.11942882  0.13127141  1
  C  C250  1  0.75120211  0.45327122  0.13392279  1
  C  C251  1  0.75192304  0.78654553  0.13189587  1
  C  C252  1  0.25052188  0.21404295  0.86841481  1
  C  C253  1  0.24644378  0.54646757  0.86603355  1
  C  C254  1  0.25236985  0.87930912  0.86382698  1
  C  C255  1  0.75011839  0.21292644  0.86661534  1
  C  C256  1  0.74535665  0.54695650  0.86769405  1
  C  C257  1  0.75099352  0.87971741  0.86788983  1
  C  C258  1  0.25079748  0.12074072  0.36454555  1
  C  C259  1  0.24860975  0.45282491  0.36700783  1
  C  C260  1  0.24871327  0.78656413  0.36798815  1
  C  C261  1  0.74704986  0.12100733  0.36606935  1
  C  C262  1  0.74687446  0.45442852  0.36616909  1
  C  C263  1  0.74843361  0.78621480  0.36966441  1
  C  C264  1  0.80815881  0.90735205  0.95648485  1
  C  C265  1  0.03439434  0.73967057  0.96352441  1
  C  C266  1  0.52290705  0.73860163  0.96036605  1
  C  C267  1  0.31320847  0.09791967  0.04626976  1
  C  C268  1  0.27452688  0.09437484  0.46009808  1
  C  C269  1  0.72027439  0.42880094  0.03744968  1
  C  C270  1  0.27495676  0.57027682  0.96136351  1
  C  C271  1  0.95110239  0.92651778  0.45850211  1
  C  C272  1  0.71055587  0.57265117  0.53760908  1
  C  C273  1  0.04371027  0.40522890  0.53853705  1
  C  C274  1  0.70215262  0.57176521  0.96028402  1
  C  C275  1  0.27874071  0.90394632  0.53606931  1
  C  C276  1  0.97693114  0.25847842  0.46483718  1
  C  C277  1  0.45040909  0.07330015  0.95911672  1
  C  C278  1  0.28778814  0.90232805  0.95960895  1
  C  C279  1  0.80981440  0.76067919  0.04304615  1
  C  C280  1  0.28672398  0.24025598  0.53861860  1
  C  C281  1  0.28806119  0.76092962  0.04075820  1
  C  C282  1  0.46107577  0.92854938  0.04073916  1
  C  C283  1  0.70804170  0.23770775  0.54171368  1
  C  C284  1  0.47396388  0.59566048  0.46128444  1
  C  C285  1  0.03003260  0.59125725  0.46197059  1
  C  C286  1  0.93179617  0.06963516  0.95433428  1
  C  C287  1  0.96207285  0.40573303  0.53733040  1
  C  C288  1  0.95902917  0.07128999  0.54066471  1
  C  C289  1  0.20586260  0.90118926  0.95699353  1
  C  C290  1  0.79210164  0.57167316  0.53821609  1
  C  C291  1  0.54230300  0.40129071  0.54085573  1
  C  C292  1  0.04126241  0.07027960  0.53956363  1
  C  C293  1  0.55175099  0.73996265  0.54171735  1
  C  C294  1  0.96869507  0.26152883  0.03946919  1
  C  C295  1  0.21585461  0.42516184  0.03929404  1
  C  C296  1  0.54195537  0.26161037  0.45998942  1
  C  C297  1  0.19755845  0.90393153  0.54179778  1
  C  C298  1  0.44477032  0.26038966  0.04168713  1
  C  C299  1  0.78704272  0.75675069  0.46360901  1
  C  C300  1  0.01204092  0.07252681  0.96626220  1
  C  C301  1  0.46035780  0.26207180  0.46031547  1
  C  C302  1  0.44668063  0.40698482  0.95981988  1
  C  C303  1  0.47009033  0.07315549  0.53664895  1
  C  C304  1  0.95287964  0.73921985  0.96146949  1
  C  C305  1  0.27446233  0.42873987  0.46468060  1
  C  C306  1  0.02940822  0.40902862  0.96074038  1
  C  C307  1  0.23253548  0.09520110  0.03602788  1
  C  C308  1  0.80225487  0.42988046  0.04244162  1
  C  C309  1  0.19351591  0.43026826  0.45702037  1
  C  C310  1  0.46043516  0.40081290  0.53972426  1
  C  C311  1  0.55134546  0.07178491  0.54167209  1
  N  N312  1  0.19595099  0.57136612  0.95781779  1
  N  N313  1  0.20996167  0.23807160  0.95968571  1
  N  N314  1  0.94314450  0.92997301  0.04433163  1
  N  N315  1  0.80872120  0.23610179  0.95507863  1
  N  N316  1  0.70776631  0.75814884  0.46116369  1
  N  N317  1  0.02052110  0.92871594  0.03837026  1
  N  N318  1  0.05417584  0.26110876  0.45992917  1
  N  N319  1  0.53021013  0.07216529  0.96117790  1
  N  N320  1  0.27448536  0.57150219  0.53792015  1
  N  N321  1  0.80187158  0.09365568  0.04159086  1
  N  N322  1  0.19683016  0.56948069  0.54135020  1
  N  N323  1  0.72393498  0.09321625  0.03604485  1
  N  N324  1  0.96183744  0.59695622  0.04040310  1
  N  N325  1  0.52349653  0.25949020  0.03785028  1
  N  N326  1  0.47918673  0.58632035  0.03828442  1
  N  N327  1  0.73110978  0.75854052  0.03675098  1
  N  N328  1  0.73113532  0.23922924  0.96121876  1
  N  N329  1  0.20701905  0.24066337  0.54038314  1
  N  N330  1  0.44382046  0.73717982  0.95467489  1
  N  N331  1  0.04801003  0.26224950  0.04260533  1
  N  N332  1  0.78006430  0.57333198  0.96364825  1
  N  N333  1  0.04185395  0.74009215  0.53979519  1
  N  N334  1  0.78780770  0.90615695  0.53973482  1
  N  N335  1  0.54043500  0.92590130  0.04436335  1
  N  N336  1  0.52550417  0.40773270  0.96298213  1
  N  N337  1  0.21134189  0.76177353  0.45954448  1
  N  N338  1  0.95260653  0.59347207  0.45886260  1
  N  N339  1  0.20876661  0.76110053  0.04034925  1
  N  N340  1  0.29323024  0.42502531  0.03839997  1
  N  N341  1  0.55285721  0.93250948  0.45830933  1
  N  N342  1  0.47457582  0.74244556  0.53451887  1
  N  N343  1  0.78724227  0.23997512  0.53920352  1
  N  N344  1  0.47493494  0.92045069  0.46149197  1
  N  N345  1  0.70904732  0.90584823  0.53763324  1
  N  N346  1  0.80553093  0.42973563  0.45394413  1
  N  N347  1  0.71500524  0.09279142  0.46066852  1
  N  N348  1  0.28933868  0.76218935  0.46197116  1
  N  N349  1  0.55306020  0.59490760  0.45716450  1
  N  N350  1  0.03972548  0.59497076  0.03774368  1
  N  N351  1  0.79133355  0.09309159  0.45774750  1
  N  N352  1  0.55699844  0.59901414  0.04250657  1
  N  N353  1  0.72972420  0.90805747  0.96280821  1
  N  N354  1  0.96352252  0.74099428  0.54136312  1
  N  N355  1  0.02839532  0.92474476  0.46512892  1
  N  N356  1  0.19568163  0.09487084  0.45435879  1
  N  N357  1  0.72808166  0.42681424  0.46055057  1
  N  N358  1  0.28801301  0.23949511  0.96301310  1
  N  N359  1  0.95191465  0.40775690  0.95901455  1
  N  N360  1  0.06623746  0.05472945  0.59796398  1
  N  N361  1  0.06720787  0.38981350  0.59570147  1
  N  N362  1  0.06315688  0.72366784  0.59724038  1
  N  N363  1  0.57006076  0.05601115  0.59956175  1
  N  N364  1  0.56538573  0.38826882  0.60055508  1
  N  N365  1  0.57034531  0.72275681  0.60053478  1
  N  N366  1  0.42851226  0.27699289  0.10015475  1
  N  N367  1  0.44462542  0.60888843  0.09022747  1
  N  N368  1  0.43398470  0.94407376  0.09744149  1
  N  N369  1  0.93619942  0.27650921  0.09544800  1
  N  N370  1  0.93638976  0.60982008  0.09790722  1
  N  N371  1  0.93066155  0.94509705  0.10340014  1
  N  N372  1  0.43015860  0.05713204  0.90078374  1
  N  N373  1  0.42940379  0.39050506  0.90147455  1
  N  N374  1  0.43127384  0.72182537  0.89467205  1
  N  N375  1  0.92277561  0.05421598  0.89458487  1
  N  N376  1  0.93276837  0.38957576  0.89900209  1
  N  N377  1  0.93292347  0.72262563  0.90107951  1
  N  N378  1  0.06848749  0.27939308  0.39921665  1
  N  N379  1  0.06369125  0.60730990  0.40732653  1
  N  N380  1  0.05927518  0.94156109  0.40766777  1
  N  N381  1  0.56595494  0.27659094  0.40262334  1
  N  N382  1  0.56826714  0.61037525  0.39780764  1
  N  N383  1  0.56881041  0.94495196  0.39891693  1
  N  N384  1  0.31200120  0.22375297  0.59569479  1
  N  N385  1  0.30842273  0.55828013  0.59289145  1
  N  N386  1  0.30903267  0.88883214  0.59420524  1
  N  N387  1  0.81124996  0.22416734  0.59717669  1
  N  N388  1  0.81396750  0.55570530  0.59822164  1
  N  N389  1  0.81358218  0.89065638  0.59637220  1
  N  N390  1  0.19539824  0.10970386  0.09215969  1
  N  N391  1  0.18764729  0.44196860  0.09557283  1
  N  N392  1  0.18813876  0.77654533  0.09885952  1
  N  N393  1  0.69590526  0.10864868  0.09220274  1
  N  N394  1  0.68988460  0.44327355  0.09502166  1
  N  N395  1  0.69438851  0.77551907  0.09132527  1
  N  N396  1  0.18565733  0.22393242  0.90221938  1
  N  N397  1  0.17989395  0.55630495  0.89840842  1
  N  N398  1  0.18533014  0.88715575  0.89722201  1
  N  N399  1  0.69372080  0.22344079  0.90838882  1
  N  N400  1  0.67892597  0.55621642  0.90178545  1
  N  N401  1  0.69308022  0.88893683  0.90882185  1
  N  N402  1  0.30995278  0.11003905  0.40529443  1
  N  N403  1  0.30815296  0.44278231  0.40729265  1
  N  N404  1  0.31220866  0.77704791  0.40442014  1
  N  N405  1  0.81253425  0.11035065  0.39914117  1
  N  N406  1  0.81643489  0.44491844  0.39484969  1
  N  N407  1  0.81229037  0.77414152  0.40691123  1
  N  N408  1  0.43600766  0.27726106  0.40307369  1
  N  N409  1  0.44064030  0.61057212  0.40549754  1
  N  N410  1  0.44167126  0.94378387  0.40955646  1
  N  N411  1  0.94129029  0.27419156  0.41076111  1
  N  N412  1  0.93596912  0.61163584  0.39841008  1
  N  N413  1  0.93159767  0.94318176  0.39978086  1
  N  N414  1  0.05104661  0.05798543  0.91096347  1
  N  N415  1  0.06076880  0.39233706  0.90553156  1
  N  N416  1  0.06275527  0.72406258  0.90789656  1
  N  N417  1  0.55900513  0.05853522  0.90385423  1
  N  N418  1  0.55835480  0.39056692  0.90720721  1
  N  N419  1  0.55842337  0.72445524  0.90535275  1
  N  N420  1  0.06379422  0.27832871  0.10212692  1
  N  N421  1  0.06374549  0.61034221  0.09484095  1
  N  N422  1  0.05701039  0.94323837  0.09206393  1
  N  N423  1  0.55725917  0.27708230  0.09304834  1
  N  N424  1  0.57149500  0.60995810  0.10240248  1
  N  N425  1  0.56313435  0.94492375  0.10160819  1
  N  N426  1  0.44009928  0.05702063  0.59455420  1
  N  N427  1  0.43509354  0.38764564  0.59875000  1
  N  N428  1  0.44280522  0.72564521  0.59163893  1
  N  N429  1  0.93608067  0.05625627  0.59979316  1
  N  N430  1  0.93706651  0.38983826  0.59663646  1
  N  N431  1  0.93595602  0.72277434  0.59671045  1
  N  N432  1  0.18270151  0.11118426  0.39464032  1
  N  N433  1  0.17853991  0.44467915  0.39805373  1
  N  N434  1  0.18478457  0.77651699  0.40283394  1
  N  N435  1  0.68605643  0.11028740  0.40407115  1
  N  N436  1  0.69055792  0.44422961  0.40815260  1
  N  N437  1  0.68354771  0.77657988  0.40331139  1
  N  N438  1  0.31269160  0.22377374  0.90614639  1
  N  N439  1  0.30767275  0.55563457  0.90532551  1
  N  N440  1  0.31564305  0.88891716  0.90125934  1
  N  N441  1  0.81977206  0.22110427  0.89568927  1
  N  N442  1  0.80675869  0.55758710  0.90474211  1
  N  N443  1  0.82148007  0.89026035  0.89772348  1
  N  N444  1  0.32426390  0.11307494  0.10573624  1
  N  N445  1  0.31591408  0.44245518  0.09771000  1
  N  N446  1  0.31616148  0.77596169  0.09824940  1
  N  N447  1  0.82250574  0.10976339  0.09916349  1
  N  N448  1  0.81978463  0.44483405  0.10245278  1
  N  N449  1  0.82268574  0.77755734  0.10201952  1
  N  N450  1  0.18297677  0.22420258  0.59796987  1
  N  N451  1  0.18154324  0.55389986  0.59993949  1
  N  N452  1  0.17903824  0.88947892  0.60010938  1
  N  N453  1  0.68327523  0.22169974  0.59966365  1
  N  N454  1  0.68381950  0.55801973  0.59409964  1
  N  N455  1  0.68664826  0.89042173  0.59516070  1
  Cl  Cl456  1  0.25421414  0.05336160  0.61691391  1
  Cl  Cl457  1  0.25175247  0.38535884  0.61633588  1
  Cl  Cl458  1  0.24893607  0.72119856  0.61064735  1
  Cl  Cl459  1  0.75272355  0.04832035  0.62494875  1
  Cl  Cl460  1  0.74804034  0.39149314  0.61348710  1
  Cl  Cl461  1  0.75306613  0.72258965  0.61626811  1
  Cl  Cl462  1  0.24604793  0.28073650  0.11840358  1
  Cl  Cl463  1  0.25906175  0.60848802  0.11544835  1
  Cl  Cl464  1  0.24408379  0.94450932  0.11413266  1
  Cl  Cl465  1  0.74229321  0.27303418  0.10577727  1
  Cl  Cl466  1  0.75306834  0.61881312  0.11745312  1
  Cl  Cl467  1  0.74433389  0.94073069  0.10698395  1
  Cl  Cl468  1  0.24147740  0.05559776  0.88400809  1
  Cl  Cl469  1  0.24568836  0.38381589  0.88078799  1
  Cl  Cl470  1  0.24765729  0.71947265  0.87869916  1
  Cl  Cl471  1  0.74127895  0.04900271  0.88652867  1
  Cl  Cl472  1  0.74336827  0.38778517  0.88465213  1
  Cl  Cl473  1  0.74160947  0.72413961  0.89014708  1
  Cl  Cl474  1  0.25209229  0.27984182  0.38650969  1
  Cl  Cl475  1  0.25560664  0.60978623  0.39066149  1
  Cl  Cl476  1  0.25620668  0.94304966  0.38527894  1
  Cl  Cl477  1  0.75304362  0.28210128  0.37798130  1
  Cl  Cl478  1  0.75251515  0.61743743  0.38334975  1
  Cl  Cl479  1  0.75023658  0.94310878  0.38168630  1
  Cl  Cl480  1  -0.00146323  0.22204451  0.61661473  1
  Cl  Cl481  1  -0.00060422  0.55128376  0.62252122  1
  Cl  Cl482  1  -0.00530519  0.88428989  0.62277015  1
  Cl  Cl483  1  0.49713408  0.21710675  0.62518968  1
  Cl  Cl484  1  0.49199012  0.55647874  0.61809336  1
  Cl  Cl485  1  0.49933904  0.89287885  0.60788407  1
  Cl  Cl486  1  0.00668823  0.11195480  0.11451938  1
  Cl  Cl487  1  0.00341419  0.44871429  0.11779835  1
  Cl  Cl488  1  0.00403163  0.78248260  0.12077724  1
  Cl  Cl489  1  0.51140210  0.11323774  0.10966167  1
  Cl  Cl490  1  0.50544272  0.44352146  0.10978985  1
  Cl  Cl491  1  0.50840724  0.77680471  0.10988499  1
  Cl  Cl492  1  0.00274978  0.21975865  0.88267431  1
  Cl  Cl493  1  -0.00819341  0.55401640  0.88852612  1
  Cl  Cl494  1  0.00461399  0.88903050  0.89045100  1
  Cl  Cl495  1  0.50809467  0.22523147  0.89828457  1
  Cl  Cl496  1  0.49374957  0.55682672  0.89399455  1
  Cl  Cl497  1  0.50767054  0.89405832  0.89191516  1
  Cl  Cl498  1  -0.00347785  0.11410325  0.38234746  1
  Cl  Cl499  1  -0.00295858  0.44988106  0.38015882  1
  Cl  Cl500  1  -0.00204016  0.77826892  0.38926903  1
  Cl  Cl501  1  0.49743424  0.11279599  0.38396264  1
  Cl  Cl502  1  0.50388306  0.44254913  0.38595764  1
  Cl  Cl503  1  0.49959035  0.78373608  0.37867066  1
  Cl  Cl504  1  0.35716292  0.14412134  0.75341484  1
  Cl  Cl505  1  0.36274015  0.47733129  0.75001164  1
  Cl  Cl506  1  0.36490553  0.81130257  0.75241472  1
  Cl  Cl507  1  0.86243382  0.14412626  0.75510903  1
  Cl  Cl508  1  0.85953452  0.47677745  0.75210123  1
  Cl  Cl509  1  0.86130704  0.81246496  0.75242991  1
  Cl  Cl510  1  0.13896575  0.18875107  0.25201662  1
  Cl  Cl511  1  0.13740146  0.52336238  0.25271760  1
  Cl  Cl512  1  0.13962486  0.85620894  0.25083573  1
  Cl  Cl513  1  0.63804701  0.18846657  0.24734917  1
  Cl  Cl514  1  0.63877989  0.52134762  0.24746208  1
  Cl  Cl515  1  0.64109276  0.85752628  0.24959089  1
  Cl  Cl516  1  0.13672613  0.14449721  0.74810219  1
  Cl  Cl517  1  0.13751936  0.47924231  0.74874809  1
  Cl  Cl518  1  0.13810961  0.81086216  0.74739055  1
  Cl  Cl519  1  0.63681298  0.14459474  0.75104907  1
  Cl  Cl520  1  0.63501565  0.47879995  0.74970110  1
  Cl  Cl521  1  0.63664794  0.81237063  0.74774008  1
  Cl  Cl522  1  0.36449816  0.18868283  0.24516191  1
  Cl  Cl523  1  0.36063385  0.52373612  0.24861903  1
  Cl  Cl524  1  0.36441795  0.85462337  0.24952405  1
  Cl  Cl525  1  0.86121798  0.18980177  0.24680453  1
  Cl  Cl526  1  0.86276817  0.52089454  0.25063114  1
  Cl  Cl527  1  0.85998138  0.85632330  0.24720399  1
  Cl  Cl528  1  0.11312815  0.31076416  0.74796695  1
  Cl  Cl529  1  0.11166375  0.64520967  0.75054132  1
  Cl  Cl530  1  0.11102414  0.97679958  0.74970774  1
  Cl  Cl531  1  0.60753698  0.30974535  0.75158783  1
  Cl  Cl532  1  0.61266870  0.64540818  0.74814250  1
  Cl  Cl533  1  0.61244933  0.97834766  0.74855883  1
  Cl  Cl534  1  0.39337441  0.02158374  0.24732434  1
  Cl  Cl535  1  0.38734258  0.35591664  0.24831987  1
  Cl  Cl536  1  0.39306036  0.68828345  0.24769364  1
  Cl  Cl537  1  0.88944969  0.02262607  0.24633311  1
  Cl  Cl538  1  0.88873711  0.35561897  0.24908467  1
  Cl  Cl539  1  0.88686231  0.68970733  0.25112566  1
  Cl  Cl540  1  0.38551108  0.31119761  0.75396059  1
  Cl  Cl541  1  0.38996643  0.64390581  0.75300625  1
  Cl  Cl542  1  0.38835799  0.97849916  0.75367460  1
  Cl  Cl543  1  0.88545713  0.31156907  0.75351418  1
  Cl  Cl544  1  0.88672243  0.64558946  0.75209795  1
  Cl  Cl545  1  0.88684112  0.97727476  0.75441706  1
  Cl  Cl546  1  0.11284120  0.02189302  0.25284144  1
  Cl  Cl547  1  0.11291239  0.35527280  0.25264198  1
  Cl  Cl548  1  0.10835778  0.68966953  0.24920777  1
  Cl  Cl549  1  0.61334478  0.02086452  0.24954600  1
  Cl  Cl550  1  0.60981034  0.35698478  0.24793998  1
  Cl  Cl551  1  0.61504200  0.68788936  0.24859798  1
