# generated using pymatgen
data_H8PbC4(N3Cl2)2
_symmetry_space_group_name_H-M   'P 1'
_cell_length_a   16.62218478
_cell_length_b   22.51057819
_cell_length_c   21.59178544
_cell_angle_alpha   90.00176398
_cell_angle_beta   89.99878560
_cell_angle_gamma   90.00442162
_symmetry_Int_Tables_number   1
_chemical_formula_structural   H8PbC4(N3Cl2)2
_chemical_formula_sum   'H192 Pb24 C96 N144 Cl96'
_cell_volume   8079.10607577
_cell_formula_units_Z   24
loop_
 _symmetry_equiv_pos_site_id
 _symmetry_equiv_pos_as_xyz
  1  'x, y, z'
loop_
 _atom_site_type_symbol
 _atom_site_label
 _atom_site_symmetry_multiplicity
 _atom_site_fract_x
 _atom_site_fract_y
 _atom_site_fract_z
 _atom_site_occupancy
  H  H0  1  -0.01341571  0.03414363  0.67601645  1
  H  H1  1  0.00763451  0.36375796  0.68214953  1
  H  H2  1  -0.00788471  0.69683281  0.67965188  1
  H  H3  1  0.49866619  0.03173650  0.67653993  1
  H  H4  1  0.49506213  0.36300977  0.67612691  1
  H  H5  1  0.50573634  0.69894891  0.67977624  1
  H  H6  1  0.00218363  0.30392892  0.17784567  1
  H  H7  1  0.00421999  0.63800427  0.17373692  1
  H  H8  1  0.00148210  0.96859348  0.17936860  1
  H  H9  1  0.49536875  0.30260437  0.18060673  1
  H  H10  1  0.50952119  0.63548473  0.17737068  1
  H  H11  1  0.49103357  0.97152863  0.17797980  1
  H  H12  1  -0.00848269  0.03393116  0.82057901  1
  H  H13  1  -0.00014233  0.36407452  0.82228864  1
  H  H14  1  -0.00956845  0.69612084  0.82461348  1
  H  H15  1  0.51188453  0.03152686  0.82385489  1
  H  H16  1  0.50524325  0.36557485  0.81942710  1
  H  H17  1  0.49332506  0.69724247  0.82149649  1
  H  H18  1  0.00001749  0.30347808  0.31981789  1
  H  H19  1  -0.00111630  0.63657486  0.31739956  1
  H  H20  1  0.01178659  0.97183166  0.32272571  1
  H  H21  1  0.50988324  0.30184859  0.32000307  1
  H  H22  1  0.49949653  0.63654117  0.32244412  1
  H  H23  1  0.49866478  0.97243975  0.32049636  1
  H  H24  1  0.25516876  0.19529756  0.67843460  1
  H  H25  1  0.25044115  0.52986798  0.68260648  1
  H  H26  1  0.24279913  0.86136758  0.67990045  1
  H  H27  1  0.74453575  0.19506850  0.68249434  1
  H  H28  1  0.75004818  0.52881302  0.68087041  1
  H  H29  1  0.75937673  0.86171893  0.67779680  1
  H  H30  1  0.24854856  0.13389222  0.17304049  1
  H  H31  1  0.26408971  0.47261558  0.17766470  1
  H  H32  1  0.24516604  0.80371511  0.17754662  1
  H  H33  1  0.75215448  0.14800606  0.17382481  1
  H  H34  1  0.73949124  0.46706167  0.17979463  1
  H  H35  1  0.75362660  0.80463215  0.17568259  1
  H  H36  1  0.26111590  0.19826822  0.81965227  1
  H  H37  1  0.25634383  0.52901966  0.82301694  1
  H  H38  1  0.25891715  0.86184887  0.82191271  1
  H  H39  1  0.74075832  0.19911583  0.82217119  1
  H  H40  1  0.74161363  0.52824251  0.82342578  1
  H  H41  1  0.75295968  0.86379040  0.82101486  1
  H  H42  1  0.25910862  0.13660629  0.32065585  1
  H  H43  1  0.23945730  0.46864892  0.32102209  1
  H  H44  1  0.24595584  0.80298163  0.32377003  1
  H  H45  1  0.75404313  0.13577603  0.32025701  1
  H  H46  1  0.75544554  0.46942632  0.32237402  1
  H  H47  1  0.74776823  0.80369503  0.32014601  1
  H  H48  1  0.12517170  0.05071017  0.62407395  1
  H  H49  1  0.11612551  0.38880478  0.60075716  1
  H  H50  1  0.12392277  0.72040661  0.61629325  1
  H  H51  1  0.63222619  0.05139430  0.61797014  1
  H  H52  1  0.62120154  0.38857118  0.60823892  1
  H  H53  1  0.62086049  0.72196150  0.60383177  1
  H  H54  1  0.38099656  0.27676997  0.10217418  1
  H  H55  1  0.36862682  0.61706002  0.12513842  1
  H  H56  1  0.38391548  0.94241719  0.09416815  1
  H  H57  1  0.87827078  0.28081146  0.10873512  1
  H  H58  1  0.86998176  0.61497684  0.11398397  1
  H  H59  1  0.87704212  0.94546255  0.10973437  1
  H  H60  1  0.37317079  0.05339530  0.87739799  1
  H  H61  1  0.38605257  0.38786054  0.89260092  1
  H  H62  1  0.37962028  0.72474385  0.90105734  1
  H  H63  1  0.88088703  0.05582228  0.90106661  1
  H  H64  1  0.88159356  0.38902234  0.89741921  1
  H  H65  1  0.88195446  0.72713279  0.90531636  1
  H  H66  1  0.12288088  0.27806262  0.39244472  1
  H  H67  1  0.12362421  0.61405133  0.38618057  1
  H  H68  1  0.11420620  0.94236063  0.40964929  1
  H  H69  1  0.61845646  0.27854593  0.40184721  1
  H  H70  1  0.62479247  0.61532007  0.39199234  1
  H  H71  1  0.62170942  0.94596456  0.39290224  1
  H  H72  1  0.38096353  0.21945248  0.61024444  1
  H  H73  1  0.37463954  0.55583094  0.61148160  1
  H  H74  1  0.37907827  0.88377022  0.62357160  1
  H  H75  1  0.87803490  0.21414115  0.62185053  1
  H  H76  1  0.87315720  0.55310069  0.60767480  1
  H  H77  1  0.87921643  0.89113033  0.60366538  1
  H  H78  1  0.12514420  0.11181658  0.10424973  1
  H  H79  1  0.12304868  0.45376755  0.12575317  1
  H  H80  1  0.11861217  0.77833919  0.10858753  1
  H  H81  1  0.62734030  0.11436812  0.10845352  1
  H  H82  1  0.62472282  0.44267640  0.10007235  1
  H  H83  1  0.62289789  0.77983628  0.11191875  1
  H  H84  1  0.11946163  0.21371780  0.87133633  1
  H  H85  1  0.13410877  0.55539983  0.89537248  1
  H  H86  1  0.12004911  0.88294826  0.87690059  1
  H  H87  1  0.62687114  0.22460208  0.90241831  1
  H  H88  1  0.63912257  0.55849409  0.90888244  1
  H  H89  1  0.61981523  0.88695935  0.88230907  1
  H  H90  1  0.37170077  0.10866425  0.39956615  1
  H  H91  1  0.38071636  0.44891707  0.37346037  1
  H  H92  1  0.37602196  0.77946166  0.38834175  1
  H  H93  1  0.86696249  0.11031938  0.40107156  1
  H  H94  1  0.87652115  0.44660644  0.39410194  1
  H  H95  1  0.87303609  0.77924339  0.39046126  1
  H  H96  1  0.37202948  0.28341978  0.37402435  1
  H  H97  1  0.37634700  0.61146324  0.39294357  1
  H  H98  1  0.37359133  0.94739558  0.39028157  1
  H  H99  1  0.87466005  0.28140239  0.39054660  1
  H  H100  1  0.87399284  0.61407482  0.38625133  1
  H  H101  1  0.87111963  0.95194128  0.37493438  1
  H  H102  1  0.12828257  0.05053186  0.87858877  1
  H  H103  1  0.13020090  0.38511441  0.88443186  1
  H  H104  1  0.12820844  0.71660234  0.88138495  1
  H  H105  1  0.61900129  0.06045053  0.90736447  1
  H  H106  1  0.63537335  0.38525001  0.88506815  1
  H  H107  1  0.62661803  0.71919052  0.88309605  1
  H  H108  1  0.12747055  0.27953094  0.11047268  1
  H  H109  1  0.11708336  0.60852567  0.09621094  1
  H  H110  1  0.12617181  0.94874500  0.11047976  1
  H  H111  1  0.62955484  0.28209284  0.11748088  1
  H  H112  1  0.61175090  0.60669347  0.09000918  1
  H  H113  1  0.62993278  0.94846736  0.12598082  1
  H  H114  1  0.38404389  0.05693164  0.59847254  1
  H  H115  1  0.37202298  0.38914473  0.60620091  1
  H  H116  1  0.37245200  0.71891560  0.61862521  1
  H  H117  1  0.88036174  0.05876512  0.59272679  1
  H  H118  1  0.86970979  0.38168629  0.62755896  1
  H  H119  1  0.87469445  0.72206316  0.60426597  1
  H  H120  1  0.12398374  0.11566305  0.38180556  1
  H  H121  1  0.13535069  0.44297480  0.40579726  1
  H  H122  1  0.12738726  0.77527935  0.39682996  1
  H  H123  1  0.61923760  0.11376555  0.38026256  1
  H  H124  1  0.62816657  0.44812433  0.38784264  1
  H  H125  1  0.62433815  0.77870320  0.38967789  1
  H  H126  1  0.36472755  0.22189555  0.90458256  1
  H  H127  1  0.38270889  0.55571302  0.89213120  1
  H  H128  1  0.36457316  0.89348392  0.90592310  1
  H  H129  1  0.87431990  0.22017408  0.88234791  1
  H  H130  1  0.88329208  0.54951366  0.87296348  1
  H  H131  1  0.86760424  0.88967587  0.90008687  1
  H  H132  1  0.37330134  0.11136763  0.10559912  1
  H  H133  1  0.36568007  0.44019147  0.09132352  1
  H  H134  1  0.36714656  0.77777119  0.10517863  1
  H  H135  1  0.87584871  0.11129535  0.10908359  1
  H  H136  1  0.87222864  0.44812386  0.11552737  1
  H  H137  1  0.87127394  0.77720348  0.10133158  1
  H  H138  1  0.13203117  0.22040113  0.60627580  1
  H  H139  1  0.12651105  0.55495855  0.61015889  1
  H  H140  1  0.13203163  0.89281976  0.59997654  1
  H  H141  1  0.62965898  0.22038865  0.60617369  1
  H  H142  1  0.62492799  0.55286411  0.60934954  1
  H  H143  1  0.63121672  0.88658157  0.61142407  1
  H  H144  1  0.68922456  0.24952598  0.49752052  1
  H  H145  1  0.08858767  0.74372220  0.50859402  1
  H  H146  1  0.53137653  0.58116074  -0.00744272  1
  H  H147  1  0.55081562  0.24910790  0.50749982  1
  H  H148  1  0.45733034  0.91968160  -0.00593172  1
  H  H149  1  0.09706615  0.41404996  -0.00209828  1
  H  H150  1  0.71688737  0.58470497  1.00730929  1
  H  H151  1  0.03286311  0.91921261  0.50777808  1
  H  H152  1  0.84956516  0.24450882  0.50977201  1
  H  H153  1  0.94655783  0.07909063  1.01032514  1
  H  H154  1  0.28434916  0.41899961  -0.00744729  1
  H  H155  1  0.57615592  0.57339299  0.48978620  1
  H  H156  1  0.44696702  0.75031791  1.00271605  1
  H  H157  1  0.19955517  0.91688506  0.49826390  1
  H  H158  1  0.91693769  0.58195816  0.49574308  1
  H  H159  1  0.44529149  0.24822499  -0.00375604  1
  H  H160  1  0.10924256  0.08140377  0.50914057  1
  H  H161  1  0.42831984  0.59866571  0.49852867  1
  H  H162  1  0.33940357  0.74767807  0.49405229  1
  H  H163  1  0.20911969  0.41598715  0.50973555  1
  H  H164  1  0.56824803  0.91673975  0.49597651  1
  H  H165  1  0.68730753  0.09671328  0.00166812  1
  H  H166  1  0.56469399  0.74914021  0.49463359  1
  H  H167  1  0.36416634  0.42223739  0.48307514  1
  H  H168  1  0.92091948  0.25071277  -0.00155616  1
  H  H169  1  0.57692075  0.41775108  0.50325709  1
  H  H170  1  0.35358122  0.91821059  0.51188263  1
  H  H171  1  0.88550905  0.41241738  0.51456744  1
  H  H172  1  0.06824322  0.24485314  0.49481677  1
  H  H173  1  0.08946072  0.24699618  0.00052157  1
  H  H174  1  0.29108352  0.24658999  1.00988692  1
  H  H175  1  0.16509298  0.75053762  0.00402474  1
  H  H176  1  0.54391782  0.08479100  1.00781730  1
  H  H177  1  0.93045200  0.74978344  0.49608042  1
  H  H178  1  0.38876151  0.25209217  0.48744896  1
  H  H179  1  0.33597496  0.58349523  0.99667410  1
  H  H180  1  0.66142942  0.74983712  0.00565103  1
  H  H181  1  0.08104881  0.58339962  0.49609993  1
  H  H182  1  0.61253952  0.91789714  0.01224560  1
  H  H183  1  0.43960691  0.41406259  1.00424190  1
  H  H184  1  0.82301273  0.91914335  0.50172433  1
  H  H185  1  0.89898882  0.58524614  0.00454151  1
  H  H186  1  0.28750587  0.92037354  1.00435608  1
  H  H187  1  0.04859268  0.41666911  0.49464426  1
  H  H188  1  0.08346082  0.91989332  -0.00126425  1
  H  H189  1  0.81722247  0.09098481  0.00280451  1
  H  H190  1  0.60582830  0.08194100  0.50341618  1
  H  H191  1  0.83371399  0.41519943  0.01011783  1
  Pb  Pb192  1  0.25309171  0.04659441  0.74173021  1
  Pb  Pb193  1  0.25365242  0.38067992  0.74943498  1
  Pb  Pb194  1  0.24749485  0.71589870  0.75208255  1
  Pb  Pb195  1  0.74865299  0.04867558  0.75835975  1
  Pb  Pb196  1  0.75160432  0.37900529  0.75556423  1
  Pb  Pb197  1  0.75547522  0.71492251  0.75424003  1
  Pb  Pb198  1  0.24397935  0.28397472  0.24744131  1
  Pb  Pb199  1  0.24705502  0.62066403  0.24830900  1
  Pb  Pb200  1  0.24599092  0.95124927  0.25022366  1
  Pb  Pb201  1  0.74898850  0.28749657  0.25644638  1
  Pb  Pb202  1  0.74231215  0.61774921  0.24437349  1
  Pb  Pb203  1  0.74720125  0.95340690  0.25414630  1
  Pb  Pb204  1  0.00195808  0.21342155  0.74454371  1
  Pb  Pb205  1  0.00310960  0.54625057  0.74863348  1
  Pb  Pb206  1  -0.00370235  0.88295186  0.74637932  1
  Pb  Pb207  1  0.50037533  0.21331030  0.75515048  1
  Pb  Pb208  1  0.50582383  0.55096124  0.75118716  1
  Pb  Pb209  1  0.50108165  0.88056382  0.75392170  1
  Pb  Pb210  1  -0.00377193  0.11922890  0.25237671  1
  Pb  Pb211  1  -0.00125193  0.45462063  0.25678398  1
  Pb  Pb212  1  -0.00589918  0.78447511  0.25280916  1
  Pb  Pb213  1  0.49777202  0.11986864  0.24714097  1
  Pb  Pb214  1  0.49394731  0.45046499  0.24352248  1
  Pb  Pb215  1  0.49722946  0.78697132  0.24552910  1
  C  C216  1  -0.00164315  0.04792898  0.62883466  1
  C  C217  1  -0.00263432  0.37799082  0.63471609  1
  C  C218  1  -0.00255283  0.71275365  0.63222149  1
  C  C219  1  0.50569138  0.04670777  0.62918770  1
  C  C220  1  0.49649512  0.38017829  0.62916661  1
  C  C221  1  0.49989067  0.71291985  0.63199734  1
  C  C222  1  0.00268085  0.28777851  0.13039092  1
  C  C223  1  -0.00363364  0.62165979  0.12695902  1
  C  C224  1  0.00209222  0.95418051  0.13152969  1
  C  C225  1  0.50220546  0.28742843  0.13321500  1
  C  C226  1  0.49682013  0.62056871  0.13057604  1
  C  C227  1  0.50160470  0.95535722  0.13116725  1
  C  C228  1  0.00007163  0.04646577  0.86859216  1
  C  C229  1  0.00460351  0.37923531  0.86976209  1
  C  C230  1  0.00058910  0.71274268  0.87084957  1
  C  C231  1  0.50168503  0.04705858  0.87068302  1
  C  C232  1  0.50871331  0.37914588  0.86743670  1
  C  C233  1  0.49962766  0.71323945  0.86863050  1
  C  C234  1  -0.00047817  0.28708022  0.36708375  1
  C  C235  1  -0.00117299  0.62095260  0.36502872  1
  C  C236  1  -0.00075012  0.95649083  0.36935248  1
  C  C237  1  0.49949319  0.28756676  0.36744887  1
  C  C238  1  0.50020119  0.62075181  0.37000061  1
  C  C239  1  0.49822177  0.95547948  0.36752562  1
  C  C240  1  0.25581743  0.21166850  0.63139192  1
  C  C241  1  0.25046931  0.54622960  0.63528587  1
  C  C242  1  0.25105709  0.87774654  0.63288885  1
  C  C243  1  0.75110561  0.20989062  0.63486655  1
  C  C244  1  0.74935701  0.54384166  0.63312915  1
  C  C245  1  0.75704589  0.87882014  0.63091595  1
  C  C246  1  0.24902646  0.11899232  0.12543754  1
  C  C247  1  0.25151038  0.45649579  0.13131202  1
  C  C248  1  0.24339358  0.78706913  0.13041683  1
  C  C249  1  0.75180957  0.12657519  0.12870509  1
  C  C250  1  0.74572067  0.45228168  0.13224821  1
  C  C251  1  0.74871642  0.78777901  0.12886316  1
  C  C252  1  0.24855627  0.21144524  0.86697887  1
  C  C253  1  0.25825027  0.54644157  0.86979379  1
  C  C254  1  0.24821774  0.87807626  0.86851537  1
  C  C255  1  0.74706371  0.21443867  0.86932787  1
  C  C256  1  0.75450679  0.54440847  0.86971312  1
  C  C257  1  0.74689764  0.87998372  0.86792174  1
  C  C258  1  0.25128867  0.12082042  0.36751231  1
  C  C259  1  0.25263046  0.45395075  0.36798633  1
  C  C260  1  0.25029316  0.78640651  0.37078423  1
  C  C261  1  0.74691436  0.12043966  0.36735777  1
  C  C262  1  0.75334840  0.45478590  0.37006527  1
  C  C263  1  0.74875150  0.78770853  0.36726410  1
  C  C264  1  0.82057201  0.57283104  0.95355093  1
  C  C265  1  0.29064549  0.09121793  0.03363071  1
  C  C266  1  0.96118800  0.92808390  0.03836162  1
  C  C267  1  0.05986808  0.07284522  0.54140279  1
  C  C268  1  0.04252208  0.92892841  0.03691418  1
  C  C269  1  0.79059827  0.42772024  0.46388616  1
  C  C270  1  0.20933936  0.09150692  0.03304951  1
  C  C271  1  0.02370181  0.58891012  0.03220616  1
  C  C272  1  0.79789346  0.24168757  0.95843324  1
  C  C273  1  0.56348888  0.92618511  0.04631119  1
  C  C274  1  0.30825913  0.90788171  0.54660234  1
  C  C275  1  0.80426523  0.23487126  0.54470848  1
  C  C276  1  0.71121382  0.75716561  0.45905959  1
  C  C277  1  0.69772484  0.90741532  0.95740079  1
  C  C278  1  0.04004554  0.59391263  0.45843177  1
  C  C279  1  0.95781178  0.59358017  0.45835872  1
  C  C280  1  0.44614658  0.73651143  0.54150180  1
  C  C281  1  0.01789239  0.40525805  0.53747441  1
  C  C282  1  0.43883690  0.26162506  0.45485372  1
  C  C283  1  0.47576373  0.40431330  0.96347934  1
  C  C284  1  0.18256867  0.23256956  0.95289493  1
  C  C285  1  0.04538397  0.25925834  0.03759154  1
  C  C286  1  0.29617745  0.24016963  0.53933631  1
  C  C287  1  0.97933658  0.07537212  0.53180857  1
  C  C288  1  0.52779443  0.73849465  0.53506104  1
  C  C289  1  0.23638618  0.42678919  0.46526910  1
  C  C290  1  0.27520326  0.09012238  0.46202564  1
  C  C291  1  0.97141245  0.40633512  0.96466182  1
  C  C292  1  0.47737077  0.07466531  0.53378219  1
  C  C293  1  0.55712044  0.40372736  0.95886135  1
  C  C294  1  0.78235028  0.75603978  0.03473592  1
  C  C295  1  0.96574784  0.73982675  0.53720636  1
  C  C296  1  0.43906978  0.07708132  0.95621794  1
  C  C297  1  0.93662111  0.40286068  0.54704910  1
  C  C298  1  0.69578244  0.09301474  0.45613808  1
  C  C299  1  0.26219988  0.23625372  0.96600826  1
  C  C300  1  0.05283127  0.40471622  0.96188457  1
  C  C301  1  0.52009765  0.26044245  0.46468311  1
  C  C302  1  0.72256825  0.23744922  0.53896812  1
  C  C303  1  0.70822696  0.42837706  0.46175784  1
  C  C304  1  0.47797078  0.25960768  0.03835683  1
  C  C305  1  0.98141355  0.74664747  0.96491992  1
  C  C306  1  0.96308056  0.26043355  0.03664777  1
  C  C307  1  0.45621814  0.40972621  0.53582536  1
  C  C308  1  0.97767029  0.06984402  0.96702664  1
  C  C309  1  0.05847877  0.06821718  0.95758143  1
  C  C310  1  0.21568858  0.75417606  0.46463915  1
  C  C311  1  0.55870254  0.07281628  0.53863113  1
  N  N312  1  0.51714052  0.07747288  0.96553095  1
  N  N313  1  0.03335034  0.26045865  0.45920777  1
  N  N314  1  0.04527957  0.74002129  0.54275443  1
  N  N315  1  0.28283687  0.75903267  0.03725404  1
  N  N316  1  0.70349677  0.75774429  0.03946571  1
  N  N317  1  0.72079385  0.24310357  0.96617391  1
  N  N318  1  0.94542548  0.59266240  0.03876498  1
  N  N319  1  0.29705953  0.57454807  0.96020937  1
  N  N320  1  0.26175739  0.42665223  0.03679638  1
  N  N321  1  0.74284984  0.57570244  0.96458256  1
  N  N322  1  0.48466566  0.92387371  0.03683257  1
  N  N323  1  0.05836763  0.74268648  0.95856606  1
  N  N324  1  0.70987330  0.56956143  0.53937385  1
  N  N325  1  0.78771068  0.90962961  0.53966138  1
  N  N326  1  0.31445933  0.42810158  0.45281935  1
  N  N327  1  0.18533509  0.43093297  0.04746758  1
  N  N328  1  0.19822082  0.09239831  0.45696678  1
  N  N329  1  0.53230217  0.92790542  0.45926469  1
  N  N330  1  0.77249619  0.09138533  0.46419853  1
  N  N331  1  0.21251679  0.57494505  0.54205968  1
  N  N332  1  0.50763319  0.59052534  0.03626666  1
  N  N333  1  0.21842627  0.24141133  0.53710032  1
  N  N334  1  0.55683773  0.26112869  0.04337912  1
  N  N335  1  0.70983383  0.08331336  0.04399972  1
  N  N336  1  0.79244231  0.42736083  0.04323207  1
  N  N337  1  0.77475596  0.90914984  0.96436467  1
  N  N338  1  0.78660732  0.56991381  0.53905026  1
  N  N339  1  0.47666748  0.74218805  0.96185597  1
  N  N340  1  0.43079354  0.59540821  0.04619550  1
  N  N341  1  0.29483417  0.75674407  0.46062465  1
  N  N342  1  0.28936439  0.57567985  0.54254303  1
  N  N343  1  0.22917519  0.91102245  0.53970768  1
  N  N344  1  0.93316946  0.92977969  0.45337391  1
  N  N345  1  0.70927195  0.90765748  0.54037733  1
  N  N346  1  0.71482345  0.42555333  0.03669709  1
  N  N347  1  0.78897247  0.75729706  0.46052066  1
  N  N348  1  0.18547034  0.90747350  0.95299330  1
  N  N349  1  0.54107153  0.60087921  0.46319871  1
  N  N350  1  0.55470064  0.73924629  0.95749412  1
  N  N351  1  0.95519685  0.26036578  0.45925207  1
  N  N352  1  0.46184053  0.58832755  0.46015720  1
  N  N353  1  0.21890162  0.57405548  0.96308426  1
  N  N354  1  0.20438603  0.75834317  0.04024863  1
  N  N355  1  0.26256889  0.91143962  0.96134111  1
  N  N356  1  0.45407117  0.92814500  0.45976603  1
  N  N357  1  0.53561964  0.40924189  0.53769337  1
  N  N358  1  0.79154099  0.08081239  0.04497014  1
  N  N359  1  0.00998833  0.92599503  0.46353679  1
  N  N360  1  0.07015413  0.05581962  0.60268595  1
  N  N361  1  0.05446664  0.38974383  0.59248525  1
  N  N362  1  0.06446416  0.72175667  0.60077912  1
  N  N363  1  0.57488463  0.05555135  0.59942515  1
  N  N364  1  0.56061394  0.39056645  0.59500406  1
  N  N365  1  0.55996239  0.72346068  0.59263448  1
  N  N366  1  0.44272468  0.27525843  0.09317888  1
  N  N367  1  0.42482440  0.61212697  0.10553182  1
  N  N368  1  0.44664835  0.94500273  0.08813605  1
  N  N369  1  0.93819012  0.27795726  0.09486062  1
  N  N370  1  0.92791985  0.61384546  0.09719222  1
  N  N371  1  0.93688895  0.94315354  0.09528731  1
  N  N372  1  0.42949951  0.05877267  0.89739488  1
  N  N373  1  0.44659537  0.38885619  0.90532231  1
  N  N374  1  0.44157453  0.72480968  0.90873121  1
  N  N375  1  0.94201825  0.05613858  0.91026581  1
  N  N376  1  0.94278828  0.39115836  0.90879167  1
  N  N377  1  0.94374242  0.72853575  0.91250234  1
  N  N378  1  0.06170119  0.27441171  0.40272135  1
  N  N379  1  0.06400938  0.61071952  0.40006360  1
  N  N380  1  0.05171048  0.94464196  0.41366352  1
  N  N381  1  0.55664663  0.27675502  0.40992378  1
  N  N382  1  0.56457536  0.60878249  0.40373704  1
  N  N383  1  0.56050653  0.94402525  0.40349951  1
  N  N384  1  0.32133134  0.22276907  0.59656338  1
  N  N385  1  0.31388913  0.55811251  0.60027856  1
  N  N386  1  0.32206764  0.88847069  0.60474993  1
  N  N387  1  0.82043797  0.21797254  0.60439835  1
  N  N388  1  0.81220696  0.55377052  0.59676975  1
  N  N389  1  0.81819934  0.89099024  0.59385578  1
  N  N390  1  0.18434561  0.10822000  0.08914732  1
  N  N391  1  0.17936631  0.44790248  0.10649170  1
  N  N392  1  0.17910119  0.77648480  0.09610056  1
  N  N393  1  0.68758314  0.11428999  0.09490732  1
  N  N394  1  0.68608281  0.44165939  0.09240653  1
  N  N395  1  0.68206160  0.77785451  0.09733560  1
  N  N396  1  0.17485058  0.21779393  0.89306455  1
  N  N397  1  0.19522970  0.55735536  0.90629198  1
  N  N398  1  0.17721785  0.88838753  0.89471373  1
  N  N399  1  0.68881983  0.22600912  0.90921474  1
  N  N400  1  0.70149684  0.55601558  0.91350848  1
  N  N401  1  0.67781621  0.89048050  0.89869772  1
  N  N402  1  0.31017668  0.10724762  0.40825342  1
  N  N403  1  0.32391545  0.44554351  0.39322001  1
  N  N404  1  0.31648137  0.77702556  0.40304102  1
  N  N405  1  0.80472383  0.10903357  0.40760410  1
  N  N406  1  0.81683636  0.44386236  0.40741304  1
  N  N407  1  0.81241192  0.77664137  0.40196497  1
  N  N408  1  0.42803271  0.27831717  0.39418291  1
  N  N409  1  0.43678595  0.61222795  0.40585527  1
  N  N410  1  0.43359026  0.94513587  0.40228829  1
  N  N411  1  0.93490382  0.27806624  0.40227383  1
  N  N412  1  0.93371132  0.61032315  0.39997787  1
  N  N413  1  0.92729815  0.94693400  0.39410854  1
  N  N414  1  0.07119955  0.05438039  0.89808022  1
  N  N415  1  0.07230881  0.38787453  0.90176291  1
  N  N416  1  0.07027939  0.72119696  0.89856440  1
  N  N417  1  0.55695506  0.05711394  0.91355301  1
  N  N418  1  0.57659234  0.38873827  0.90087430  1
  N  N419  1  0.56811091  0.72284722  0.89875627  1
  N  N420  1  0.06805332  0.27632263  0.09626275  1
  N  N421  1  0.05563093  0.60687955  0.08646420  1
  N  N422  1  0.06698062  0.94523224  0.09636741  1
  N  N423  1  0.57013194  0.27851862  0.10239152  1
  N  N424  1  0.54919918  0.60830136  0.08633781  1
  N  N425  1  0.57370149  0.94398448  0.10546980  1
  N  N426  1  0.44559866  0.05894820  0.58832348  1
  N  N427  1  0.43194649  0.39241454  0.59292012  1
  N  N428  1  0.43033177  0.72154835  0.60052734  1
  N  N429  1  0.94212572  0.06030354  0.58444820  1
  N  N430  1  0.92595540  0.38605358  0.60755228  1
  N  N431  1  0.93578665  0.72416869  0.59316902  1
  N  N432  1  0.18295008  0.11147865  0.39706911  1
  N  N433  1  0.19766209  0.44234070  0.41254897  1
  N  N434  1  0.18804589  0.77258252  0.40887297  1
  N  N435  1  0.67734232  0.11031867  0.39732730  1
  N  N436  1  0.68704977  0.44458334  0.40418139  1
  N  N437  1  0.68417585  0.77557485  0.40296535  1
  N  N438  1  0.30267560  0.22297730  0.91089059  1
  N  N439  1  0.32254450  0.55749903  0.90393888  1
  N  N440  1  0.30227955  0.89088169  0.91132439  1
  N  N441  1  0.81641409  0.22449619  0.89987700  1
  N  N442  1  0.82800990  0.55465449  0.89429395  1
  N  N443  1  0.80557269  0.89143170  0.90732496  1
  N  N444  1  0.31444090  0.10790014  0.09007640  1
  N  N445  1  0.30370432  0.44421864  0.08690925  1
  N  N446  1  0.30628415  0.77572394  0.09414532  1
  N  N447  1  0.81541312  0.11123937  0.09560669  1
  N  N448  1  0.81287886  0.44232153  0.10119373  1
  N  N449  1  0.81052309  0.77430679  0.09009567  1
  N  N450  1  0.19336518  0.22316077  0.59578357  1
  N  N451  1  0.18741195  0.55660369  0.59932220  1
  N  N452  1  0.19391654  0.88939330  0.59199300  1
  N  N453  1  0.69076378  0.22181693  0.59542729  1
  N  N454  1  0.68565336  0.55368931  0.59777782  1
  N  N455  1  0.69114225  0.88936853  0.59774398  1
  Cl  Cl456  1  0.26073017  0.05405632  0.61048197  1
  Cl  Cl457  1  0.24434444  0.38870162  0.61368101  1
  Cl  Cl458  1  0.24709217  0.72481296  0.61675860  1
  Cl  Cl459  1  0.76025415  0.05168193  0.62752110  1
  Cl  Cl460  1  0.74146150  0.38648455  0.62494081  1
  Cl  Cl461  1  0.74963790  0.72084089  0.62293407  1
  Cl  Cl462  1  0.25742811  0.27939739  0.11282423  1
  Cl  Cl463  1  0.24067861  0.61084209  0.11439515  1
  Cl  Cl464  1  0.26293282  0.94064705  0.10772072  1
  Cl  Cl465  1  0.75497101  0.28074087  0.12552121  1
  Cl  Cl466  1  0.73440081  0.60858060  0.10043681  1
  Cl  Cl467  1  0.75459774  0.94663633  0.12514922  1
  Cl  Cl468  1  0.25129515  0.04814624  0.87245567  1
  Cl  Cl469  1  0.26303469  0.39760593  0.89105777  1
  Cl  Cl470  1  0.25678499  0.72239187  0.88577801  1
  Cl  Cl471  1  0.74625689  0.06664275  0.90120781  1
  Cl  Cl472  1  0.76274894  0.38919199  0.88914763  1
  Cl  Cl473  1  0.75444144  0.72208349  0.89126654  1
  Cl  Cl474  1  0.24273829  0.28367300  0.37862934  1
  Cl  Cl475  1  0.25311807  0.61530761  0.37997340  1
  Cl  Cl476  1  0.23864337  0.93964915  0.39644210  1
  Cl  Cl477  1  0.74579115  0.27955282  0.39140294  1
  Cl  Cl478  1  0.74638488  0.61778052  0.37529227  1
  Cl  Cl479  1  0.74282824  0.94483852  0.38914445  1
  Cl  Cl480  1  0.00865147  0.22094021  0.60960410  1
  Cl  Cl481  1  -0.00034198  0.55738728  0.61381247  1
  Cl  Cl482  1  0.00781282  0.89417826  0.60248185  1
  Cl  Cl483  1  0.50554452  0.22142287  0.62105272  1
  Cl  Cl484  1  0.50005576  0.55545680  0.61202192  1
  Cl  Cl485  1  0.50841230  0.88901762  0.62044048  1
  Cl  Cl486  1  -0.00355879  0.10910147  0.11798106  1
  Cl  Cl487  1  -0.00518357  0.45328680  0.12323405  1
  Cl  Cl488  1  -0.00405687  0.77932078  0.11954808  1
  Cl  Cl489  1  0.50560916  0.10719381  0.10852532  1
  Cl  Cl490  1  0.49021168  0.44254321  0.10807911  1
  Cl  Cl491  1  0.49185635  0.77673357  0.10746084  1
  Cl  Cl492  1  -0.00517746  0.21945744  0.87583925  1
  Cl  Cl493  1  0.01084591  0.55608759  0.88214033  1
  Cl  Cl494  1  -0.00808962  0.88594158  0.87852101  1
  Cl  Cl495  1  0.49454162  0.22080187  0.89056288  1
  Cl  Cl496  1  0.51402075  0.55998764  0.89844077  1
  Cl  Cl497  1  0.48635382  0.89479505  0.89654481  1
  Cl  Cl498  1  -0.00703436  0.11322671  0.38553014  1
  Cl  Cl499  1  0.01087587  0.44259541  0.39034491  1
  Cl  Cl500  1  0.00226252  0.77751302  0.39015188  1
  Cl  Cl501  1  0.49425459  0.10902250  0.37878399  1
  Cl  Cl502  1  0.50507129  0.44895671  0.38014034  1
  Cl  Cl503  1  0.50000670  0.77910109  0.37921201  1
  Cl  Cl504  1  0.36064132  0.14849276  0.75040878  1
  Cl  Cl505  1  0.35955615  0.47953057  0.74968355  1
  Cl  Cl506  1  0.36714359  0.81205199  0.74429845  1
  Cl  Cl507  1  0.86474097  0.14694500  0.75334721  1
  Cl  Cl508  1  0.86421043  0.47997685  0.75343688  1
  Cl  Cl509  1  0.85947703  0.81657451  0.74907368  1
  Cl  Cl510  1  0.13790907  0.18594988  0.25069146  1
  Cl  Cl511  1  0.14055185  0.51710790  0.24926705  1
  Cl  Cl512  1  0.14481479  0.85283086  0.25142223  1
  Cl  Cl513  1  0.63595642  0.18702113  0.24985495  1
  Cl  Cl514  1  0.64355320  0.51924729  0.24910058  1
  Cl  Cl515  1  0.63620963  0.85273957  0.24340915  1
  Cl  Cl516  1  0.13849274  0.14507811  0.75037989  1
  Cl  Cl517  1  0.14040301  0.48004958  0.75192088  1
  Cl  Cl518  1  0.14439441  0.81296200  0.75273836  1
  Cl  Cl519  1  0.64388162  0.14651626  0.75200547  1
  Cl  Cl520  1  0.64069773  0.48069850  0.75559836  1
  Cl  Cl521  1  0.63651183  0.81210624  0.75691306  1
  Cl  Cl522  1  0.35889019  0.18512312  0.24920685  1
  Cl  Cl523  1  0.36073094  0.52028588  0.25139997  1
  Cl  Cl524  1  0.36003677  0.85238575  0.25373431  1
  Cl  Cl525  1  0.85705335  0.18454699  0.24961178  1
  Cl  Cl526  1  0.86189012  0.52184505  0.24643311  1
  Cl  Cl527  1  0.85877281  0.85251419  0.25603234  1
  Cl  Cl528  1  0.11169936  0.31458761  0.75545024  1
  Cl  Cl529  1  0.11238385  0.64868997  0.74800096  1
  Cl  Cl530  1  0.11774363  0.97824161  0.74387614  1
  Cl  Cl531  1  0.61026259  0.31541868  0.75272535  1
  Cl  Cl532  1  0.60788636  0.64533676  0.75237290  1
  Cl  Cl533  1  0.61172289  0.98210830  0.75401523  1
  Cl  Cl534  1  0.39162959  0.01605953  0.24989629  1
  Cl  Cl535  1  0.38852180  0.35581302  0.25765355  1
  Cl  Cl536  1  0.38755368  0.68497952  0.24515803  1
  Cl  Cl537  1  0.88701788  0.01766154  0.25380148  1
  Cl  Cl538  1  0.89090994  0.35155962  0.25383308  1
  Cl  Cl539  1  0.89030553  0.68824230  0.24540901  1
  Cl  Cl540  1  0.39085613  0.31468580  0.74699888  1
  Cl  Cl541  1  0.39339554  0.64511484  0.74980258  1
  Cl  Cl542  1  0.39077554  0.98103967  0.74985829  1
  Cl  Cl543  1  0.89003055  0.31352908  0.74603561  1
  Cl  Cl544  1  0.89258080  0.64816536  0.75281215  1
  Cl  Cl545  1  0.89779731  0.98072086  0.74752709  1
  Cl  Cl546  1  0.11091170  0.01908907  0.25297735  1
  Cl  Cl547  1  0.11018169  0.35364762  0.24304516  1
  Cl  Cl548  1  0.10822327  0.68496510  0.25069233  1
  Cl  Cl549  1  0.61243405  0.02133319  0.24477703  1
  Cl  Cl550  1  0.60877190  0.35167280  0.24755850  1
  Cl  Cl551  1  0.60681245  0.68460496  0.24770455  1
