# generated using pymatgen
data_H8PbC4(N3Cl2)2
_symmetry_space_group_name_H-M   'P 1'
_cell_length_a   16.61950567
_cell_length_b   22.49794521
_cell_length_c   21.58695147
_cell_angle_alpha   89.99962130
_cell_angle_beta   90.00552757
_cell_angle_gamma   90.00013516
_symmetry_Int_Tables_number   1
_chemical_formula_structural   H8PbC4(N3Cl2)2
_chemical_formula_sum   'H192 Pb24 C96 N144 Cl96'
_cell_volume   8071.46317977
_cell_formula_units_Z   24
loop_
 _symmetry_equiv_pos_site_id
 _symmetry_equiv_pos_as_xyz
  1  'x, y, z'
loop_
 _atom_site_type_symbol
 _atom_site_label
 _atom_site_symmetry_multiplicity
 _atom_site_fract_x
 _atom_site_fract_y
 _atom_site_fract_z
 _atom_site_occupancy
  H  H0  1  0.00014814  0.03215881  0.68060582  1
  H  H1  1  -0.00023158  0.36607644  0.68233273  1
  H  H2  1  0.00023505  0.69951124  0.67946453  1
  H  H3  1  0.50447513  0.03358251  0.67895367  1
  H  H4  1  0.50036664  0.36673523  0.68254729  1
  H  H5  1  0.49721764  0.69868844  0.68226790  1
  H  H6  1  -0.00284439  0.30062129  0.17892942  1
  H  H7  1  -0.00856627  0.63358797  0.18219687  1
  H  H8  1  -0.00539209  0.96709511  0.18237425  1
  H  H9  1  0.50265711  0.30043465  0.18200390  1
  H  H10  1  0.50591959  0.63343020  0.18147553  1
  H  H11  1  0.50840798  0.96746003  0.18350493  1
  H  H12  1  0.00204908  0.03387642  0.81863062  1
  H  H13  1  0.00631493  0.36583119  0.82113465  1
  H  H14  1  -0.00442703  0.70020470  0.81898341  1
  H  H15  1  0.49682533  0.03279480  0.81700929  1
  H  H16  1  0.50253888  0.36685576  0.81992183  1
  H  H17  1  0.49745417  0.70023396  0.81694643  1
  H  H18  1  -0.00190465  0.30009841  0.31782158  1
  H  H19  1  -0.00291124  0.63372589  0.31675656  1
  H  H20  1  -0.00101683  0.96584953  0.32179762  1
  H  H21  1  0.49747460  0.30029866  0.31957347  1
  H  H22  1  0.50366661  0.63340579  0.32021689  1
  H  H23  1  0.50317064  0.96684430  0.31855413  1
  H  H24  1  0.25352160  0.19941393  0.68229233  1
  H  H25  1  0.24970469  0.53292050  0.68104301  1
  H  H26  1  0.24484834  0.86601200  0.68060743  1
  H  H27  1  0.75444362  0.20013816  0.68023045  1
  H  H28  1  0.75285563  0.53230969  0.68094561  1
  H  H29  1  0.74824378  0.86664904  0.68217948  1
  H  H30  1  0.24441734  0.13361712  0.18075375  1
  H  H31  1  0.24845527  0.46749833  0.18012294  1
  H  H32  1  0.25246272  0.80071839  0.18115723  1
  H  H33  1  0.74719211  0.13438002  0.18384385  1
  H  H34  1  0.74856578  0.46579071  0.17880336  1
  H  H35  1  0.75168503  0.80000053  0.18096065  1
  H  H36  1  0.25330959  0.19898158  0.82005796  1
  H  H37  1  0.25214334  0.53205685  0.82010818  1
  H  H38  1  0.24732580  0.86718350  0.81849239  1
  H  H39  1  0.74660359  0.19970662  0.81724545  1
  H  H40  1  0.75110813  0.53109247  0.81779143  1
  H  H41  1  0.74968753  0.86679410  0.81764408  1
  H  H42  1  0.24968918  0.13346442  0.32046302  1
  H  H43  1  0.25270330  0.46749244  0.31790617  1
  H  H44  1  0.24933812  0.80138280  0.31930936  1
  H  H45  1  0.74929903  0.13249502  0.31919966  1
  H  H46  1  0.74995702  0.46744602  0.32003727  1
  H  H47  1  0.74884469  0.80036120  0.32052175  1
  H  H48  1  0.12626089  0.05245177  0.61142231  1
  H  H49  1  0.12314283  0.38704621  0.61127578  1
  H  H50  1  0.12470114  0.72147299  0.60831322  1
  H  H51  1  0.62304294  0.05674142  0.60334035  1
  H  H52  1  0.62488344  0.38781034  0.60992495  1
  H  H53  1  0.62464602  0.72005221  0.61306340  1
  H  H54  1  0.37123931  0.28174196  0.11929566  1
  H  H55  1  0.37295881  0.61347521  0.11803220  1
  H  H56  1  0.37388676  0.94905632  0.11998707  1
  H  H57  1  0.87710036  0.27898338  0.10448574  1
  H  H58  1  0.87968450  0.60995091  0.10166982  1
  H  H59  1  0.87846659  0.94412531  0.10411245  1
  H  H60  1  0.37400802  0.05409299  0.88970998  1
  H  H61  1  0.37483299  0.38576433  0.88561538  1
  H  H62  1  0.38013970  0.72190553  0.89387775  1
  H  H63  1  0.87725323  0.05357550  0.88708508  1
  H  H64  1  0.87293889  0.38559727  0.88378955  1
  H  H65  1  0.88184333  0.72379575  0.89945586  1
  H  H66  1  0.12772283  0.28024497  0.38347941  1
  H  H67  1  0.12694822  0.61511419  0.38148626  1
  H  H68  1  0.12373392  0.94711987  0.39059029  1
  H  H69  1  0.63224489  0.28135798  0.38133092  1
  H  H70  1  0.62129660  0.60970506  0.39749205  1
  H  H71  1  0.62029960  0.94579799  0.39481887  1
  H  H72  1  0.36955251  0.22246261  0.60275869  1
  H  H73  1  0.37671531  0.55395411  0.61113649  1
  H  H74  1  0.37665282  0.88704428  0.61387521  1
  H  H75  1  0.86425329  0.22250143  0.59951676  1
  H  H76  1  0.87070066  0.55704673  0.60360859  1
  H  H77  1  0.87859635  0.88623196  0.61402738  1
  H  H78  1  0.12590429  0.11199100  0.10467631  1
  H  H79  1  0.12837924  0.44392116  0.10498955  1
  H  H80  1  0.12105290  0.78203087  0.11693531  1
  H  H81  1  0.62488664  0.11243119  0.11108973  1
  H  H82  1  0.62832435  0.44365534  0.10444315  1
  H  H83  1  0.62065980  0.77971963  0.11643456  1
  H  H84  1  0.12675168  0.22021833  0.88981132  1
  H  H85  1  0.12442150  0.55333403  0.88941451  1
  H  H86  1  0.12372412  0.88742298  0.89048701  1
  H  H87  1  0.62859805  0.22268698  0.89344070  1
  H  H88  1  0.62624876  0.55395754  0.88933519  1
  H  H89  1  0.62460786  0.88648498  0.88759821  1
  H  H90  1  0.37491543  0.11186157  0.38981862  1
  H  H91  1  0.37672245  0.44621774  0.39100208  1
  H  H92  1  0.37236335  0.77792184  0.39174338  1
  H  H93  1  0.87405791  0.11215751  0.38762481  1
  H  H94  1  0.87472193  0.44512492  0.38981123  1
  H  H95  1  0.87481408  0.77802104  0.38922079  1
  H  H96  1  0.38372731  0.27736246  0.39886729  1
  H  H97  1  0.37307646  0.61409445  0.38470099  1
  H  H98  1  0.37083238  0.94774254  0.38332530  1
  H  H99  1  0.87831812  0.27818976  0.39363369  1
  H  H100  1  0.87742657  0.61233125  0.39070512  1
  H  H101  1  0.87468387  0.94667301  0.39100305  1
  H  H102  1  0.12671226  0.05332619  0.88969413  1
  H  H103  1  0.12098141  0.38988815  0.89946480  1
  H  H104  1  0.13002646  0.71979204  0.87950069  1
  H  H105  1  0.62336544  0.05337884  0.88746842  1
  H  H106  1  0.62408666  0.38855529  0.89301543  1
  H  H107  1  0.62893012  0.72040173  0.88370905  1
  H  H108  1  0.12590074  0.28044838  0.11199207  1
  H  H109  1  0.12710371  0.61456730  0.12094750  1
  H  H110  1  0.12729414  0.94878607  0.11664596  1
  H  H111  1  0.62024169  0.28001855  0.10602507  1
  H  H112  1  0.62078308  0.60995646  0.10066404  1
  H  H113  1  0.62206002  0.94368596  0.10413207  1
  H  H114  1  0.37423750  0.05417247  0.61326464  1
  H  H115  1  0.37622724  0.38825267  0.60919063  1
  H  H116  1  0.37556795  0.72052086  0.60882791  1
  H  H117  1  0.87739825  0.05437092  0.60695190  1
  H  H118  1  0.87353561  0.38666633  0.61436139  1
  H  H119  1  0.87521952  0.72157904  0.60977879  1
  H  H120  1  0.12560023  0.11105764  0.39174136  1
  H  H121  1  0.12814019  0.44598910  0.38922180  1
  H  H122  1  0.12372556  0.78106663  0.38859179  1
  H  H123  1  0.62451388  0.11333902  0.39055822  1
  H  H124  1  0.62533259  0.44684118  0.39148560  1
  H  H125  1  0.62641591  0.78017057  0.39357562  1
  H  H126  1  0.37561234  0.22204777  0.89211962  1
  H  H127  1  0.37258271  0.55460273  0.89542699  1
  H  H128  1  0.37297542  0.88695955  0.88593378  1
  H  H129  1  0.87762047  0.21997395  0.88439131  1
  H  H130  1  0.87634314  0.55272931  0.88697982  1
  H  H131  1  0.87496505  0.88708319  0.88937572  1
  H  H132  1  0.37470085  0.11378341  0.11389020  1
  H  H133  1  0.37708426  0.44702237  0.11330797  1
  H  H134  1  0.37016926  0.77687593  0.10425889  1
  H  H135  1  0.87425754  0.11416139  0.11306564  1
  H  H136  1  0.87755144  0.44529749  0.11187211  1
  H  H137  1  0.86972758  0.77674405  0.10402487  1
  H  H138  1  0.12184626  0.21867106  0.61730582  1
  H  H139  1  0.12860242  0.55524886  0.60666365  1
  H  H140  1  0.12856862  0.88910692  0.60151246  1
  H  H141  1  0.61668498  0.21663873  0.62329473  1
  H  H142  1  0.62254015  0.55283925  0.61502209  1
  H  H143  1  0.62940738  0.88960744  0.60671701  1
  H  H144  1  0.94906390  0.74909283  1.00240678  1
  H  H145  1  0.79835585  0.24857210  0.49174821  1
  H  H146  1  0.94268755  0.92071802  -0.00466873  1
  H  H147  1  0.56485037  0.25445797  -0.00397283  1
  H  H148  1  0.83629570  0.41650906  0.00570757  1
  H  H149  1  0.60607002  0.25116805  0.49002288  1
  H  H150  1  0.56263020  0.92012180  0.50479175  1
  H  H151  1  0.91265389  0.41485592  0.50297823  1
  H  H152  1  0.41208063  0.08153513  0.50630396  1
  H  H153  1  0.09034000  0.25217087  0.49525859  1
  H  H154  1  0.67740742  0.57524241  0.99618016  1
  H  H155  1  0.67661088  0.08532205  0.00218824  1
  H  H156  1  0.82492718  0.91587900  0.99482720  1
  H  H157  1  0.55206056  0.58581093  -0.00165185  1
  H  H158  1  0.80786309  0.75029786  -0.00049284  1
  H  H159  1  0.92067572  0.08304212  0.99929217  1
  H  H160  1  0.67156452  0.91185801  1.00021629  1
  H  H161  1  0.32390786  0.41915664  0.49522831  1
  H  H162  1  0.44060782  0.74671849  1.00265405  1
  H  H163  1  0.82984460  0.57855733  0.99939111  1
  H  H164  1  0.41134341  0.41483542  0.99886217  1
  H  H165  1  0.31042354  0.75436113  -0.00057597  1
  H  H166  1  0.68830948  0.24923123  1.00187348  1
  H  H167  1  0.33135345  0.91650452  0.99856488  1
  H  H168  1  0.55674921  0.91935232  -0.00344733  1
  H  H169  1  0.93461724  0.25204934  0.49805282  1
  H  H170  1  0.30384027  0.24885340  0.50020461  1
  H  H171  1  0.17397508  0.08174011  0.49601333  1
  H  H172  1  0.17005494  0.57952951  0.99509071  1
  H  H173  1  0.80690106  0.58027767  0.49959695  1
  H  H174  1  0.44707088  0.25157608  0.50673576  1
  H  H175  1  0.42824626  0.74784305  0.50041711  1
  H  H176  1  0.67432524  0.41856739  0.49635906  1
  H  H177  1  0.07669543  0.75134120  0.50397720  1
  H  H178  1  0.15351109  0.75300418  0.00468393  1
  H  H179  1  0.08411049  0.25079876  0.00594592  1
  H  H180  1  0.40674537  0.91854655  0.48958528  1
  H  H181  1  0.93057368  0.58555657  0.50135237  1
  H  H182  1  0.67854170  0.74290224  0.49224760  1
  H  H183  1  0.83084786  0.76054057  0.49499160  1
  H  H184  1  0.42514332  0.08185853  0.99840255  1
  H  H185  1  0.68791533  0.91666503  0.49800837  1
  H  H186  1  0.83052061  0.08392082  0.50005433  1
  H  H187  1  0.94680632  0.58376570  -0.00489425  1
  H  H188  1  0.33202622  0.58186288  0.50603709  1
  H  H189  1  0.09229168  0.58719138  0.49374583  1
  H  H190  1  0.07765705  0.41555692  0.50126301  1
  H  H191  1  0.40096536  0.25385843  0.00651646  1
  Pb  Pb192  1  0.24723457  0.04793565  0.74733414  1
  Pb  Pb193  1  0.24898135  0.37949360  0.74945397  1
  Pb  Pb194  1  0.25324731  0.71614944  0.75272154  1
  Pb  Pb195  1  0.75074961  0.04832861  0.74906686  1
  Pb  Pb196  1  0.74889249  0.38236001  0.75031291  1
  Pb  Pb197  1  0.75104897  0.71429142  0.75002480  1
  Pb  Pb198  1  0.25063154  0.28561101  0.25440339  1
  Pb  Pb199  1  0.25163805  0.61916111  0.25099691  1
  Pb  Pb200  1  0.24937697  0.95423321  0.24905661  1
  Pb  Pb201  1  0.75251820  0.28557980  0.24787046  1
  Pb  Pb202  1  0.74873582  0.61699613  0.24922137  1
  Pb  Pb203  1  0.74950987  0.95145893  0.24661002  1
  Pb  Pb204  1  -0.00182207  0.21500482  0.74825493  1
  Pb  Pb205  1  0.00401460  0.54821501  0.74789018  1
  Pb  Pb206  1  -0.00013663  0.88095539  0.75061779  1
  Pb  Pb207  1  0.49712003  0.21404431  0.75154676  1
  Pb  Pb208  1  0.49664524  0.54752012  0.75463867  1
  Pb  Pb209  1  0.50040826  0.88324012  0.74719159  1
  Pb  Pb210  1  0.00107888  0.11839162  0.24962935  1
  Pb  Pb211  1  0.00206482  0.45232942  0.25022507  1
  Pb  Pb212  1  0.00028019  0.78550753  0.24997627  1
  Pb  Pb213  1  0.49895018  0.11935777  0.25107938  1
  Pb  Pb214  1  0.50033504  0.45185998  0.24963378  1
  Pb  Pb215  1  0.49775964  0.78588418  0.25088337  1
  C  C216  1  0.00098118  0.04627209  0.63279974  1
  C  C217  1  -0.00118890  0.38018077  0.63419536  1
  C  C218  1  0.00041071  0.71427169  0.63168612  1
  C  C219  1  0.50006901  0.04783106  0.63116701  1
  C  C220  1  0.50043866  0.38068139  0.63446717  1
  C  C221  1  0.49933845  0.71341684  0.63455755  1
  C  C222  1  0.00038724  0.28623217  0.13113798  1
  C  C223  1  -0.00030485  0.61924996  0.13463638  1
  C  C224  1  0.00025865  0.95316119  0.13445195  1
  C  C225  1  0.49785531  0.28641667  0.13397693  1
  C  C226  1  0.50021221  0.61915580  0.13369484  1
  C  C227  1  0.50125547  0.95315098  0.13583152  1
  C  C228  1  0.00148676  0.04732406  0.86677015  1
  C  C229  1  -0.00028475  0.38028890  0.86859519  1
  C  C230  1  0.00227181  0.71405097  0.86684435  1
  C  C231  1  0.49818503  0.04721452  0.86491532  1
  C  C232  1  0.49993908  0.38084136  0.86788530  1
  C  C233  1  0.50257196  0.71416067  0.86484952  1
  C  C234  1  0.00120478  0.28574813  0.36588108  1
  C  C235  1  0.00068430  0.61987576  0.36485370  1
  C  C236  1  -0.00085111  0.95253117  0.37024875  1
  C  C237  1  0.50522177  0.28564128  0.36721956  1
  C  C238  1  0.49957995  0.61910859  0.36785342  1
  C  C239  1  0.49748383  0.95258818  0.36648280  1
  C  C240  1  0.24850496  0.21365141  0.63446179  1
  C  C241  1  0.25201038  0.54726247  0.63312462  1
  C  C242  1  0.25021193  0.88052707  0.63282823  1
  C  C243  1  0.74522165  0.21346317  0.63246914  1
  C  C244  1  0.74917768  0.54707076  0.63322796  1
  C  C245  1  0.75229953  0.88087025  0.63429960  1
  C  C246  1  0.24859605  0.11975748  0.13293969  1
  C  C247  1  0.25114844  0.45281072  0.13255836  1
  C  C248  1  0.24806868  0.78672030  0.13304937  1
  C  C249  1  0.74896121  0.11992199  0.13594075  1
  C  C250  1  0.75189088  0.45157425  0.13094223  1
  C  C251  1  0.74763068  0.78590483  0.13312216  1
  C  C252  1  0.25168933  0.21375009  0.86763472  1
  C  C253  1  0.24942814  0.54686709  0.86785061  1
  C  C254  1  0.24850796  0.88082966  0.86657363  1
  C  C255  1  0.75118112  0.21402877  0.86507043  1
  C  C256  1  0.75069719  0.54598930  0.86569672  1
  C  C257  1  0.75023478  0.88103811  0.86575938  1
  C  C258  1  0.24965096  0.11880867  0.36827833  1
  C  C259  1  0.25284268  0.45291236  0.36574003  1
  C  C260  1  0.24875389  0.78661585  0.36686078  1
  C  C261  1  0.74973423  0.11909967  0.36736164  1
  C  C262  1  0.74956535  0.45302650  0.36788701  1
  C  C263  1  0.75004094  0.78583786  0.36858941  1
  C  C264  1  0.69646351  0.75976560  0.04183733  1
  C  C265  1  0.29318925  0.09144159  0.46149570  1
  C  C266  1  0.45298115  0.59323348  0.45874253  1
  C  C267  1  0.71552189  0.42434185  0.03582811  1
  C  C268  1  0.45519801  0.40540994  0.96155774  1
  C  C269  1  0.28754530  0.24097540  0.96126910  1
  C  C270  1  0.46582714  0.73818971  0.54039273  1
  C  C271  1  0.72227277  0.23918898  0.96007064  1
  C  C272  1  0.20884108  0.90546639  0.96054660  1
  C  C273  1  0.79023870  0.09446648  0.46196916  1
  C  C274  1  0.05861351  0.73962109  0.95634246  1
  C  C275  1  0.79282560  0.57235534  0.95837837  1
  C  C276  1  0.52909669  0.92857320  0.46239546  1
  C  C277  1  0.03965553  0.92916034  0.46268600  1
  C  C278  1  0.29474962  0.42603255  0.04100115  1
  C  C279  1  0.19752942  0.76216599  0.04208856  1
  C  C280  1  0.47886903  0.26052320  0.46365237  1
  C  C281  1  0.71450629  0.09513070  0.04198836  1
  C  C282  1  0.29039122  0.90587411  0.96080058  1
  C  C283  1  0.21776940  0.09298226  0.03851998  1
  C  C284  1  0.47418869  0.73772741  0.96040876  1
  C  C285  1  0.44717924  0.26306731  0.04212613  1
  C  C286  1  0.95745120  0.74243571  0.53846127  1
  C  C287  1  0.04187475  0.07161151  0.53990401  1
  C  C288  1  0.52524968  0.92847678  0.03978190  1
  C  C289  1  0.52908550  0.26277254  0.03728502  1
  C  C290  1  0.04888240  0.59649026  0.45724988  1
  C  C291  1  0.20842550  0.76002560  0.45948493  1
  C  C292  1  0.79240935  0.42583130  0.46134124  1
  C  C293  1  0.02570631  0.40900621  0.96338798  1
  C  C294  1  0.96677446  0.59560184  0.46073931  1
  C  C295  1  0.70864203  0.09553377  0.46137810  1
  C  C296  1  0.97770240  0.59369304  0.03842813  1
  C  C297  1  0.04252713  0.07190207  0.96050959  1
  C  C298  1  0.95943370  0.92910983  0.46287008  1
  C  C299  1  0.96387754  0.25915925  0.03615340  1
  C  C300  1  0.70862583  0.90364689  0.95966742  1
  C  C301  1  0.72226595  0.90581008  0.53943762  1
  C  C302  1  0.76603196  0.23843902  0.53438592  1
  C  C303  1  0.04893289  0.26150728  0.45761129  1
  C  C304  1  0.53692685  0.40597342  0.96243326  1
  C  C305  1  0.97424694  0.92910544  0.03859274  1
  C  C306  1  0.03767979  0.40514755  0.53958825  1
  C  C307  1  0.95539347  0.40492622  0.54053393  1
  C  C308  1  0.68533897  0.23620203  0.54426152  1
  C  C309  1  0.46339592  0.07184767  0.95881805  1
  C  C310  1  0.96091196  0.07253561  0.96118757  1
  C  C311  1  0.53421219  0.07525483  0.53556139  1
  N  N312  1  0.71358062  0.76833211  0.46339726  1
  N  N313  1  0.19599414  0.23689012  0.54384846  1
  N  N314  1  0.94823624  0.40739283  0.95960581  1
  N  N315  1  0.78818977  0.90296154  0.95931320  1
  N  N316  1  0.21373136  0.09186083  0.46108880  1
  N  N317  1  0.53957839  0.40495540  0.54030332  1
  N  N318  1  0.53057538  0.59176364  0.46427110  1
  N  N319  1  0.96408864  0.07298151  0.53746788  1
  N  N320  1  0.44968760  0.92922271  0.45697972  1
  N  N321  1  0.27712232  0.75929952  0.03905742  1
  N  N322  1  0.54292702  0.07161502  0.95860919  1
  N  N323  1  0.79389635  0.09541368  0.04243161  1
  N  N324  1  0.20935800  0.42890457  0.45921454  1
  N  N325  1  0.55798793  0.26080587  0.45625334  1
  N  N326  1  0.71314811  0.57450065  0.95759521  1
  N  N327  1  0.96942890  0.26061453  0.45996509  1
  N  N328  1  0.44634370  0.92945098  0.04531739  1
  N  N329  1  0.28770875  0.42961788  0.45842679  1
  N  N330  1  0.54529205  0.73827081  0.54122699  1
  N  N331  1  0.46244773  0.40522761  0.54009054  1
  N  N332  1  0.20915027  0.57185467  0.95892975  1
  N  N333  1  0.03678238  0.74140546  0.53895421  1
  N  N334  1  0.29177812  0.57128823  0.54139331  1
  N  N335  1  0.05319647  0.92962648  0.04324791  1
  N  N336  1  0.80137165  0.23844507  0.95707227  1
  N  N337  1  0.21711353  0.42476669  0.03699546  1
  N  N338  1  0.80145857  0.90433031  0.54177250  1
  N  N339  1  0.79213402  0.75423116  0.45793324  1
  N  N340  1  0.05658034  0.59493838  0.04479092  1
  N  N341  1  0.29538558  0.09353623  0.04005850  1
  N  N342  1  0.20952119  0.24052830  0.96159614  1
  N  N343  1  0.29739003  0.90615396  0.54113842  1
  N  N344  1  0.69858263  0.57143520  0.54221837  1
  N  N345  1  0.77526858  0.75977844  0.03860566  1
  N  N346  1  0.45529154  0.07338864  0.54000884  1
  N  N347  1  0.97984736  0.74047945  0.96222716  1
  N  N348  1  0.79447162  0.42583128  0.03942029  1
  N  N349  1  0.28727407  0.57248131  0.96230275  1
  N  N350  1  0.28626860  0.75845555  0.46164794  1
  N  N351  1  0.04288795  0.25974244  0.03985101  1
  N  N352  1  0.21316903  0.57211941  0.53873288  1
  N  N353  1  0.55342326  0.73744093  0.95699780  1
  N  N354  1  0.52350016  0.59402781  0.03943188  1
  N  N355  1  0.77643536  0.57368320  0.54007600  1
  N  N356  1  0.44572775  0.59552120  0.04370979  1
  N  N357  1  0.22118239  0.90749461  0.53722261  1
  N  N358  1  0.71307248  0.42672995  0.46059328  1
  N  N359  1  0.27387120  0.23902662  0.54043860  1
  N  N360  1  0.06661195  0.05568062  0.59759540  1
  N  N361  1  0.06316474  0.38980313  0.59811089  1
  N  N362  1  0.06394823  0.72406960  0.59649854  1
  N  N363  1  0.56224044  0.05936761  0.59200107  1
  N  N364  1  0.56397370  0.38972958  0.59860141  1
  N  N365  1  0.56430409  0.72284084  0.60048716  1
  N  N366  1  0.42959113  0.27765799  0.10250025  1
  N  N367  1  0.43192292  0.61001658  0.10295798  1
  N  N368  1  0.43329275  0.94465945  0.10523187  1
  N  N369  1  0.93724476  0.27551108  0.09256336  1
  N  N370  1  0.94121171  0.60844802  0.09320506  1
  N  N371  1  0.93985290  0.94289597  0.09450182  1
  N  N372  1  0.43460862  0.05706867  0.90167863  1
  N  N373  1  0.43358904  0.38969445  0.90134650  1
  N  N374  1  0.44138694  0.72370765  0.90419685  1
  N  N375  1  0.93656135  0.05698900  0.90168321  1
  N  N376  1  0.93206371  0.38923016  0.89907495  1
  N  N377  1  0.94411895  0.72342818  0.90735879  1
  N  N378  1  0.06902643  0.27679368  0.39905686  1
  N  N379  1  0.06827899  0.61152644  0.39756921  1
  N  N380  1  0.06467938  0.94311657  0.40612037  1
  N  N381  1  0.57349472  0.27589046  0.39678681  1
  N  N382  1  0.55968468  0.60821515  0.40623777  1
  N  N383  1  0.55909334  0.94336110  0.40619507  1
  N  N384  1  0.30747183  0.22433949  0.59498463  1
  N  N385  1  0.31631518  0.55664458  0.59861383  1
  N  N386  1  0.31673346  0.88940871  0.60055924  1
  N  N387  1  0.80253102  0.22405256  0.59082398  1
  N  N388  1  0.80927185  0.55698574  0.59445387  1
  N  N389  1  0.81835935  0.88933992  0.60103819  1
  N  N390  1  0.18663085  0.10888965  0.09413670  1
  N  N391  1  0.18984632  0.44172363  0.09542860  1
  N  N392  1  0.17950720  0.77811117  0.10088829  1
  N  N393  1  0.68544667  0.10984128  0.09910153  1
  N  N394  1  0.68887171  0.44062807  0.09244376  1
  N  N395  1  0.67903024  0.77590169  0.10032577  1
  N  N396  1  0.18742071  0.22312052  0.90200438  1
  N  N397  1  0.18461368  0.55605550  0.90197932  1
  N  N398  1  0.18374684  0.89054386  0.90375144  1
  N  N399  1  0.68968673  0.22451863  0.90390590  1
  N  N400  1  0.68727111  0.55509026  0.90121570  1
  N  N401  1  0.68460455  0.88943018  0.90174857  1
  N  N402  1  0.31531508  0.10822718  0.40406954  1
  N  N403  1  0.31572748  0.44325107  0.40177981  1
  N  N404  1  0.31143603  0.77516708  0.40250793  1
  N  N405  1  0.81467869  0.10939585  0.40231247  1
  N  N406  1  0.81505756  0.44194652  0.40387185  1
  N  N407  1  0.81493355  0.77771986  0.40305218  1
  N  N408  1  0.44555019  0.27548045  0.40842801  1
  N  N409  1  0.43172915  0.60979624  0.40044592  1
  N  N410  1  0.43053355  0.94283713  0.39766254  1
  N  N411  1  0.93996855  0.27592159  0.40356633  1
  N  N412  1  0.93812352  0.61017158  0.40272034  1
  N  N413  1  0.93371409  0.94322101  0.40643404  1
  N  N414  1  0.06672267  0.05673515  0.90352199  1
  N  N415  1  0.05968553  0.39259066  0.90888209  1
  N  N416  1  0.07256679  0.72360064  0.89720113  1
  N  N417  1  0.56262743  0.05649921  0.89964850  1
  N  N418  1  0.56359593  0.39117316  0.90595135  1
  N  N419  1  0.56922314  0.72300848  0.89730220  1
  N  N420  1  0.06605397  0.27640414  0.09844317  1
  N  N421  1  0.06824899  0.61075963  0.10492751  1
  N  N422  1  0.06748910  0.94468318  0.10265401  1
  N  N423  1  0.55936959  0.27713798  0.09496460  1
  N  N424  1  0.55865875  0.60958816  0.09334070  1
  N  N425  1  0.56058060  0.94259594  0.09508939  1
  N  N426  1  0.43372436  0.05620387  0.59883378  1
  N  N427  1  0.43733099  0.39022587  0.59835241  1
  N  N428  1  0.43617448  0.72345241  0.59731325  1
  N  N429  1  0.93855147  0.05676776  0.59659539  1
  N  N430  1  0.93295827  0.38941654  0.59979326  1
  N  N431  1  0.93498269  0.72516615  0.59572122  1
  N  N432  1  0.18638820  0.10897090  0.40363477  1
  N  N433  1  0.18850736  0.44372724  0.40123501  1
  N  N434  1  0.18328095  0.77703575  0.40223086  1
  N  N435  1  0.68448590  0.11027822  0.40415896  1
  N  N436  1  0.68602619  0.44382052  0.40312214  1
  N  N437  1  0.68709305  0.77468593  0.40422680  1
  N  N438  1  0.31544400  0.22482526  0.90447935  1
  N  N439  1  0.31178633  0.55730214  0.90518994  1
  N  N440  1  0.31389454  0.89017650  0.90107958  1
  N  N441  1  0.81754736  0.22287921  0.89781629  1
  N  N442  1  0.81646455  0.55643197  0.90092924  1
  N  N443  1  0.81394622  0.89092221  0.90088831  1
  N  N444  1  0.31465172  0.11064174  0.10038501  1
  N  N445  1  0.31798327  0.44296565  0.09875074  1
  N  N446  1  0.30831364  0.77652198  0.09446317  1
  N  N447  1  0.81348660  0.11069243  0.10128267  1
  N  N448  1  0.81764146  0.44270483  0.09800140  1
  N  N449  1  0.80804981  0.77623536  0.09461199  1
  N  N450  1  0.18082264  0.22186196  0.60273383  1
  N  N451  1  0.18932596  0.55692918  0.59596146  1
  N  N452  1  0.19048494  0.89180243  0.59374981  1
  N  N453  1  0.67340302  0.22122380  0.60390467  1
  N  N454  1  0.68204532  0.55645150  0.60099392  1
  N  N455  1  0.69036538  0.89128715  0.59584923  1
  Cl  Cl456  1  0.24971839  0.05723758  0.61058595  1
  Cl  Cl457  1  0.25285527  0.38735296  0.61296843  1
  Cl  Cl458  1  0.24819380  0.71741153  0.62088613  1
  Cl  Cl459  1  0.74968082  0.05358042  0.61629324  1
  Cl  Cl460  1  0.74718956  0.38854617  0.61461691  1
  Cl  Cl461  1  0.75150229  0.72178069  0.61109915  1
  Cl  Cl462  1  0.24767154  0.28321788  0.12370191  1
  Cl  Cl463  1  0.24978723  0.61551955  0.11797804  1
  Cl  Cl464  1  0.25061353  0.94877533  0.11666227  1
  Cl  Cl465  1  0.74721919  0.28248605  0.11562118  1
  Cl  Cl466  1  0.74538452  0.60948350  0.10329056  1
  Cl  Cl467  1  0.75156064  0.94087248  0.10611824  1
  Cl  Cl468  1  0.25034728  0.05106820  0.87733000  1
  Cl  Cl469  1  0.24649585  0.38404240  0.87749518  1
  Cl  Cl470  1  0.25716722  0.72391131  0.89195193  1
  Cl  Cl471  1  0.74744932  0.05020917  0.88196635  1
  Cl  Cl472  1  0.74831773  0.38840226  0.88382067  1
  Cl  Cl473  1  0.76047984  0.72311435  0.89268066  1
  Cl  Cl474  1  0.26047249  0.27712965  0.39226865  1
  Cl  Cl475  1  0.25151239  0.61378466  0.38353652  1
  Cl  Cl476  1  0.24948933  0.95251754  0.38005521  1
  Cl  Cl477  1  0.75712238  0.28253143  0.38462622  1
  Cl  Cl478  1  0.75234625  0.61157506  0.38637348  1
  Cl  Cl479  1  0.74317271  0.94566887  0.37972361  1
  Cl  Cl480  1  -0.00798751  0.22314237  0.60922550  1
  Cl  Cl481  1  -0.00222051  0.55754445  0.61287751  1
  Cl  Cl482  1  0.00540554  0.88192636  0.61889568  1
  Cl  Cl483  1  0.48865724  0.21887308  0.61227161  1
  Cl  Cl484  1  0.49808267  0.55201189  0.62307429  1
  Cl  Cl485  1  0.50270283  0.89085787  0.61015817  1
  Cl  Cl486  1  -0.00054747  0.11637396  0.11564746  1
  Cl  Cl487  1  0.00161644  0.44681164  0.11799177  1
  Cl  Cl488  1  -0.00891870  0.77624349  0.10808660  1
  Cl  Cl489  1  0.49970907  0.11357164  0.11931139  1
  Cl  Cl490  1  0.50322809  0.44766316  0.11646639  1
  Cl  Cl491  1  0.49269889  0.77874789  0.11542192  1
  Cl  Cl492  1  0.00333887  0.22084970  0.88264310  1
  Cl  Cl493  1  0.00043925  0.55351073  0.88343821  1
  Cl  Cl494  1  -0.00351789  0.88460268  0.88649994  1
  Cl  Cl495  1  0.50244771  0.22178441  0.88377143  1
  Cl  Cl496  1  0.50326297  0.55562902  0.89263231  1
  Cl  Cl497  1  0.50166826  0.88624576  0.87954738  1
  Cl  Cl498  1  0.00256284  0.11575972  0.38085720  1
  Cl  Cl499  1  0.00078792  0.44517483  0.38454855  1
  Cl  Cl500  1  -0.00140062  0.77900885  0.38490161  1
  Cl  Cl501  1  0.49805198  0.11319005  0.38654742  1
  Cl  Cl502  1  0.50005224  0.44824552  0.38235533  1
  Cl  Cl503  1  0.50112460  0.78175149  0.38432763  1
  Cl  Cl504  1  0.36348183  0.14273208  0.74856784  1
  Cl  Cl505  1  0.36272123  0.47744094  0.75019829  1
  Cl  Cl506  1  0.36202296  0.80872921  0.74978040  1
  Cl  Cl507  1  0.86083813  0.14238978  0.75151435  1
  Cl  Cl508  1  0.85983572  0.47494137  0.75012314  1
  Cl  Cl509  1  0.86243924  0.80953588  0.74958937  1
  Cl  Cl510  1  0.13757502  0.19124060  0.25223830  1
  Cl  Cl511  1  0.13746647  0.52414780  0.25054676  1
  Cl  Cl512  1  0.13649634  0.85607253  0.24736353  1
  Cl  Cl513  1  0.63711726  0.19073149  0.25259069  1
  Cl  Cl514  1  0.64005775  0.52448659  0.24905455  1
  Cl  Cl515  1  0.63779846  0.85641392  0.24864282  1
  Cl  Cl516  1  0.13905747  0.14276554  0.74822798  1
  Cl  Cl517  1  0.13732391  0.47735702  0.74754446  1
  Cl  Cl518  1  0.13714243  0.80837575  0.75258503  1
  Cl  Cl519  1  0.63613117  0.14232425  0.74710302  1
  Cl  Cl520  1  0.64054098  0.47541097  0.75023438  1
  Cl  Cl521  1  0.64009412  0.80839494  0.75077917  1
  Cl  Cl522  1  0.36302255  0.19014160  0.25031736  1
  Cl  Cl523  1  0.36178955  0.52472661  0.24922130  1
  Cl  Cl524  1  0.36312181  0.85724446  0.25089163  1
  Cl  Cl525  1  0.86227195  0.19094264  0.25018936  1
  Cl  Cl526  1  0.86138187  0.52417512  0.25020178  1
  Cl  Cl527  1  0.86038817  0.85653139  0.25044661  1
  Cl  Cl528  1  0.11209226  0.30881800  0.74698508  1
  Cl  Cl529  1  0.11042107  0.64237002  0.75142413  1
  Cl  Cl530  1  0.11268757  0.97590449  0.75080866  1
  Cl  Cl531  1  0.61221926  0.30902522  0.74919426  1
  Cl  Cl532  1  0.61559147  0.64375678  0.75143289  1
  Cl  Cl533  1  0.61211771  0.97577730  0.75028389  1
  Cl  Cl534  1  0.38698483  0.02392786  0.25054960  1
  Cl  Cl535  1  0.38889305  0.35704103  0.25043897  1
  Cl  Cl536  1  0.38756115  0.69050319  0.24874200  1
  Cl  Cl537  1  0.88700869  0.02357228  0.25048242  1
  Cl  Cl538  1  0.88748652  0.35714101  0.24943225  1
  Cl  Cl539  1  0.88790768  0.69060255  0.24995604  1
  Cl  Cl540  1  0.38748092  0.30904437  0.74920626  1
  Cl  Cl541  1  0.38873302  0.64221146  0.75019187  1
  Cl  Cl542  1  0.38965043  0.97543726  0.74636497  1
  Cl  Cl543  1  0.88815189  0.30886514  0.75123241  1
  Cl  Cl544  1  0.88646264  0.64387265  0.74947998  1
  Cl  Cl545  1  0.88596887  0.97546430  0.75025187  1
  Cl  Cl546  1  0.11208972  0.02376535  0.24964370  1
  Cl  Cl547  1  0.11214234  0.35722256  0.25253458  1
  Cl  Cl548  1  0.11121689  0.69137136  0.24869552  1
  Cl  Cl549  1  0.61134826  0.02358943  0.25103978  1
  Cl  Cl550  1  0.61286768  0.35700950  0.25279611  1
  Cl  Cl551  1  0.61370436  0.69028910  0.25054370  1
