# generated using pymatgen
data_H8PbC4(N3Cl2)2
_symmetry_space_group_name_H-M   'P 1'
_cell_length_a   16.62635594
_cell_length_b   22.51451739
_cell_length_c   21.59530698
_cell_angle_alpha   89.99774073
_cell_angle_beta   90.01674062
_cell_angle_gamma   89.99966263
_symmetry_Int_Tables_number   1
_chemical_formula_structural   H8PbC4(N3Cl2)2
_chemical_formula_sum   'H192 Pb24 C96 N144 Cl96'
_cell_volume   8083.86549611
_cell_formula_units_Z   24
loop_
 _symmetry_equiv_pos_site_id
 _symmetry_equiv_pos_as_xyz
  1  'x, y, z'
loop_
 _atom_site_type_symbol
 _atom_site_label
 _atom_site_symmetry_multiplicity
 _atom_site_fract_x
 _atom_site_fract_y
 _atom_site_fract_z
 _atom_site_occupancy
  H  H0  1  0.01345677  0.03182670  0.67402247  1
  H  H1  1  -0.01357642  0.36685801  0.67522584  1
  H  H2  1  0.00656963  0.69321000  0.67713547  1
  H  H3  1  0.48481812  0.03026836  0.68154869  1
  H  H4  1  0.50467066  0.36323400  0.67670349  1
  H  H5  1  0.49879636  0.69606775  0.67956476  1
  H  H6  1  0.00028631  0.30639058  0.17641983  1
  H  H7  1  -0.01090197  0.63559694  0.18310223  1
  H  H8  1  0.00732247  0.97069254  0.17898139  1
  H  H9  1  0.50377901  0.30534884  0.17677414  1
  H  H10  1  0.51095042  0.63711886  0.18199146  1
  H  H11  1  0.49911439  0.97177510  0.18160435  1
  H  H12  1  0.00422224  0.02866377  0.81619328  1
  H  H13  1  0.00980279  0.36255919  0.82293593  1
  H  H14  1  0.01236965  0.70068397  0.81847397  1
  H  H15  1  0.49578546  0.02848799  0.81943369  1
  H  H16  1  0.49199700  0.36137875  0.82238554  1
  H  H17  1  0.48997863  0.69628798  0.82415551  1
  H  H18  1  0.01154078  0.30165463  0.31875652  1
  H  H19  1  0.00896660  0.63838915  0.32268555  1
  H  H20  1  -0.00596794  0.97228190  0.31961923  1
  H  H21  1  0.49613850  0.30762301  0.32440079  1
  H  H22  1  0.49031102  0.63559099  0.31935747  1
  H  H23  1  0.49961068  0.96976965  0.32513907  1
  H  H24  1  0.24209397  0.19880481  0.68014285  1
  H  H25  1  0.25019365  0.52830061  0.67892447  1
  H  H26  1  0.25179292  0.86258136  0.68180343  1
  H  H27  1  0.75206634  0.19337981  0.67666865  1
  H  H28  1  0.74944344  0.52956006  0.67518936  1
  H  H29  1  0.76260413  0.86148420  0.67671734  1
  H  H30  1  0.23885402  0.13502062  0.18050732  1
  H  H31  1  0.24948061  0.46663133  0.17933411  1
  H  H32  1  0.23670830  0.80399070  0.17758594  1
  H  H33  1  0.76473495  0.14048129  0.17904604  1
  H  H34  1  0.74381242  0.46975977  0.18083146  1
  H  H35  1  0.75212052  0.80670912  0.17665709  1
  H  H36  1  0.25749604  0.19578919  0.82272365  1
  H  H37  1  0.24549172  0.53039705  0.81892253  1
  H  H38  1  0.24970036  0.86162374  0.81964180  1
  H  H39  1  0.74980395  0.20032382  0.82025820  1
  H  H40  1  0.76050416  0.52687460  0.82163879  1
  H  H41  1  0.74469823  0.86484323  0.82332623  1
  H  H42  1  0.26065618  0.13450740  0.31716196  1
  H  H43  1  0.24325652  0.46862104  0.32177658  1
  H  H44  1  0.24243758  0.80478125  0.32486615  1
  H  H45  1  0.74155430  0.13388534  0.32357509  1
  H  H46  1  0.75729129  0.47259001  0.32438795  1
  H  H47  1  0.76637481  0.80177040  0.32230278  1
  H  H48  1  0.11405090  0.06226014  0.58788059  1
  H  H49  1  0.12091078  0.38439442  0.61844267  1
  H  H50  1  0.11623144  0.72231397  0.59496235  1
  H  H51  1  0.62397812  0.04987824  0.62537832  1
  H  H52  1  0.61373038  0.39165980  0.59419693  1
  H  H53  1  0.61910160  0.72003283  0.60579406  1
  H  H54  1  0.36895669  0.27862670  0.11954625  1
  H  H55  1  0.37966836  0.61456081  0.11691597  1
  H  H56  1  0.37097738  0.95128298  0.11558386  1
  H  H57  1  0.87320576  0.28033378  0.10828261  1
  H  H58  1  0.88114665  0.60921568  0.10019854  1
  H  H59  1  0.87160556  0.94838222  0.11920393  1
  H  H60  1  0.37530552  0.05621269  0.89322583  1
  H  H61  1  0.38533471  0.39045034  0.90611505  1
  H  H62  1  0.37056763  0.72503581  0.89783526  1
  H  H63  1  0.87871182  0.05161599  0.88459168  1
  H  H64  1  0.88173069  0.38304887  0.88724892  1
  H  H65  1  0.86942441  0.71631413  0.86762657  1
  H  H66  1  0.11208662  0.27880177  0.40590537  1
  H  H67  1  0.12118345  0.60873709  0.40319124  1
  H  H68  1  0.13065479  0.94940032  0.37492794  1
  H  H69  1  0.61692739  0.27787508  0.39510889  1
  H  H70  1  0.62321609  0.61382798  0.38326834  1
  H  H71  1  0.62942661  0.94541287  0.39000677  1
  H  H72  1  0.38138423  0.21877324  0.62491669  1
  H  H73  1  0.37372027  0.55378144  0.60647503  1
  H  H74  1  0.36906271  0.89043718  0.60455686  1
  H  H75  1  0.87925468  0.22131236  0.61166297  1
  H  H76  1  0.87584500  0.55460072  0.60831285  1
  H  H77  1  0.86179064  0.89237207  0.58850078  1
  H  H78  1  0.13104954  0.11284583  0.09870082  1
  H  H79  1  0.11468269  0.44855319  0.11898020  1
  H  H80  1  0.13425055  0.77652267  0.09083538  1
  H  H81  1  0.62574216  0.11775965  0.12751237  1
  H  H82  1  0.61697588  0.44496612  0.11360079  1
  H  H83  1  0.62987567  0.77865166  0.10498861  1
  H  H84  1  0.12959937  0.22044414  0.89028470  1
  H  H85  1  0.12267870  0.55150569  0.89012388  1
  H  H86  1  0.13277595  0.88826422  0.89261533  1
  H  H87  1  0.63398134  0.22316365  0.89582534  1
  H  H88  1  0.62235957  0.55168101  0.87642845  1
  H  H89  1  0.63568020  0.89069447  0.90462668  1
  H  H90  1  0.38067450  0.11184611  0.39297619  1
  H  H91  1  0.38084835  0.44978433  0.37775244  1
  H  H92  1  0.38119813  0.78654602  0.38033921  1
  H  H93  1  0.87964000  0.11556821  0.37990010  1
  H  H94  1  0.87766703  0.44268219  0.39595699  1
  H  H95  1  0.87638758  0.77124455  0.40213138  1
  H  H96  1  0.36826895  0.28184717  0.39093876  1
  H  H97  1  0.37583385  0.60833060  0.39910624  1
  H  H98  1  0.38126315  0.94341134  0.39867604  1
  H  H99  1  0.86833770  0.28652602  0.36775203  1
  H  H100  1  0.87439611  0.61356956  0.38302474  1
  H  H101  1  0.88368832  0.93949042  0.39946814  1
  H  H102  1  0.12821322  0.05313853  0.88469950  1
  H  H103  1  0.13064546  0.38559265  0.89698977  1
  H  H104  1  0.11330337  0.72598722  0.90474943  1
  H  H105  1  0.62370140  0.05307877  0.88968993  1
  H  H106  1  0.63135235  0.38316179  0.87468417  1
  H  H107  1  0.61923695  0.72097082  0.88835226  1
  H  H108  1  0.12210128  0.28002521  0.10524674  1
  H  H109  1  0.12766881  0.61566250  0.12555484  1
  H  H110  1  0.11929502  0.94356490  0.09944333  1
  H  H111  1  0.61655023  0.27557004  0.09861170  1
  H  H112  1  0.62823343  0.60998297  0.10619202  1
  H  H113  1  0.61997887  0.94676417  0.11021269  1
  H  H114  1  0.37756906  0.05671645  0.59774547  1
  H  H115  1  0.36796721  0.38564844  0.61897581  1
  H  H116  1  0.37029729  0.72010647  0.61245048  1
  H  H117  1  0.87090938  0.04809438  0.62311739  1
  H  H118  1  0.87494809  0.39071479  0.59662204  1
  H  H119  1  0.87026714  0.71712192  0.61956887  1
  H  H120  1  0.13113830  0.11433707  0.38292160  1
  H  H121  1  0.13346557  0.44433784  0.40228869  1
  H  H122  1  0.13609193  0.77287035  0.40696527  1
  H  H123  1  0.63366954  0.10867060  0.40778176  1
  H  H124  1  0.62867050  0.44539349  0.38889179  1
  H  H125  1  0.62969347  0.78356564  0.38118531  1
  H  H126  1  0.37851450  0.22146925  0.89581647  1
  H  H127  1  0.37202688  0.55290388  0.88611487  1
  H  H128  1  0.38170376  0.88356461  0.88223829  1
  H  H129  1  0.88276765  0.21951865  0.88277235  1
  H  H130  1  0.86744746  0.55591661  0.90563524  1
  H  H131  1  0.88205808  0.88222490  0.87766821  1
  H  H132  1  0.37747933  0.11859377  0.12505111  1
  H  H133  1  0.36275592  0.44235284  0.10202262  1
  H  H134  1  0.37713769  0.78395860  0.12469438  1
  H  H135  1  0.87135914  0.11049925  0.09556931  1
  H  H136  1  0.86570705  0.44438361  0.10760711  1
  H  H137  1  0.87915209  0.78221085  0.11035146  1
  H  H138  1  0.13470646  0.22579562  0.59806558  1
  H  H139  1  0.12515275  0.55217910  0.60735888  1
  H  H140  1  0.12155958  0.88722673  0.61575314  1
  H  H141  1  0.63005660  0.22174709  0.60532624  1
  H  H142  1  0.62734901  0.55231255  0.60265870  1
  H  H143  1  0.61995220  0.88265843  0.62775183  1
  H  H144  1  0.03490340  0.25475729  0.51007614  1
  H  H145  1  0.54858657  0.24584861  -0.00300203  1
  H  H146  1  0.84177465  0.74935108  0.00000940  1
  H  H147  1  0.20429706  0.25832853  0.49467317  1
  H  H148  1  0.04215736  0.74583099  0.49377983  1
  H  H149  1  0.40484754  0.92164529  0.00427402  1
  H  H150  1  0.57052099  0.91858978  0.00012727  1
  H  H151  1  0.39200717  0.41713352  0.51036723  1
  H  H152  1  0.45197931  0.08534968  0.49488694  1
  H  H153  1  0.42538400  0.75306660  1.00065937  1
  H  H154  1  0.35849132  0.24683733  0.51621547  1
  H  H155  1  0.92284741  0.07786374  0.99686534  1
  H  H156  1  0.45850394  0.41457068  1.00577801  1
  H  H157  1  0.68249152  0.24764143  0.50026301  1
  H  H158  1  0.56591876  0.74892663  0.49827499  1
  H  H159  1  0.21167457  0.75793117  0.50790628  1
  H  H160  1  0.17070605  0.08861281  0.49585386  1
  H  H161  1  0.03638158  0.75180098  1.00853059  1
  H  H162  1  0.67323785  0.41540073  0.49581332  1
  H  H163  1  0.35816990  0.74790602  0.48521948  1
  H  H164  1  0.20009957  0.08967413  -0.00987585  1
  H  H165  1  0.21459319  0.75195983  -0.00772841  1
  H  H166  1  0.16819764  0.57948224  1.00018909  1
  H  H167  1  0.18838911  0.92111835  1.00151767  1
  H  H168  1  0.83162349  0.57439714  0.50272525  1
  H  H169  1  0.68116759  0.59652082  0.50740424  1
  H  H170  1  0.69169947  0.25251837  1.00559578  1
  H  H171  1  0.79648093  0.08877227  -0.00471286  1
  H  H172  1  0.91956595  0.41215757  1.00100145  1
  H  H173  1  0.95261880  0.58133766  -0.00344271  1
  H  H174  1  0.10654286  0.91495016  0.48646210  1
  H  H175  1  0.77786758  0.91704344  0.49212831  1
  H  H176  1  0.19684018  0.41807490  0.50873027  1
  H  H177  1  0.57007731  0.58075223  0.00032405  1
  H  H178  1  0.84249241  0.25573651  0.50224018  1
  H  H179  1  0.86167676  0.91221709  -0.00800974  1
  H  H180  1  0.33182888  0.58076148  0.99746215  1
  H  H181  1  0.88563711  0.08312150  0.51399480  1
  H  H182  1  0.95216125  0.91687213  0.50121027  1
  H  H183  1  0.32344150  0.07407283  0.49270391  1
  H  H184  1  0.64479933  0.08209003  0.01542277  1
  H  H185  1  0.58994680  0.91705888  0.49715694  1
  H  H186  1  0.61389022  0.41553622  0.98774770  1
  H  H187  1  0.30178129  0.41395848  -0.00674671  1
  H  H188  1  0.68070087  0.75300505  0.00045516  1
  H  H189  1  0.08223002  0.08001748  0.99702585  1
  H  H190  1  0.79092025  0.58166862  1.00460985  1
  H  H191  1  0.03188141  0.07799092  0.48858115  1
  Pb  Pb192  1  0.25446104  0.05030004  0.74004334  1
  Pb  Pb193  1  0.24989527  0.37909812  0.75653926  1
  Pb  Pb194  1  0.24395154  0.71535334  0.75206474  1
  Pb  Pb195  1  0.74772277  0.04667978  0.76049172  1
  Pb  Pb196  1  0.75017405  0.38064488  0.73836386  1
  Pb  Pb197  1  0.74567788  0.71330571  0.75182806  1
  Pb  Pb198  1  0.24362876  0.28440603  0.25661772  1
  Pb  Pb199  1  0.24817936  0.61780454  0.25339447  1
  Pb  Pb200  1  0.25201838  0.95413146  0.24643228  1
  Pb  Pb201  1  0.74703202  0.28594434  0.24917361  1
  Pb  Pb202  1  0.74830787  0.61812604  0.24657445  1
  Pb  Pb203  1  0.74603963  0.95078200  0.25795556  1
  Pb  Pb204  1  0.00129366  0.21402768  0.74578291  1
  Pb  Pb205  1  -0.00279426  0.54612437  0.75520409  1
  Pb  Pb206  1  -0.00513225  0.88296902  0.74079425  1
  Pb  Pb207  1  0.50649587  0.21561352  0.75642711  1
  Pb  Pb208  1  0.49818591  0.54720621  0.74730372  1
  Pb  Pb209  1  0.50003306  0.87926703  0.75189581  1
  Pb  Pb210  1  -0.00406595  0.11673986  0.24423998  1
  Pb  Pb211  1  -0.00261410  0.45297815  0.25426953  1
  Pb  Pb212  1  0.00282030  0.78668432  0.25194672  1
  Pb  Pb213  1  0.50097065  0.12177003  0.26080213  1
  Pb  Pb214  1  0.49543594  0.45061495  0.24204686  1
  Pb  Pb215  1  0.49848949  0.78527699  0.24626035  1
  C  C216  1  -0.00076606  0.04720700  0.62746213  1
  C  C217  1  -0.00561277  0.38101117  0.62781861  1
  C  C218  1  -0.00194025  0.70985433  0.63048822  1
  C  C219  1  0.49559635  0.04543372  0.63462911  1
  C  C220  1  0.49515138  0.37956390  0.62998364  1
  C  C221  1  0.49579276  0.71158086  0.63202974  1
  C  C222  1  -0.00183586  0.28923796  0.12968141  1
  C  C223  1  -0.00034402  0.62075389  0.13594553  1
  C  C224  1  -0.00096038  0.95462709  0.13229059  1
  C  C225  1  0.49668052  0.28780390  0.13041552  1
  C  C226  1  0.50616231  0.62063385  0.13492020  1
  C  C227  1  0.49660206  0.95627183  0.13397918  1
  C  C228  1  0.00354311  0.04397713  0.86390270  1
  C  C229  1  0.00682671  0.37727416  0.87062158  1
  C  C230  1  -0.00161797  0.71370033  0.86559551  1
  C  C231  1  0.49847132  0.04490956  0.86669211  1
  C  C232  1  0.50272944  0.37764771  0.86912060  1
  C  C233  1  0.49282411  0.71302721  0.87115134  1
  C  C234  1  -0.00268050  0.28905745  0.36596667  1
  C  C235  1  0.00165537  0.62125407  0.36936302  1
  C  C236  1  0.00255777  0.95459760  0.36605744  1
  C  C237  1  0.49343993  0.28959342  0.37065783  1
  C  C238  1  0.49637588  0.62021224  0.36675744  1
  C  C239  1  0.50405884  0.95392522  0.37239487  1
  C  C240  1  0.25358887  0.21354777  0.63296083  1
  C  C241  1  0.24971068  0.54452069  0.63165777  1
  C  C242  1  0.24730236  0.87917865  0.63471939  1
  C  C243  1  0.75334310  0.21138997  0.62996286  1
  C  C244  1  0.75085169  0.54578301  0.62777152  1
  C  C245  1  0.74823223  0.87744251  0.63060819  1
  C  C246  1  0.24907737  0.12212014  0.13283502  1
  C  C247  1  0.24243975  0.45284038  0.13162918  1
  C  C248  1  0.24923836  0.78913916  0.13072875  1
  C  C249  1  0.75417486  0.12397394  0.13237802  1
  C  C250  1  0.74234808  0.45367178  0.13372564  1
  C  C251  1  0.75330274  0.78963030  0.12954136  1
  C  C252  1  0.25499812  0.21191486  0.86985842  1
  C  C253  1  0.24675704  0.54568282  0.86667475  1
  C  C254  1  0.25446594  0.87772959  0.86674846  1
  C  C255  1  0.75526481  0.21419511  0.86808218  1
  C  C256  1  0.75043184  0.54378167  0.86801725  1
  C  C257  1  0.75498765  0.87947832  0.87041393  1
  C  C258  1  0.25788245  0.11952326  0.36500302  1
  C  C259  1  0.25230849  0.45464569  0.36927092  1
  C  C260  1  0.25351063  0.78844714  0.37148821  1
  C  C261  1  0.75160384  0.11974831  0.37080132  1
  C  C262  1  0.75408643  0.45486658  0.37088319  1
  C  C263  1  0.75720442  0.78575949  0.36891076  1
  C  C264  1  0.52830992  0.73817768  0.53808322  1
  C  C265  1  0.56475042  0.40703027  0.95385719  1
  C  C266  1  0.98195660  0.59321382  0.04002651  1
  C  C267  1  0.79867906  0.24347268  0.53989193  1
  C  C268  1  0.77796187  0.75269059  0.46276809  1
  C  C269  1  0.23111206  0.42864903  0.46705869  1
  C  C270  1  0.04320750  0.40389168  0.96510087  1
  C  C271  1  0.30599736  0.90635439  0.95631485  1
  C  C272  1  0.80722598  0.23881381  0.95819090  1
  C  C273  1  0.00905064  0.73965397  0.96451948  1
  C  C274  1  0.46939869  0.92234811  0.46619428  1
  C  C275  1  0.54143522  0.74335962  0.96189291  1
  C  C276  1  0.04991684  0.40691533  0.53995126  1
  C  C277  1  0.96192964  0.06872768  0.95767673  1
  C  C278  1  0.28837526  0.24090615  0.96298143  1
  C  C279  1  0.72618306  0.24085122  0.96450602  1
  C  C280  1  0.26831548  0.42601631  0.03470222  1
  C  C281  1  0.79110279  0.42055612  0.46309228  1
  C  C282  1  0.04386068  0.06954232  0.95782108  1
  C  C283  1  0.29004621  0.57087269  0.96005201  1
  C  C284  1  0.45003756  0.93114904  0.04129095  1
  C  C285  1  0.02254113  0.92320537  0.03792402  1
  C  C286  1  0.52736309  0.25623477  0.46259664  1
  C  C287  1  0.00775014  0.26507983  0.46545493  1
  C  C288  1  0.79824138  0.76025793  0.03830472  1
  C  C289  1  0.96932121  0.40907142  0.53269930  1
  C  C290  1  0.53217703  0.92925039  0.03930547  1
  C  C291  1  0.92859360  0.26865043  0.45060836  1
  C  C292  1  0.96165057  0.40309844  0.96368924  1
  C  C293  1  0.81344407  0.90418535  0.95886200  1
  C  C294  1  0.69221050  0.09276691  0.04849885  1
  C  C295  1  0.80737319  0.09644404  0.45914086  1
  C  C296  1  0.22981733  0.09893779  0.03397046  1
  C  C297  1  0.44046180  0.25276013  0.04444806  1
  C  C298  1  0.47981702  0.07379872  0.53887890  1
  C  C299  1  0.73288976  0.90756722  0.96685075  1
  C  C300  1  0.20794170  0.57016197  0.96144684  1
  C  C301  1  0.70057588  0.42653478  0.04172535  1
  C  C302  1  0.21081365  0.09667821  0.45699527  1
  C  C303  1  0.53454826  0.59218460  0.04085234  1
  C  C304  1  0.92985013  0.73554808  0.95000183  1
  C  C305  1  0.30983265  0.10110848  0.04501895  1
  C  C306  1  0.22446594  0.90833540  0.96159003  1
  C  C307  1  0.06046355  0.92409134  0.45182534  1
  C  C308  1  0.18744685  0.42881737  0.04223961  1
  C  C309  1  0.03279863  0.25804961  0.03771975  1
  C  C310  1  0.23328174  0.24401579  0.53741732  1
  C  C311  1  0.31183550  0.43107197  0.45736718  1
  N  N312  1  0.01127646  0.08063186  0.53379779  1
  N  N313  1  0.46223457  0.74373244  0.96378853  1
  N  N314  1  0.01653571  0.74055592  0.53721270  1
  N  N315  1  0.23531922  0.75311078  0.46393769  1
  N  N316  1  0.31172582  0.24043006  0.54733041  1
  N  N317  1  0.44107149  0.40766969  0.54396405  1
  N  N318  1  0.48593523  0.41008538  0.96316043  1
  N  N319  1  0.44950567  0.25783660  0.46216172  1
  N  N320  1  0.95552924  0.25766984  0.03756259  1
  N  N321  1  0.98138308  0.92090461  0.45913933  1
  N  N322  1  0.51828929  0.40934756  0.53432911  1
  N  N323  1  0.21122275  0.24053611  0.96266137  1
  N  N324  1  0.70073744  0.75643933  0.45746006  1
  N  N325  1  0.55800832  0.07240819  0.54815562  1
  N  N326  1  0.75630501  0.90996457  0.53697588  1
  N  N327  1  0.77818909  0.42579911  0.03841132  1
  N  N328  1  0.71220060  0.42286020  0.45998743  1
  N  N329  1  0.29046804  0.09520291  0.45924385  1
  N  N330  1  0.67998575  0.90603672  0.54852730  1
  N  N331  1  0.31472443  0.76278256  0.04628875  1
  N  N332  1  0.45529625  0.59342647  0.04402062  1
  N  N333  1  0.73074570  0.09331691  0.46902459  1
  N  N334  1  0.77090541  0.09068956  0.03862375  1
  N  N335  1  0.46413356  0.07336942  0.96075200  1
  N  N336  1  0.20096406  0.90572599  0.54320618  1
  N  N337  1  0.93914240  0.73955899  0.54435930  1
  N  N338  1  0.02517995  0.58813804  0.46366528  1
  N  N339  1  0.31272643  0.76551858  0.45739858  1
  N  N340  1  0.44889981  0.73735953  0.53935349  1
  N  N341  1  0.94923835  0.58946081  0.45699826  1
  N  N342  1  0.54817827  0.92496727  0.46238694  1
  N  N343  1  0.54013448  0.07173400  0.95945882  1
  N  N344  1  0.76601614  0.57601961  0.96114085  1
  N  N345  1  0.93483246  0.06789944  0.54327921  1
  N  N346  1  0.94557155  0.92471250  0.04372238  1
  N  N347  1  0.46995292  0.59063484  0.46185842  1
  N  N348  1  0.23786042  0.75927514  0.03630481  1
  N  N349  1  0.21077969  0.57292849  0.53874568  1
  N  N350  1  0.28690052  0.57400016  0.53869903  1
  N  N351  1  0.71470333  0.56799184  0.53396245  1
  N  N352  1  0.79353389  0.58027933  0.53989408  1
  N  N353  1  0.71853666  0.75886063  0.03789597  1
  N  N354  1  0.71895136  0.24322921  0.53850189  1
  N  N355  1  0.51899246  0.25339382  0.03801563  1
  N  N356  1  0.68868577  0.57401199  0.95260586  1
  N  N357  1  0.27704945  0.90762604  0.53979050  1
  N  N358  1  0.06033088  0.59520648  0.04838805  1
  N  N359  1  0.54617407  0.59332754  0.45713405  1
  N  N360  1  0.05202390  0.05824048  0.58281108  1
  N  N361  1  0.06475274  0.38984579  0.59807131  1
  N  N362  1  0.05407442  0.72035141  0.58843365  1
  N  N363  1  0.56608185  0.05503963  0.60773882  1
  N  N364  1  0.55145799  0.39210777  0.58819612  1
  N  N365  1  0.55818950  0.72282200  0.59453942  1
  N  N366  1  0.42658574  0.27361137  0.10180973  1
  N  N367  1  0.43957548  0.61085553  0.10285824  1
  N  N368  1  0.42979942  0.94778736  0.10050798  1
  N  N369  1  0.93358808  0.27758129  0.09618363  1
  N  N370  1  0.94327042  0.60889554  0.09330999  1
  N  N371  1  0.93047200  0.94423944  0.10337536  1
  N  N372  1  0.43667107  0.05692783  0.90348480  1
  N  N373  1  0.44788710  0.38899635  0.91187914  1
  N  N374  1  0.43152307  0.72414611  0.90819051  1
  N  N375  1  0.93808781  0.05294862  0.89894449  1
  N  N376  1  0.94028906  0.38670153  0.90372112  1
  N  N377  1  0.92388698  0.72026511  0.89015359  1
  N  N378  1  0.04983270  0.27801897  0.41110999  1
  N  N379  1  0.05914429  0.60767316  0.40951934  1
  N  N380  1  0.07369622  0.94326737  0.39355250  1
  N  N381  1  0.55625424  0.27534037  0.40731421  1
  N  N382  1  0.56383061  0.61164003  0.39808241  1
  N  N383  1  0.57043070  0.94563760  0.40484892  1
  N  N384  1  0.32403471  0.22048772  0.60572371  1
  N  N385  1  0.31270357  0.55675249  0.59633786  1
  N  N386  1  0.30717279  0.89149604  0.59631842  1
  N  N387  1  0.81989276  0.22502049  0.59720601  1
  N  N388  1  0.81596687  0.55492542  0.59392054  1
  N  N389  1  0.79924323  0.88974361  0.58546178  1
  N  N390  1  0.19241704  0.11215716  0.09013557  1
  N  N391  1  0.17229278  0.44472365  0.10077668  1
  N  N392  1  0.19657541  0.77799759  0.08640121  1
  N  N393  1  0.68192302  0.11162597  0.10720702  1
  N  N394  1  0.67629244  0.44282328  0.09950900  1
  N  N395  1  0.69095997  0.77859773  0.09341023  1
  N  N396  1  0.19006783  0.22216324  0.90333608  1
  N  N397  1  0.18244061  0.55478619  0.90305501  1
  N  N398  1  0.19357240  0.89032091  0.90469088  1
  N  N399  1  0.69470972  0.22509235  0.90705105  1
  N  N400  1  0.67990357  0.55624693  0.89400499  1
  N  N401  1  0.69746517  0.89255130  0.91343956  1
  N  N402  1  0.31920781  0.10586269  0.40126135  1
  N  N403  1  0.32404204  0.44642327  0.39777374  1
  N  N404  1  0.32406877  0.77799383  0.39743869  1
  N  N405  1  0.82293334  0.11217899  0.39911613  1
  N  N406  1  0.81726712  0.43982659  0.40777944  1
  N  N407  1  0.81516145  0.77031477  0.40990146  1
  N  N408  1  0.42833415  0.27871032  0.40368491  1
  N  N409  1  0.43770688  0.60704732  0.40602452  1
  N  N410  1  0.44178607  0.94036171  0.41068053  1
  N  N411  1  0.92265414  0.28271754  0.39047848  1
  N  N412  1  0.93333213  0.61047514  0.39870478  1
  N  N413  1  0.94574366  0.94280028  0.40712333  1
  N  N414  1  0.06849640  0.05426615  0.89920940  1
  N  N415  1  0.07029141  0.38848775  0.90883895  1
  N  N416  1  0.05108426  0.72536582  0.91043878  1
  N  N417  1  0.56302877  0.05386086  0.90126547  1
  N  N418  1  0.57494843  0.38852969  0.89488916  1
  N  N419  1  0.56026343  0.72472388  0.90438580  1
  N  N420  1  0.06180750  0.27674483  0.09310625  1
  N  N421  1  0.06958537  0.61219651  0.10821054  1
  N  N422  1  0.05751381  0.94141240  0.09125108  1
  N  N423  1  0.55477962  0.27705687  0.09006003  1
  N  N424  1  0.56720724  0.60847329  0.09637778  1
  N  N425  1  0.55969301  0.94463613  0.09732646  1
  N  N426  1  0.43954000  0.05750814  0.59158491  1
  N  N427  1  0.42600632  0.38951208  0.60178058  1
  N  N428  1  0.43017357  0.72092533  0.59880134  1
  N  N429  1  0.92708634  0.05619886  0.60360794  1
  N  N430  1  0.93566284  0.39323336  0.58639155  1
  N  N431  1  0.92825460  0.72212449  0.60316152  1
  N  N432  1  0.19029069  0.11303766  0.39899474  1
  N  N433  1  0.19510135  0.44351066  0.41075126  1
  N  N434  1  0.19814837  0.77725438  0.41408730  1
  N  N435  1  0.69604691  0.10814484  0.41271224  1
  N  N436  1  0.68839041  0.44531631  0.40380567  1
  N  N437  1  0.68801286  0.77705867  0.39738064  1
  N  N438  1  0.31814658  0.22388395  0.90707882  1
  N  N439  1  0.31256983  0.55584754  0.90083043  1
  N  N440  1  0.32348856  0.88811749  0.89874053  1
  N  N441  1  0.82444862  0.22301044  0.90006990  1
  N  N442  1  0.80503736  0.55485196  0.91104630  1
  N  N443  1  0.82594512  0.88696202  0.89797484  1
  N  N444  1  0.32103043  0.11448683  0.10467325  1
  N  N445  1  0.30172198  0.44142630  0.09165954  1
  N  N446  1  0.32099877  0.77961860  0.10551858  1
  N  N447  1  0.80899197  0.11359292  0.08930382  1
  N  N448  1  0.80421510  0.44309106  0.09718597  1
  N  N449  1  0.81988395  0.77823488  0.09580152  1
  N  N450  1  0.19671792  0.22732934  0.59056478  1
  N  N451  1  0.18604546  0.55448399  0.59626304  1
  N  N452  1  0.18095508  0.88820852  0.60200791  1
  N  N453  1  0.69108473  0.22129234  0.59325735  1
  N  N454  1  0.68816311  0.55840987  0.59257733  1
  N  N455  1  0.67555749  0.88774101  0.60746407  1
  Cl  Cl456  1  0.24506806  0.06186128  0.59871937  1
  Cl  Cl457  1  0.24690088  0.38341438  0.62343642  1
  Cl  Cl458  1  0.23872616  0.72954114  0.60800923  1
  Cl  Cl459  1  0.74949629  0.04724291  0.63033882  1
  Cl  Cl460  1  0.73795000  0.39246074  0.60083095  1
  Cl  Cl461  1  0.74276362  0.71499921  0.62047548  1
  Cl  Cl462  1  0.24486407  0.28204318  0.12614608  1
  Cl  Cl463  1  0.25512611  0.61469539  0.11858286  1
  Cl  Cl464  1  0.24014658  0.94597020  0.11269048  1
  Cl  Cl465  1  0.74173607  0.27592315  0.11483337  1
  Cl  Cl466  1  0.75780942  0.60735586  0.10553224  1
  Cl  Cl467  1  0.74481709  0.94949641  0.12682890  1
  Cl  Cl468  1  0.25286168  0.05713462  0.87390585  1
  Cl  Cl469  1  0.26198624  0.38704450  0.89070184  1
  Cl  Cl470  1  0.24054175  0.72943239  0.89534467  1
  Cl  Cl471  1  0.75085014  0.06104252  0.89701960  1
  Cl  Cl472  1  0.75571164  0.38241008  0.86846910  1
  Cl  Cl473  1  0.73982414  0.72441407  0.88812237  1
  Cl  Cl474  1  0.23964206  0.27783307  0.39319892  1
  Cl  Cl475  1  0.24825501  0.61385287  0.38508210  1
  Cl  Cl476  1  0.25860331  0.95061089  0.37814440  1
  Cl  Cl477  1  0.73697735  0.27870335  0.38576175  1
  Cl  Cl478  1  0.74956939  0.60901501  0.38423106  1
  Cl  Cl479  1  0.76162656  0.93676085  0.39912982  1
  Cl  Cl480  1  0.00910560  0.21986736  0.61039518  1
  Cl  Cl481  1  -0.00106825  0.55249877  0.62321284  1
  Cl  Cl482  1  -0.01567382  0.89574981  0.59844539  1
  Cl  Cl483  1  0.50858247  0.22224523  0.62339324  1
  Cl  Cl484  1  0.50299649  0.55146554  0.61630553  1
  Cl  Cl485  1  0.49178010  0.88860331  0.61700405  1
  Cl  Cl486  1  -0.00292594  0.10814603  0.10945263  1
  Cl  Cl487  1  -0.01180111  0.44536090  0.12007398  1
  Cl  Cl488  1  0.01184935  0.78105621  0.11661366  1
  Cl  Cl489  1  0.50204424  0.12004863  0.13063719  1
  Cl  Cl490  1  0.48953084  0.43748400  0.10409642  1
  Cl  Cl491  1  0.50681844  0.77666882  0.11094162  1
  Cl  Cl492  1  0.00713127  0.22132630  0.87568237  1
  Cl  Cl493  1  -0.01133355  0.55581035  0.89133513  1
  Cl  Cl494  1  0.01046191  0.88719383  0.87039304  1
  Cl  Cl495  1  0.50724169  0.22631978  0.89413950  1
  Cl  Cl496  1  0.49753365  0.55210202  0.88122643  1
  Cl  Cl497  1  0.51286512  0.88523738  0.88561312  1
  Cl  Cl498  1  0.00852748  0.10216810  0.38814464  1
  Cl  Cl499  1  0.00476833  0.44328357  0.38581298  1
  Cl  Cl500  1  0.01370056  0.77109087  0.39589576  1
  Cl  Cl501  1  0.50452217  0.11148327  0.39676017  1
  Cl  Cl502  1  0.50696755  0.44242661  0.37301913  1
  Cl  Cl503  1  0.50443485  0.78841399  0.37921770  1
  Cl  Cl504  1  0.36059406  0.14476285  0.74260765  1
  Cl  Cl505  1  0.36147265  0.47965276  0.74986904  1
  Cl  Cl506  1  0.36074069  0.81272229  0.75330845  1
  Cl  Cl507  1  0.86438744  0.14478979  0.75251508  1
  Cl  Cl508  1  0.85512085  0.48404776  0.74449305  1
  Cl  Cl509  1  0.86126193  0.81234318  0.75457298  1
  Cl  Cl510  1  0.14498579  0.18438064  0.25583567  1
  Cl  Cl511  1  0.14073962  0.51977083  0.24338215  1
  Cl  Cl512  1  0.14271009  0.85183257  0.25675931  1
  Cl  Cl513  1  0.64371285  0.18132427  0.25135010  1
  Cl  Cl514  1  0.64257091  0.52169725  0.24996429  1
  Cl  Cl515  1  0.64626709  0.85509482  0.25487001  1
  Cl  Cl516  1  0.14063625  0.14926590  0.74967391  1
  Cl  Cl517  1  0.13985346  0.48123893  0.75370044  1
  Cl  Cl518  1  0.14230891  0.81299055  0.74607221  1
  Cl  Cl519  1  0.64488002  0.15053362  0.74893626  1
  Cl  Cl520  1  0.63680759  0.48056980  0.75114735  1
  Cl  Cl521  1  0.63994545  0.81642298  0.74519830  1
  Cl  Cl522  1  0.36256345  0.18778723  0.24974436  1
  Cl  Cl523  1  0.36292287  0.51868384  0.25309848  1
  Cl  Cl524  1  0.36276213  0.85211767  0.24555332  1
  Cl  Cl525  1  0.86491722  0.18797517  0.26020294  1
  Cl  Cl526  1  0.86017008  0.51873126  0.25284061  1
  Cl  Cl527  1  0.86505902  0.85400628  0.25032479  1
  Cl  Cl528  1  0.10925361  0.31650293  0.74456132  1
  Cl  Cl529  1  0.10907816  0.64782893  0.75119527  1
  Cl  Cl530  1  0.10678592  0.98143942  0.73927720  1
  Cl  Cl531  1  0.60788965  0.31516307  0.75223168  1
  Cl  Cl532  1  0.60789351  0.64865389  0.75759621  1
  Cl  Cl533  1  0.61097879  0.98080014  0.74613696  1
  Cl  Cl534  1  0.39223289  0.01983540  0.25065023  1
  Cl  Cl535  1  0.39228295  0.35371271  0.25073072  1
  Cl  Cl536  1  0.39577808  0.68806141  0.24461659  1
  Cl  Cl537  1  0.89325848  0.02187167  0.24970316  1
  Cl  Cl538  1  0.88509329  0.35289382  0.25215031  1
  Cl  Cl539  1  0.88983073  0.68722257  0.25290496  1
  Cl  Cl540  1  0.38843684  0.31218277  0.74717384  1
  Cl  Cl541  1  0.38764369  0.64895879  0.74762519  1
  Cl  Cl542  1  0.38837370  0.98030837  0.75295103  1
  Cl  Cl543  1  0.88901168  0.31456087  0.74540156  1
  Cl  Cl544  1  0.88636799  0.64836755  0.75066767  1
  Cl  Cl545  1  0.88947090  0.97766190  0.74549978  1
  Cl  Cl546  1  0.11198334  0.01872450  0.25207677  1
  Cl  Cl547  1  0.10713722  0.35115192  0.24801159  1
  Cl  Cl548  1  0.11305464  0.68550308  0.24709516  1
  Cl  Cl549  1  0.61152945  0.01918446  0.25755739  1
  Cl  Cl550  1  0.61079011  0.35197195  0.24553361  1
  Cl  Cl551  1  0.61633989  0.68838098  0.25318324  1
