# generated using pymatgen
data_H8PbC4(N3Cl2)2
_symmetry_space_group_name_H-M   'P 1'
_cell_length_a   16.63805744
_cell_length_b   22.54834935
_cell_length_c   21.60070237
_cell_angle_alpha   90.00086606
_cell_angle_beta   90.07648756
_cell_angle_gamma   90.01552254
_symmetry_Int_Tables_number   1
_chemical_formula_structural   H8PbC4(N3Cl2)2
_chemical_formula_sum   'H192 Pb24 C96 N144 Cl96'
_cell_volume   8103.72778460
_cell_formula_units_Z   24
loop_
 _symmetry_equiv_pos_site_id
 _symmetry_equiv_pos_as_xyz
  1  'x, y, z'
loop_
 _atom_site_type_symbol
 _atom_site_label
 _atom_site_symmetry_multiplicity
 _atom_site_fract_x
 _atom_site_fract_y
 _atom_site_fract_z
 _atom_site_occupancy
  H  H0  1  -0.02486742  0.03152988  0.67597573  1
  H  H1  1  0.00412148  0.35737865  0.67086543  1
  H  H2  1  -0.00246600  0.69442099  0.68110838  1
  H  H3  1  0.47265210  0.02380573  0.65289687  1
  H  H4  1  0.50206260  0.36576915  0.68116174  1
  H  H5  1  0.52612367  0.69688128  0.65708322  1
  H  H6  1  0.00737197  0.29665244  0.18120721  1
  H  H7  1  -0.01694736  0.63680994  0.17022707  1
  H  H8  1  -0.02321340  0.96602690  0.15803804  1
  H  H9  1  0.48760877  0.30126294  0.17725360  1
  H  H10  1  0.51160042  0.63886361  0.17548431  1
  H  H11  1  0.47799271  0.96978493  0.18440239  1
  H  H12  1  -0.00390936  0.02459633  0.82519351  1
  H  H13  1  0.03083535  0.35179276  0.84861324  1
  H  H14  1  0.00925417  0.69329560  0.82786211  1
  H  H15  1  0.51102641  0.02669617  0.82641642  1
  H  H16  1  0.53650448  0.35920893  0.84424254  1
  H  H17  1  0.48557042  0.69377904  0.81772043  1
  H  H18  1  -0.00253987  0.30713928  0.32668139  1
  H  H19  1  0.02111088  0.63473119  0.32236049  1
  H  H20  1  0.02019011  0.98258953  0.31962805  1
  H  H21  1  0.50836052  0.30788691  0.31939085  1
  H  H22  1  0.48296853  0.63841134  0.32058441  1
  H  H23  1  0.50135443  0.95967516  0.35605934  1
  H  H24  1  0.26777897  0.19615731  0.67977917  1
  H  H25  1  0.26647587  0.52140278  0.67723004  1
  H  H26  1  0.22229684  0.85300135  0.66894755  1
  H  H27  1  0.73988836  0.20567409  0.67841461  1
  H  H28  1  0.74053285  0.52225659  0.67618052  1
  H  H29  1  0.74222996  0.86503393  0.65602787  1
  H  H30  1  0.25819948  0.13122619  0.17870791  1
  H  H31  1  0.21703311  0.47839171  0.15610893  1
  H  H32  1  0.25994807  0.80113263  0.18166507  1
  H  H33  1  0.74663620  0.14248417  0.17186704  1
  H  H34  1  0.71116564  0.46213915  0.15939473  1
  H  H35  1  0.73942495  0.80266742  0.18307509  1
  H  H36  1  0.23758603  0.19375130  0.82405945  1
  H  H37  1  0.26861076  0.53225214  0.82395670  1
  H  H38  1  0.24354573  0.86319171  0.81820413  1
  H  H39  1  0.74090781  0.19805026  0.82024951  1
  H  H40  1  0.72892522  0.52792454  0.82019363  1
  H  H41  1  0.77030378  0.86719528  0.84538749  1
  H  H42  1  0.27776061  0.13093144  0.33872619  1
  H  H43  1  0.24622989  0.46779440  0.32665468  1
  H  H44  1  0.22910918  0.80376653  0.32137611  1
  H  H45  1  0.74159160  0.14130513  0.32137592  1
  H  H46  1  0.74667445  0.47121348  0.32082833  1
  H  H47  1  0.72173725  0.80220869  0.34306242  1
  H  H48  1  0.10357841  0.05792789  0.61309846  1
  H  H49  1  0.10943792  0.39557156  0.59279987  1
  H  H50  1  0.14169531  0.71173550  0.63456262  1
  H  H51  1  0.57837438  0.06787683  0.57654557  1
  H  H52  1  0.61358228  0.39107005  0.60020587  1
  H  H53  1  0.65875917  0.72136774  0.59920583  1
  H  H54  1  0.36105716  0.27829500  0.10725729  1
  H  H55  1  0.37009456  0.60890462  0.13181281  1
  H  H56  1  0.35829309  0.94531891  0.10880375  1
  H  H57  1  0.87170723  0.28098759  0.12507509  1
  H  H58  1  0.88012646  0.60809592  0.08615605  1
  H  H59  1  0.84005712  0.94817847  0.10246651  1
  H  H60  1  0.36824173  0.04995654  0.87322075  1
  H  H61  1  0.42412354  0.39632837  0.91890171  1
  H  H62  1  0.38451459  0.72488135  0.90422399  1
  H  H63  1  0.86398575  0.05388707  0.88538718  1
  H  H64  1  0.92069070  0.39579877  0.92047919  1
  H  H65  1  0.88324933  0.72280342  0.89298870  1
  H  H66  1  0.11468044  0.27724238  0.40034205  1
  H  H67  1  0.12632541  0.60677958  0.40639422  1
  H  H68  1  0.13401042  0.94974859  0.39780584  1
  H  H69  1  0.60815424  0.27894821  0.40524869  1
  H  H70  1  0.63054232  0.62323663  0.36201334  1
  H  H71  1  0.64438065  0.94903850  0.40044704  1
  H  H72  1  0.39437661  0.22099919  0.61208061  1
  H  H73  1  0.36740203  0.56187126  0.59499510  1
  H  H74  1  0.36835841  0.87769654  0.62748211  1
  H  H75  1  0.88285475  0.21821583  0.62827446  1
  H  H76  1  0.86506296  0.55102258  0.60736764  1
  H  H77  1  0.83821467  0.90881729  0.57287420  1
  H  H78  1  0.13987261  0.11276319  0.10278821  1
  H  H79  1  0.08111731  0.44780990  0.10249915  1
  H  H80  1  0.11542784  0.78535562  0.13298954  1
  H  H81  1  0.64667468  0.10365293  0.08819035  1
  H  H82  1  0.57748611  0.44234638  0.09961519  1
  H  H83  1  0.62136871  0.77750445  0.10517859  1
  H  H84  1  0.13364486  0.22418766  0.90777464  1
  H  H85  1  0.12597839  0.54798378  0.87522897  1
  H  H86  1  0.13582979  0.89264834  0.89757876  1
  H  H87  1  0.63057690  0.22529264  0.90216448  1
  H  H88  1  0.63550429  0.56215758  0.91071164  1
  H  H89  1  0.66743101  0.90159699  0.92895852  1
  H  H90  1  0.41099694  0.10742560  0.39706247  1
  H  H91  1  0.38496125  0.44735850  0.38155638  1
  H  H92  1  0.35933414  0.78265337  0.38403222  1
  H  H93  1  0.88618488  0.11967250  0.36656982  1
  H  H94  1  0.88219107  0.45062619  0.37989712  1
  H  H95  1  0.82771726  0.76483723  0.42337002  1
  H  H96  1  0.36479867  0.28992958  0.36637306  1
  H  H97  1  0.39047258  0.60908460  0.41068494  1
  H  H98  1  0.40550410  0.92534311  0.44369038  1
  H  H99  1  0.86705477  0.28346657  0.39075003  1
  H  H100  1  0.88058779  0.61593647  0.37567518  1
  H  H101  1  0.88778752  0.94500619  0.37046562  1
  H  H102  1  0.11235480  0.05810609  0.89918143  1
  H  H103  1  0.16714570  0.38116209  0.90218809  1
  H  H104  1  0.13201339  0.72341795  0.89774218  1
  H  H105  1  0.61099595  0.06045184  0.91202683  1
  H  H106  1  0.67043989  0.38869328  0.90253440  1
  H  H107  1  0.62685587  0.71774567  0.86360613  1
  H  H108  1  0.11758858  0.27360479  0.09949816  1
  H  H109  1  0.12449340  0.61666599  0.12143532  1
  H  H110  1  0.08629611  0.93853136  0.07887528  1
  H  H111  1  0.60919664  0.27215349  0.10601109  1
  H  H112  1  0.61212443  0.60619760  0.08990143  1
  H  H113  1  0.60680190  0.94988953  0.11691869  1
  H  H114  1  0.33318541  0.04589886  0.60100992  1
  H  H115  1  0.36665276  0.38478575  0.62155019  1
  H  H116  1  0.41161754  0.72957481  0.58347599  1
  H  H117  1  0.85609685  0.05883685  0.60090005  1
  H  H118  1  0.86464309  0.38198130  0.61873636  1
  H  H119  1  0.90050976  0.72924358  0.59428561  1
  H  H120  1  0.16360094  0.10621415  0.41534158  1
  H  H121  1  0.13962057  0.43699341  0.40748330  1
  H  H122  1  0.11173822  0.77989429  0.39482532  1
  H  H123  1  0.64678677  0.10663214  0.40950380  1
  H  H124  1  0.63550928  0.44084040  0.39980654  1
  H  H125  1  0.58196565  0.78245507  0.39421255  1
  H  H126  1  0.37802293  0.21486065  0.87650450  1
  H  H127  1  0.36785716  0.56372756  0.91228349  1
  H  H128  1  0.38125339  0.88246906  0.87634640  1
  H  H129  1  0.87619850  0.22254951  0.87882324  1
  H  H130  1  0.87464265  0.54561874  0.86501834  1
  H  H131  1  0.91123350  0.88692696  0.89538094  1
  H  H132  1  0.38761949  0.11427010  0.11516363  1
  H  H133  1  0.32806887  0.43778067  0.08258142  1
  H  H134  1  0.35761139  0.76923636  0.09412089  1
  H  H135  1  0.88907246  0.11957841  0.12527955  1
  H  H136  1  0.82504728  0.43304348  0.08226111  1
  H  H137  1  0.86927091  0.78203450  0.11817256  1
  H  H138  1  0.14576027  0.22327149  0.60648384  1
  H  H139  1  0.12529365  0.54416609  0.62681435  1
  H  H140  1  0.12952942  0.89409992  0.58129955  1
  H  H141  1  0.64204963  0.22895950  0.58731154  1
  H  H142  1  0.61666712  0.55196817  0.60789862  1
  H  H143  1  0.59712702  0.88386847  0.61127715  1
  H  H144  1  0.40666960  0.24865324  0.00363307  1
  H  H145  1  0.05631554  0.57291398  0.50704419  1
  H  H146  1  0.89375851  0.25295267  1.00942821  1
  H  H147  1  0.26422027  0.41005229  -0.02061826  1
  H  H148  1  0.28535181  0.59084046  0.49836047  1
  H  H149  1  0.95267223  0.58048856  0.98281401  1
  H  H150  1  0.75597556  0.74266410  0.52446181  1
  H  H151  1  0.91197353  0.08719961  0.49778531  1
  H  H152  1  0.83130309  0.75522618  0.00639152  1
  H  H153  1  0.61549647  0.75372679  0.97583158  1
  H  H154  1  0.52992781  0.57555484  -0.00598726  1
  H  H155  1  0.89516602  0.08335581  0.99474198  1
  H  H156  1  0.16328537  0.74917243  0.50473228  1
  H  H157  1  0.70216844  0.24894423  1.00319250  1
  H  H158  1  0.50858783  0.08968313  0.47411553  1
  H  H159  1  0.90479202  0.24577360  0.49433268  1
  H  H160  1  0.76376751  0.41177894  -0.02343500  1
  H  H161  1  0.98451902  0.42141185  1.02451830  1
  H  H162  1  0.66141930  0.58318702  0.49862220  1
  H  H163  1  0.36375527  0.41620135  0.49140672  1
  H  H164  1  0.72675528  0.08200277  -0.01139227  1
  H  H165  1  0.46719547  0.76129829  0.47602913  1
  H  H166  1  0.46381083  0.74901111  1.00156731  1
  H  H167  1  0.52955077  0.25146669  0.50803763  1
  H  H168  1  0.73182757  0.08268052  0.50504362  1
  H  H169  1  0.88491325  0.41643684  0.50978768  1
  H  H170  1  0.35561947  0.08895356  0.99955081  1
  H  H171  1  0.21953823  0.07774508  0.52356939  1
  H  H172  1  0.91756054  0.89512655  0.47552651  1
  H  H173  1  0.98115381  0.75224754  0.49691322  1
  H  H174  1  0.20571799  0.92598980  1.00157176  1
  H  H175  1  0.08239216  0.75364878  1.00148550  1
  H  H176  1  0.05295431  0.25735998  0.50511101  1
  H  H177  1  0.05263599  0.09485637  1.00381217  1
  H  H178  1  0.41460923  0.91381827  0.00325028  1
  H  H179  1  0.35362822  0.25335633  0.50205991  1
  H  H180  1  0.02389741  0.90842234  -0.02761007  1
  H  H181  1  0.75788192  0.92890938  0.47390344  1
  H  H182  1  0.47677167  0.58030789  0.50955840  1
  H  H183  1  0.72700153  0.25255034  0.49069699  1
  H  H184  1  0.90235579  0.58445033  0.48403116  1
  H  H185  1  0.22220382  0.91920464  0.48762782  1
  H  H186  1  0.52874920  0.08398163  1.01064378  1
  H  H187  1  0.72567357  0.58828767  1.00331733  1
  H  H188  1  0.48874346  0.42055584  1.02180128  1
  H  H189  1  0.06299456  0.92455631  0.49860147  1
  H  H190  1  0.27581243  0.74097255  -0.00470128  1
  H  H191  1  0.14002029  0.58388283  0.98481565  1
  Pb  Pb192  1  0.24852722  0.04832640  0.75809584  1
  Pb  Pb193  1  0.24691952  0.38424131  0.75084414  1
  Pb  Pb194  1  0.26358645  0.72111675  0.74920840  1
  Pb  Pb195  1  0.74057671  0.05384138  0.74087659  1
  Pb  Pb196  1  0.75682226  0.38187495  0.75362300  1
  Pb  Pb197  1  0.75995561  0.72279002  0.75138162  1
  Pb  Pb198  1  0.24352114  0.27606624  0.24566880  1
  Pb  Pb199  1  0.24657990  0.61642452  0.26705615  1
  Pb  Pb200  1  0.24110507  0.94829954  0.24612776  1
  Pb  Pb201  1  0.74344878  0.28181527  0.25087728  1
  Pb  Pb202  1  0.74699624  0.61206766  0.23448443  1
  Pb  Pb203  1  0.74765618  0.95061418  0.24977911  1
  Pb  Pb204  1  0.00715449  0.21568070  0.74856665  1
  Pb  Pb205  1  0.00089131  0.55149107  0.74225894  1
  Pb  Pb206  1  0.00386506  0.88763862  0.72948118  1
  Pb  Pb207  1  0.49997569  0.21958493  0.74918911  1
  Pb  Pb208  1  0.50402097  0.55054546  0.75462715  1
  Pb  Pb209  1  0.51236818  0.88789947  0.76929066  1
  Pb  Pb210  1  0.01114389  0.11634326  0.25473757  1
  Pb  Pb211  1  -0.00215169  0.44737008  0.25189732  1
  Pb  Pb212  1  -0.01198770  0.77996272  0.26595556  1
  Pb  Pb213  1  0.50131189  0.10882700  0.24389507  1
  Pb  Pb214  1  0.49208511  0.44816348  0.24558440  1
  Pb  Pb215  1  0.49648754  0.78425077  0.23243686  1
  C  C216  1  -0.02223061  0.04846812  0.62912531  1
  C  C217  1  -0.00792077  0.37644429  0.62582771  1
  C  C218  1  0.01317942  0.70973183  0.63509331  1
  C  C219  1  0.46202943  0.04443093  0.60799859  1
  C  C220  1  0.49414303  0.37990865  0.63371145  1
  C  C221  1  0.53246305  0.71441732  0.61036129  1
  C  C222  1  -0.00196204  0.28362758  0.13346446  1
  C  C223  1  -0.00417942  0.62159173  0.12362108  1
  C  C224  1  -0.03261598  0.94952788  0.11116823  1
  C  C225  1  0.48565594  0.28465749  0.13019703  1
  C  C226  1  0.49782443  0.61973410  0.13085947  1
  C  C227  1  0.48099166  0.95412748  0.13695746  1
  C  C228  1  -0.00997755  0.04405547  0.87110496  1
  C  C229  1  0.03918450  0.37392457  0.89295453  1
  C  C230  1  0.00871258  0.71177752  0.87416015  1
  C  C231  1  0.49677052  0.04303377  0.87237522  1
  C  C232  1  0.54380795  0.37900852  0.88985982  1
  C  C233  1  0.49916633  0.71057124  0.86375583  1
  C  C234  1  -0.00712048  0.28935054  0.37335120  1
  C  C235  1  0.00867853  0.61903377  0.36902352  1
  C  C236  1  0.01401394  0.96129054  0.36453593  1
  C  C237  1  0.49363929  0.29264075  0.36561795  1
  C  C238  1  0.50140125  0.62317713  0.36613937  1
  C  C239  1  0.51799648  0.94523926  0.40224540  1
  C  C240  1  0.26911531  0.21272223  0.63267692  1
  C  C241  1  0.25332320  0.54103481  0.63257899  1
  C  C242  1  0.23952303  0.87297967  0.62516519  1
  C  C243  1  0.75488163  0.21714269  0.63102571  1
  C  C244  1  0.74078555  0.54110929  0.63001993  1
  C  C245  1  0.72661718  0.88409701  0.61125646  1
  C  C246  1  0.26262002  0.11973060  0.13015201  1
  C  C247  1  0.20899702  0.45663431  0.11154270  1
  C  C248  1  0.24393977  0.78583889  0.13564143  1
  C  C249  1  0.76041844  0.12467023  0.12640363  1
  C  C250  1  0.70525602  0.44735408  0.11173451  1
  C  C251  1  0.74301360  0.78804375  0.13522534  1
  C  C252  1  0.25023342  0.21025800  0.86997262  1
  C  C253  1  0.25384312  0.54817971  0.86999386  1
  C  C254  1  0.25415778  0.87933512  0.86491411  1
  C  C255  1  0.74900893  0.21428465  0.86710604  1
  C  C256  1  0.74609032  0.54506338  0.86520762  1
  C  C257  1  0.78287501  0.88476170  0.89122096  1
  C  C258  1  0.28460990  0.11585431  0.38628640  1
  C  C259  1  0.25755513  0.45240454  0.37335402  1
  C  C260  1  0.23302789  0.78827024  0.36873384  1
  C  C261  1  0.75839877  0.12448645  0.36666317  1
  C  C262  1  0.75479694  0.45534490  0.36767572  1
  C  C263  1  0.71085228  0.78430732  0.38908806  1
  C  C264  1  -0.00913816  0.92044503  0.01404330  1
  C  C265  1  0.57734560  0.59811396  0.44591462  1
  C  C266  1  0.42402202  0.26774231  0.44882320  1
  C  C267  1  0.96426933  0.74589145  0.96461116  1
  C  C268  1  0.25516270  0.08831766  0.48286221  1
  C  C269  1  0.02716759  0.58658869  0.46430131  1
  C  C270  1  0.58549102  0.74251809  0.51975266  1
  C  C271  1  0.30970576  0.24175526  0.54122057  1
  C  C272  1  0.23557496  0.91108569  0.95935131  1
  C  C273  1  0.40016019  0.07666902  0.52317903  1
  C  C274  1  0.15327365  0.42189554  0.02591323  1
  C  C275  1  0.23582614  0.24103989  0.96559964  1
  C  C276  1  0.50324888  0.26361129  0.46350051  1
  C  C277  1  0.43050041  0.58114421  0.05180107  1
  C  C278  1  0.20151991  0.75973809  0.46432240  1
  C  C279  1  0.23692750  0.41897968  0.46878541  1
  C  C280  1  0.65595239  0.91372944  0.52980562  1
  C  C281  1  0.09527112  0.40849735  0.97842717  1
  C  C282  1  0.02623476  0.08356211  0.54035546  1
  C  C283  1  0.02182856  0.25808362  0.03651243  1
  C  C284  1  0.84367713  0.91141843  0.97721861  1
  C  C285  1  0.33790661  0.08965167  0.47747442  1
  C  C286  1  0.98218652  0.59320321  0.02581383  1
  C  C287  1  0.50286153  0.74693000  0.51543388  1
  C  C288  1  0.08321090  0.73730238  0.55298286  1
  C  C289  1  0.44201635  0.40413725  0.54444094  1
  C  C290  1  0.42856686  0.07523342  0.95369296  1
  C  C291  1  0.78811235  0.76392972  0.04365483  1
  C  C292  1  0.01141795  0.41618317  0.53288726  1
  C  C293  1  0.82795203  0.09437505  0.04427014  1
  C  C294  1  0.64793613  0.75405809  0.47402829  1
  C  C295  1  0.45090874  0.92470701  0.04356784  1
  C  C296  1  0.90860268  0.92297655  0.02209881  1
  C  C297  1  0.96018100  0.91715340  0.44503559  1
  C  C298  1  0.94085963  0.26072308  0.04365789  1
  C  C299  1  0.22935327  0.09757834  0.03412835  1
  C  C300  1  0.56589834  0.74307076  0.94471998  1
  C  C301  1  0.58868170  0.92277368  0.48769698  1
  C  C302  1  0.25103645  0.75506836  0.03987222  1
  C  C303  1  0.06203153  0.59740906  0.03863710  1
  C  C304  1  0.50761464  0.91383445  0.50038853  1
  C  C305  1  0.28251804  0.76036802  0.45893230  1
  C  C306  1  0.80671435  0.42863951  0.45632126  1
  C  C307  1  0.31054905  0.09784821  0.03662062  1
  C  C308  1  0.70373020  0.57172384  0.53814317  1
  C  C309  1  0.65144559  0.42196605  0.02236600  1
  C  C310  1  0.01968028  0.07977044  0.96312277  1
  C  C311  1  0.49964097  0.59299960  0.46413459  1
  N  N312  1  0.75052007  0.08933196  0.03296995  1
  N  N313  1  0.94770295  0.08051529  0.53671687  1
  N  N314  1  0.94059231  0.07683762  0.95805597  1
  N  N315  1  0.50747391  0.58212179  0.03850782  1
  N  N316  1  0.23056803  0.24239696  0.53892848  1
  N  N317  1  0.51901560  0.40685936  0.53641660  1
  N  N318  1  0.76531558  0.91722200  0.98795670  1
  N  N319  1  0.03863720  0.92217619  0.45489276  1
  N  N320  1  0.82387341  0.23240622  0.54602433  1
  N  N321  1  0.74798880  0.23767148  0.53375473  1
  N  N322  1  0.73447477  0.92376765  0.51868962  1
  N  N323  1  0.23326197  0.41555879  0.02158296  1
  N  N324  1  0.74454889  0.58039184  0.95774600  1
  N  N325  1  0.80676127  0.24261449  0.95382980  1
  N  N326  1  0.73121783  0.41500307  0.01832418  1
  N  N327  1  0.48800689  0.74483668  0.95750238  1
  N  N328  1  0.78301777  0.57337422  0.53809678  1
  N  N329  1  0.75349171  0.09014408  0.45970088  1
  N  N330  1  0.70909983  0.76270691  0.03894392  1
  N  N331  1  0.72774182  0.74578130  0.48099734  1
  N  N332  1  0.52989729  0.92419304  0.04642785  1
  N  N333  1  0.31404564  0.90673455  0.95245478  1
  N  N334  1  0.19107199  0.57552568  0.95274687  1
  N  N335  1  1.00643305  0.74260240  0.54054019  1
  N  N336  1  0.31343314  0.90716143  0.54864950  1
  N  N337  1  0.31220521  0.23851020  0.95619568  1
  N  N338  1  0.04335198  0.74561567  0.96483013  1
  N  N339  1  0.82011793  0.57509651  0.94377550  1
  N  N340  1  0.50586197  0.07838886  0.96591444  1
  N  N341  1  0.59619384  0.41078430  0.97668564  1
  N  N342  1  0.94892552  0.58930766  0.45310930  1
  N  N343  1  0.94563794  0.26455499  0.46284907  1
  N  N344  1  0.72931685  0.24461143  0.96049709  1
  N  N345  1  0.18650176  0.57480423  0.55179756  1
  N  N346  1  0.26313491  0.58116489  0.54244219  1
  N  N347  1  0.02359964  0.25320578  0.46336198  1
  N  N348  1  0.31454094  0.42419964  0.45935653  1
  N  N349  1  0.52452872  0.25424898  0.03772819  1
  N  N350  1  0.26705016  0.58004518  0.96606204  1
  N  N351  1  0.51651515  0.42291777  0.97797029  1
  N  N352  1  1.01542449  0.41639559  0.98224793  1
  N  N353  1  0.17393817  0.76098677  0.05224226  1
  N  N354  1  0.47990838  0.08557306  0.51724278  1
  N  N355  1  0.23817784  0.91160064  0.53398253  1
  N  N356  1  0.82921759  0.09444789  0.44651618  1
  N  N357  1  0.44646407  0.25678456  0.03994125  1
  N  N358  1  0.72968913  0.42471076  0.46383770  1
  N  N359  1  0.93397925  0.40912990  0.54191856  1
  N  N360  1  0.04505255  0.06380492  0.59742542  1
  N  N361  1  0.04784545  0.39574472  0.58450656  1
  N  N362  1  0.08801457  0.71776737  0.61195545  1
  N  N363  1  0.51756746  0.06172617  0.56792112  1
  N  N364  1  0.55132549  0.39110687  0.59319221  1
  N  N365  1  0.60160485  0.72205772  0.58001080  1
  N  N366  1  0.42151026  0.27672303  0.09503443  1
  N  N367  1  0.42455425  0.60369685  0.10923338  1
  N  N368  1  0.41914022  0.94297193  0.09886500  1
  N  N369  1  0.92749203  0.27665792  0.10501183  1
  N  N370  1  0.94171467  0.60856449  0.08010490  1
  N  N371  1  0.89656482  0.94042179  0.08348946  1
  N  N372  1  0.42276162  0.05486922  0.89516526  1
  N  N373  1  0.48519239  0.39400895  0.92864262  1
  N  N374  1  0.44703796  0.72141997  0.90858015  1
  N  N375  1  0.92253378  0.05298361  0.90192198  1
  N  N376  1  0.98152046  0.39058965  0.93132651  1
  N  N377  1  0.94270698  0.72567044  0.90819546  1
  N  N378  1  0.05340699  0.27815713  0.41143933  1
  N  N379  1  0.06455858  0.60436528  0.41193839  1
  N  N380  1  0.07138572  0.95240411  0.40602057  1
  N  N381  1  0.54591542  0.27924031  0.41032292  1
  N  N382  1  0.57804368  0.61593166  0.38660168  1
  N  N383  1  0.59199171  0.94224398  0.42547925  1
  N  N384  1  0.33466502  0.22374705  0.59858123  1
  N  N385  1  0.30534734  0.55784621  0.58980517  1
  N  N386  1  0.31347121  0.88507045  0.60599046  1
  N  N387  1  0.82797088  0.21901945  0.60646416  1
  N  N388  1  0.80428595  0.55426406  0.59593957  1
  N  N389  1  0.77777790  0.90056234  0.56740485  1
  N  N390  1  0.20050925  0.11057151  0.09032821  1
  N  N391  1  0.13822348  0.44507872  0.08351988  1
  N  N392  1  0.17119527  0.77989660  0.11207130  1
  N  N393  1  0.70795850  0.11182443  0.08239924  1
  N  N394  1  0.63498962  0.43996167  0.08117816  1
  N  N395  1  0.68245955  0.77778468  0.09678115  1
  N  N396  1  0.19556367  0.22449749  0.91382003  1
  N  N397  1  0.18193214  0.55666514  0.89430810  1
  N  N398  1  0.19761777  0.89425430  0.90616278  1
  N  N399  1  0.69268144  0.22436890  0.90901523  1
  N  N400  1  0.69796341  0.55951286  0.91149732  1
  N  N401  1  0.72955467  0.90043119  0.93373932  1
  N  N402  1  0.35379895  0.10702823  0.41622608  1
  N  N403  1  0.32794747  0.44609597  0.40078231  1
  N  N404  1  0.30116410  0.77735922  0.40150924  1
  N  N405  1  0.83195265  0.11394440  0.38797303  1
  N  N406  1  0.82480012  0.44702740  0.39758899  1
  N  N407  1  0.76583140  0.76909634  0.43049062  1
  N  N408  1  0.41879386  0.28492701  0.38936520  1
  N  N409  1  0.45292211  0.60907487  0.41301583  1
  N  N410  1  0.46691692  0.92783954  0.44875748  1
  N  N411  1  0.92609141  0.27701952  0.40404130  1
  N  N412  1  0.93782057  0.61037365  0.39483445  1
  N  N413  1  0.94506701  0.94002081  0.38866739  1
  N  N414  1  0.05080787  0.05995874  0.90920141  1
  N  N415  1  0.11003091  0.38470858  0.92112040  1
  N  N416  1  0.07140101  0.72331169  0.90963024  1
  N  N417  1  0.54878366  0.05503486  0.91692837  1
  N  N418  1  0.61241677  0.38782668  0.91928833  1
  N  N419  1  0.57279506  0.72309460  0.88612502  1
  N  N420  1  0.05599486  0.27208675  0.09062814  1
  N  N421  1  0.06954902  0.61437796  0.09824466  1
  N  N422  1  0.02518904  0.93726157  0.06968937  1
  N  N423  1  0.54831229  0.27075792  0.09469352  1
  N  N424  1  0.54981184  0.60837107  0.08600601  1
  N  N425  1  0.54684267  0.94211641  0.10480393  1
  N  N426  1  0.38993617  0.05351750  0.58136474  1
  N  N427  1  0.42406310  0.38833461  0.60388249  1
  N  N428  1  0.47241242  0.72909335  0.57157958  1
  N  N429  1  0.91668017  0.05700766  0.59093231  1
  N  N430  1  0.92133491  0.38341072  0.59903254  1
  N  N431  1  0.96243478  0.72305232  0.59025527  1
  N  N432  1  0.22449880  0.10489243  0.42621605  1
  N  N433  1  0.20121313  0.43662186  0.41579703  1
  N  N434  1  0.17141889  0.77706481  0.40647826  1
  N  N435  1  0.70916015  0.11128604  0.41261343  1
  N  N436  1  0.69759125  0.44178609  0.40742261  1
  N  N437  1  0.63835257  0.77603610  0.41532005  1
  N  N438  1  0.32124805  0.21915815  0.89543793  1
  N  N439  1  0.30582170  0.56305653  0.91433517  1
  N  N440  1  0.32392648  0.88744831  0.89314142  1
  N  N441  1  0.81832816  0.22621348  0.89514960  1
  N  N442  1  0.82024255  0.55515799  0.88557015  1
  N  N443  1  0.85531687  0.89209453  0.91703784  1
  N  N444  1  0.33000529  0.11193309  0.09791939  1
  N  N445  1  0.26673785  0.44091398  0.07278384  1
  N  N446  1  0.29528076  0.77006205  0.09064949  1
  N  N447  1  0.83445988  0.11434399  0.10302947  1
  N  N448  1  0.76386859  0.43568937  0.07253620  1
  N  N449  1  0.81020007  0.77910930  0.10239953  1
  N  N450  1  0.20716076  0.22407904  0.59605004  1
  N  N451  1  0.18117529  0.55210281  0.60876321  1
  N  N452  1  0.19148773  0.88844768  0.57887394  1
  N  N453  1  0.70462740  0.22988050  0.58553099  1
  N  N454  1  0.67656730  0.55277181  0.59454924  1
  N  N455  1  0.65205944  0.89131778  0.58852662  1
  Cl  Cl456  1  0.22147676  0.04047930  0.62507965  1
  Cl  Cl457  1  0.23512393  0.39321933  0.61751239  1
  Cl  Cl458  1  0.28785113  0.72533921  0.61823209  1
  Cl  Cl459  1  0.71568335  0.06490939  0.59525161  1
  Cl  Cl460  1  0.73591079  0.38927060  0.62388532  1
  Cl  Cl461  1  0.78245336  0.73339922  0.61267779  1
  Cl  Cl462  1  0.24058308  0.27727423  0.10958786  1
  Cl  Cl463  1  0.24594368  0.60482291  0.13680465  1
  Cl  Cl464  1  0.22429484  0.94191473  0.11160015  1
  Cl  Cl465  1  0.73266532  0.27173880  0.11159667  1
  Cl  Cl466  1  0.73816228  0.60296490  0.09572943  1
  Cl  Cl467  1  0.72557131  0.96535425  0.12570014  1
  Cl  Cl468  1  0.23509733  0.05799251  0.88965222  1
  Cl  Cl469  1  0.29700716  0.39121488  0.89194714  1
  Cl  Cl470  1  0.25910176  0.72747668  0.89152439  1
  Cl  Cl471  1  0.73207715  0.06562868  0.89465655  1
  Cl  Cl472  1  0.80049507  0.39525454  0.89249583  1
  Cl  Cl473  1  0.76059463  0.72804582  0.88265416  1
  Cl  Cl474  1  0.23303969  0.28174786  0.37629102  1
  Cl  Cl475  1  0.26249066  0.60822803  0.40558210  1
  Cl  Cl476  1  0.25227308  0.93689562  0.39727155  1
  Cl  Cl477  1  0.73527016  0.27392156  0.39669834  1
  Cl  Cl478  1  0.75862462  0.62415123  0.36473024  1
  Cl  Cl479  1  0.76625054  0.94879589  0.38542966  1
  Cl  Cl480  1  0.02150464  0.22961313  0.61036017  1
  Cl  Cl481  1  -0.00978350  0.55216248  0.60698045  1
  Cl  Cl482  1  0.00177960  0.90038086  0.59202724  1
  Cl  Cl483  1  0.52290413  0.22085600  0.61300093  1
  Cl  Cl484  1  0.48804670  0.56272515  0.61937644  1
  Cl  Cl485  1  0.48701624  0.87790113  0.63510112  1
  Cl  Cl486  1  0.01780457  0.11353912  0.11809710  1
  Cl  Cl487  1  -0.04890675  0.43884452  0.11148483  1
  Cl  Cl488  1  -0.00945447  0.78454466  0.13319186  1
  Cl  Cl489  1  0.52490336  0.09954948  0.10518942  1
  Cl  Cl490  1  0.44926219  0.43880728  0.10601052  1
  Cl  Cl491  1  0.48500295  0.76756369  0.09662047  1
  Cl  Cl492  1  0.00764430  0.22603902  0.88223342  1
  Cl  Cl493  1  0.00273400  0.53811864  0.87287723  1
  Cl  Cl494  1  0.02250910  0.88213718  0.86751512  1
  Cl  Cl495  1  0.50915262  0.22419683  0.88258820  1
  Cl  Cl496  1  0.50981825  0.56080025  0.90115315  1
  Cl  Cl497  1  0.53108292  0.89417720  0.89551871  1
  Cl  Cl498  1  0.03162806  0.10841456  0.38764360  1
  Cl  Cl499  1  0.01379098  0.43972958  0.38542604  1
  Cl  Cl500  1  -0.04535863  0.77163860  0.40949434  1
  Cl  Cl501  1  0.53325012  0.10334747  0.38599006  1
  Cl  Cl502  1  0.51256787  0.43948952  0.37468008  1
  Cl  Cl503  1  0.47403872  0.78953474  0.36503746  1
  Cl  Cl504  1  0.36982628  0.14353683  0.76173672  1
  Cl  Cl505  1  0.36869365  0.47907692  0.75072265  1
  Cl  Cl506  1  0.37453440  0.81300149  0.76587319  1
  Cl  Cl507  1  0.87244051  0.14176784  0.74310844  1
  Cl  Cl508  1  0.85988882  0.48750302  0.74180037  1
  Cl  Cl509  1  0.85434978  0.82178136  0.74918166  1
  Cl  Cl510  1  0.16285647  0.16724978  0.25788867  1
  Cl  Cl511  1  0.14123871  0.51179387  0.25160796  1
  Cl  Cl512  1  0.13541678  0.85151726  0.25425361  1
  Cl  Cl513  1  0.64396501  0.17487733  0.24622611  1
  Cl  Cl514  1  0.64445941  0.51481819  0.24359374  1
  Cl  Cl515  1  0.64086151  0.84625716  0.25735142  1
  Cl  Cl516  1  0.15149891  0.15682948  0.74160199  1
  Cl  Cl517  1  0.14819130  0.48321886  0.75479515  1
  Cl  Cl518  1  0.14164705  0.81576247  0.74142418  1
  Cl  Cl519  1  0.65197373  0.15289941  0.74851663  1
  Cl  Cl520  1  0.63507080  0.47678842  0.76117879  1
  Cl  Cl521  1  0.64061360  0.81804712  0.74087237  1
  Cl  Cl522  1  0.38040423  0.19091547  0.25111901  1
  Cl  Cl523  1  0.36972909  0.52281708  0.26549085  1
  Cl  Cl524  1  0.36115068  0.85336484  0.23924021  1
  Cl  Cl525  1  0.86799236  0.19020012  0.25318785  1
  Cl  Cl526  1  0.87087667  0.52154429  0.26010334  1
  Cl  Cl527  1  0.85638593  0.84843079  0.26322424  1
  Cl  Cl528  1  0.10153833  0.32596252  0.75509634  1
  Cl  Cl529  1  0.11975184  0.64699523  0.74837366  1
  Cl  Cl530  1  0.09931971  0.98822313  0.75074263  1
  Cl  Cl531  1  0.61931676  0.31517402  0.76391243  1
  Cl  Cl532  1  0.61283509  0.65130952  0.74103053  1
  Cl  Cl533  1  0.60197709  0.99503320  0.73481599  1
  Cl  Cl534  1  0.38387637  0.02217445  0.26958181  1
  Cl  Cl535  1  0.38033510  0.35743525  0.25328837  1
  Cl  Cl536  1  0.38434324  0.68492785  0.24478573  1
  Cl  Cl537  1  0.88656925  0.02254197  0.24641784  1
  Cl  Cl538  1  0.87618140  0.35322114  0.26003576  1
  Cl  Cl539  1  0.89416602  0.68269781  0.24521399  1
  Cl  Cl540  1  0.39229584  0.31113026  0.74180859  1
  Cl  Cl541  1  0.38259080  0.64179227  0.76502316  1
  Cl  Cl542  1  0.38449891  0.97871115  0.75157421  1
  Cl  Cl543  1  0.87824105  0.30411862  0.73130033  1
  Cl  Cl544  1  0.89899673  0.65448070  0.75827363  1
  Cl  Cl545  1  0.88402329  0.97920691  0.75095530  1
  Cl  Cl546  1  0.10224681  0.00906808  0.23565133  1
  Cl  Cl547  1  0.10303880  0.34242902  0.24552860  1
  Cl  Cl548  1  0.11182443  0.68638957  0.25032991  1
  Cl  Cl549  1  0.60049571  0.00321278  0.26612104  1
  Cl  Cl550  1  0.60602744  0.34835759  0.23131017  1
  Cl  Cl551  1  0.61037123  0.68404897  0.24395311  1
