# generated using pymatgen
data_H8PbC4(N3Cl2)2
_symmetry_space_group_name_H-M   'P 1'
_cell_length_a   16.63076705
_cell_length_b   22.52799503
_cell_length_c   21.60073745
_cell_angle_alpha   89.99732567
_cell_angle_beta   90.03555868
_cell_angle_gamma   90.00117357
_symmetry_Int_Tables_number   1
_chemical_formula_structural   H8PbC4(N3Cl2)2
_chemical_formula_sum   'H192 Pb24 C96 N144 Cl96'
_cell_volume   8092.88400955
_cell_formula_units_Z   24
loop_
 _symmetry_equiv_pos_site_id
 _symmetry_equiv_pos_as_xyz
  1  'x, y, z'
loop_
 _atom_site_type_symbol
 _atom_site_label
 _atom_site_symmetry_multiplicity
 _atom_site_fract_x
 _atom_site_fract_y
 _atom_site_fract_z
 _atom_site_occupancy
  H  H0  1  0.00328522  0.03013350  0.67652487  1
  H  H1  1  0.00421200  0.35952859  0.67864096  1
  H  H2  1  0.01247388  0.69014183  0.67727714  1
  H  H3  1  0.50399239  0.02282138  0.67599965  1
  H  H4  1  0.48829433  0.36128493  0.68119862  1
  H  H5  1  0.49494352  0.69367303  0.67604795  1
  H  H6  1  0.00417300  0.30681862  0.17563719  1
  H  H7  1  0.01756237  0.64003181  0.17438104  1
  H  H8  1  0.00881765  0.96827498  0.18321223  1
  H  H9  1  0.50178751  0.30432810  0.17712666  1
  H  H10  1  0.49199935  0.63485963  0.17472957  1
  H  H11  1  0.50562768  0.97604404  0.17848320  1
  H  H12  1  -0.01059392  0.02636775  0.82087073  1
  H  H13  1  0.00407546  0.36108390  0.82104490  1
  H  H14  1  0.01675958  0.69183831  0.82850076  1
  H  H15  1  0.50608076  0.03276337  0.82344037  1
  H  H16  1  0.50142502  0.35762663  0.81825241  1
  H  H17  1  0.48662290  0.69804478  0.81681459  1
  H  H18  1  -0.00589785  0.30693981  0.32153398  1
  H  H19  1  -0.00348063  0.63922188  0.32238400  1
  H  H20  1  -0.00276423  0.97572436  0.32061053  1
  H  H21  1  0.49365353  0.30169047  0.32236543  1
  H  H22  1  0.51864623  0.63683202  0.35066226  1
  H  H23  1  0.51350865  0.96953612  0.32419465  1
  H  H24  1  0.24464285  0.19609979  0.68007114  1
  H  H25  1  0.25156530  0.53038186  0.67924427  1
  H  H26  1  0.24017056  0.85938649  0.68087849  1
  H  H27  1  0.75509834  0.19881817  0.67758449  1
  H  H28  1  0.72661287  0.53354657  0.66193297  1
  H  H29  1  0.74953029  0.86068167  0.67719887  1
  H  H30  1  0.25767796  0.13408084  0.18245560  1
  H  H31  1  0.24072446  0.46793058  0.18094949  1
  H  H32  1  0.26192874  0.80809558  0.17427487  1
  H  H33  1  0.74073998  0.13882957  0.17463808  1
  H  H34  1  0.75065126  0.47190099  0.17911162  1
  H  H35  1  0.74908493  0.80485290  0.17625739  1
  H  H36  1  0.24131556  0.19197631  0.82573336  1
  H  H37  1  0.24219279  0.52857663  0.82104523  1
  H  H38  1  0.24442611  0.86451269  0.81661022  1
  H  H39  1  0.75986581  0.19491886  0.82310939  1
  H  H40  1  0.76366046  0.53336047  0.82290553  1
  H  H41  1  0.73884055  0.85703394  0.82297130  1
  H  H42  1  0.25750409  0.13935646  0.32390706  1
  H  H43  1  0.26476527  0.47880963  0.32463772  1
  H  H44  1  0.25276130  0.80201033  0.32343306  1
  H  H45  1  0.75920632  0.14189762  0.32630759  1
  H  H46  1  0.74351532  0.46951840  0.31999818  1
  H  H47  1  0.74402501  0.80373237  0.31947105  1
  H  H48  1  0.13764807  0.05007814  0.61588667  1
  H  H49  1  0.12696576  0.38820691  0.60807984  1
  H  H50  1  0.11565681  0.72556638  0.59448367  1
  H  H51  1  0.63781279  0.04983885  0.61529830  1
  H  H52  1  0.62816181  0.38304481  0.62704572  1
  H  H53  1  0.61110242  0.71921184  0.60051298  1
  H  H54  1  0.36846950  0.28159637  0.11438848  1
  H  H55  1  0.38363528  0.60715752  0.09315471  1
  H  H56  1  0.36546352  0.94870292  0.12890115  1
  H  H57  1  0.86616368  0.27961515  0.12310865  1
  H  H58  1  0.88046693  0.61644159  0.11778548  1
  H  H59  1  0.87127573  0.95179259  0.12870889  1
  H  H60  1  0.39167715  0.05702076  0.89905110  1
  H  H61  1  0.37065818  0.38666959  0.88146698  1
  H  H62  1  0.37834632  0.72257820  0.89891640  1
  H  H63  1  0.88431954  0.05918397  0.90387969  1
  H  H64  1  0.86759705  0.38448740  0.87848572  1
  H  H65  1  0.87651433  0.71490059  0.87996389  1
  H  H66  1  0.13115517  0.28498624  0.37782477  1
  H  H67  1  0.13461317  0.61407053  0.37550122  1
  H  H68  1  0.11063875  0.94222781  0.39885802  1
  H  H69  1  0.63180538  0.27874903  0.37825252  1
  H  H70  1  0.65699654  0.61536159  0.40122866  1
  H  H71  1  0.62072968  0.94101446  0.40505976  1
  H  H72  1  0.36048304  0.22254396  0.60205056  1
  H  H73  1  0.36594269  0.55951331  0.60318258  1
  H  H74  1  0.37640552  0.88316842  0.62184485  1
  H  H75  1  0.86422499  0.22547097  0.59551454  1
  H  H76  1  0.83559456  0.56109022  0.58105976  1
  H  H77  1  0.88013151  0.88743031  0.61292749  1
  H  H78  1  0.11969286  0.11838372  0.12828363  1
  H  H79  1  0.13698403  0.44347583  0.09625012  1
  H  H80  1  0.12379196  0.77894100  0.12347984  1
  H  H81  1  0.60543044  0.11367962  0.11532963  1
  H  H82  1  0.63519779  0.44447113  0.10296236  1
  H  H83  1  0.63045580  0.77725526  0.10157962  1
  H  H84  1  0.14025491  0.22863555  0.90948162  1
  H  H85  1  0.11950622  0.55696498  0.89210325  1
  H  H86  1  0.13206607  0.88628309  0.89587240  1
  H  H87  1  0.63076082  0.21737443  0.88947899  1
  H  H88  1  0.62270677  0.54767010  0.87485861  1
  H  H89  1  0.63440289  0.89192871  0.90659467  1
  H  H90  1  0.36203734  0.10604950  0.40639192  1
  H  H91  1  0.36533259  0.44581815  0.41078782  1
  H  H92  1  0.39425481  0.78354318  0.37367475  1
  H  H93  1  0.86636201  0.11049686  0.40760588  1
  H  H94  1  0.87074844  0.44405347  0.38782685  1
  H  H95  1  0.87907308  0.78614940  0.37720912  1
  H  H96  1  0.38492156  0.27431565  0.40275855  1
  H  H97  1  0.41260378  0.60298797  0.43013964  1
  H  H98  1  0.37621290  0.95233585  0.37666005  1
  H  H99  1  0.88465375  0.27392959  0.40175713  1
  H  H100  1  0.88837543  0.60873125  0.40371007  1
  H  H101  1  0.86335528  0.95019235  0.38136409  1
  H  H102  1  0.12822271  0.05114131  0.87427160  1
  H  H103  1  0.11490650  0.39215509  0.89840423  1
  H  H104  1  0.12099863  0.72522851  0.91110150  1
  H  H105  1  0.63942697  0.05408673  0.88326516  1
  H  H106  1  0.61830340  0.38673026  0.89548983  1
  H  H107  1  0.62486281  0.71443150  0.87154172  1
  H  H108  1  0.11186456  0.27566676  0.09417231  1
  H  H109  1  0.12719026  0.60875338  0.09436458  1
  H  H110  1  0.11712816  0.94107776  0.10294427  1
  H  H111  1  0.61542099  0.27720076  0.09668825  1
  H  H112  1  0.62967383  0.61608773  0.11842872  1
  H  H113  1  0.61032596  0.94305748  0.09494591  1
  H  H114  1  0.39137830  0.05584549  0.59803692  1
  H  H115  1  0.38280941  0.39386751  0.59880024  1
  H  H116  1  0.36331106  0.71620748  0.61657296  1
  H  H117  1  0.89055337  0.05876116  0.59754222  1
  H  H118  1  0.87802377  0.38660518  0.61038111  1
  H  H119  1  0.87239452  0.71376536  0.62517441  1
  H  H120  1  0.11725077  0.11975214  0.37785252  1
  H  H121  1  0.12336927  0.44908795  0.37118034  1
  H  H122  1  0.14851866  0.77387717  0.40664361  1
  H  H123  1  0.62113925  0.11593496  0.37782615  1
  H  H124  1  0.62186912  0.44741263  0.39385466  1
  H  H125  1  0.63223384  0.77764790  0.39714781  1
  H  H126  1  0.38359423  0.21093214  0.87609648  1
  H  H127  1  0.36809580  0.55374996  0.89113387  1
  H  H128  1  0.37940598  0.88405630  0.87403468  1
  H  H129  1  0.87901945  0.22533925  0.89533383  1
  H  H130  1  0.86756374  0.56025721  0.90592710  1
  H  H131  1  0.87849036  0.88051105  0.87560326  1
  H  H132  1  0.36530297  0.10850041  0.10156055  1
  H  H133  1  0.38171678  0.45152866  0.13076796  1
  H  H134  1  0.36919915  0.77543659  0.09281695  1
  H  H135  1  0.85303789  0.11114609  0.09576380  1
  H  H136  1  0.88342028  0.44793803  0.11657261  1
  H  H137  1  0.87794484  0.77751554  0.11105077  1
  H  H138  1  0.11215135  0.21953751  0.61775048  1
  H  H139  1  0.11862756  0.55299766  0.61678938  1
  H  H140  1  0.12867731  0.88884949  0.60167031  1
  H  H141  1  0.61815899  0.21634174  0.61992912  1
  H  H142  1  0.58836165  0.55440168  0.60778145  1
  H  H143  1  0.63213014  0.88784200  0.60164109  1
  H  H144  1  0.78736612  0.08194869  -0.00922834  1
  H  H145  1  0.79571050  0.58681789  1.01123175  1
  H  H146  1  0.22137225  0.24841058  1.00800308  1
  H  H147  1  0.35576730  0.91138541  0.98867990  1
  H  H148  1  0.69462959  0.75012099  0.50538628  1
  H  H149  1  0.83555978  0.74980596  0.00497179  1
  H  H150  1  0.69687520  0.41044332  -0.00231564  1
  H  H151  1  0.36664473  0.25136828  0.98137520  1
  H  H152  1  0.60853870  0.58221195  0.00900703  1
  H  H153  1  0.89501574  0.41444808  0.98593005  1
  H  H154  1  0.36866726  0.42357966  1.01589719  1
  H  H155  1  0.85464146  0.75705109  0.49115632  1
  H  H156  1  0.60538779  0.07764701  0.50705164  1
  H  H157  1  0.39008266  0.74890383  0.49837540  1
  H  H158  1  0.67484635  0.41815015  0.50132227  1
  H  H159  1  0.29403591  0.74552190  -0.00616709  1
  H  H160  1  0.39412479  0.91702285  0.49096640  1
  H  H161  1  0.22201050  0.74493631  0.51063134  1
  H  H162  1  0.60950340  0.25174173  0.48829850  1
  H  H163  1  0.03822428  0.24709978  -0.00569055  1
  H  H164  1  0.77136466  0.58882939  0.47520304  1
  H  H165  1  0.13827014  0.08738350  1.01430731  1
  H  H166  1  0.71412545  0.91726911  1.00501799  1
  H  H167  1  0.28225903  0.41681945  0.50626042  1
  H  H168  1  0.07571788  0.41744644  0.50026161  1
  H  H169  1  0.60610797  0.74348741  0.98510868  1
  H  H170  1  0.79424647  0.08316914  0.50759802  1
  H  H171  1  0.31671516  0.58178112  0.99620170  1
  H  H172  1  0.45105827  0.08696800  1.00864542  1
  H  H173  1  0.04942716  0.42655747  1.00330666  1
  H  H174  1  0.83961653  0.91620749  0.50764968  1
  H  H175  1  0.21008706  0.41789264  -0.00850413  1
  H  H176  1  0.13680747  0.08422512  0.48558038  1
  H  H177  1  0.45660494  0.42780310  0.49863941  1
  H  H178  1  0.28559441  0.08855023  0.50672431  1
  H  H179  1  0.03592766  0.75397596  0.49637256  1
  H  H180  1  0.14613949  0.24824023  0.50614364  1
  H  H181  1  0.19612302  0.91788175  0.49692416  1
  H  H182  1  0.53236680  0.91891370  -0.00496352  1
  H  H183  1  0.45295083  0.24319377  0.50774330  1
  H  H184  1  0.95887171  0.58316063  0.50485068  1
  H  H185  1  0.89052719  0.92086303  1.01481718  1
  H  H186  1  0.96183370  0.08657952  1.00309618  1
  H  H187  1  0.29724182  0.08141019  -0.00525540  1
  H  H188  1  0.19520335  0.91497562  1.00341375  1
  H  H189  1  0.04905197  0.91179213  -0.00327778  1
  H  H190  1  0.11209670  0.58029028  0.48707410  1
  H  H191  1  0.44622344  0.75081440  1.00428268  1
  Pb  Pb192  1  0.25516240  0.04849059  0.74646065  1
  Pb  Pb193  1  0.24840753  0.38245861  0.74445889  1
  Pb  Pb194  1  0.24899471  0.71506753  0.75631569  1
  Pb  Pb195  1  0.75917597  0.05172615  0.74643283  1
  Pb  Pb196  1  0.74852457  0.38145500  0.75290757  1
  Pb  Pb197  1  0.74916709  0.71412205  0.74802097  1
  Pb  Pb198  1  0.24988344  0.28331433  0.24605153  1
  Pb  Pb199  1  0.25839139  0.61616946  0.24631609  1
  Pb  Pb200  1  0.24300640  0.95093706  0.25400431  1
  Pb  Pb201  1  0.74750791  0.28583892  0.24907333  1
  Pb  Pb202  1  0.75037441  0.61922379  0.24723060  1
  Pb  Pb203  1  0.74461064  0.94677747  0.24604546  1
  Pb  Pb204  1  0.00153459  0.21578659  0.75665809  1
  Pb  Pb205  1  -0.00636850  0.54856478  0.74353375  1
  Pb  Pb206  1  0.00332013  0.88167856  0.75006464  1
  Pb  Pb207  1  0.49977970  0.21396060  0.74434552  1
  Pb  Pb208  1  0.49749962  0.54737130  0.75837147  1
  Pb  Pb209  1  0.50721088  0.88409930  0.75517825  1
  Pb  Pb210  1  -0.00971269  0.11962954  0.24258562  1
  Pb  Pb211  1  0.00043550  0.45249386  0.24320319  1
  Pb  Pb212  1  0.00663126  0.78128141  0.26051543  1
  Pb  Pb213  1  0.49643658  0.11653047  0.25615496  1
  Pb  Pb214  1  0.50368788  0.44988650  0.25736356  1
  Pb  Pb215  1  0.49744846  0.78209432  0.23971495  1
  C  C216  1  0.01047130  0.04549111  0.62945489  1
  C  C217  1  0.00315781  0.37738826  0.63205688  1
  C  C218  1  0.00026730  0.70852412  0.63186479  1
  C  C219  1  0.51169440  0.04069077  0.62975128  1
  C  C220  1  0.50013288  0.37821141  0.63504257  1
  C  C221  1  0.48932213  0.70965407  0.62886822  1
  C  C222  1  -0.00594649  0.28922117  0.12967651  1
  C  C223  1  0.00808671  0.62205808  0.12855015  1
  C  C224  1  -0.00162081  0.95401074  0.13580583  1
  C  C225  1  0.49507262  0.28907649  0.12971822  1
  C  C226  1  0.50247747  0.61936332  0.12794234  1
  C  C227  1  0.49404148  0.95854477  0.13256580  1
  C  C228  1  0.00062658  0.04386968  0.86683894  1
  C  C229  1  -0.00528349  0.37825527  0.86757604  1
  C  C230  1  0.00435182  0.70956523  0.87394424  1
  C  C231  1  0.51221043  0.04757757  0.87098388  1
  C  C232  1  0.49675006  0.37549949  0.86475222  1
  C  C233  1  0.49715372  0.71175308  0.86434090  1
  C  C234  1  0.00312045  0.28948193  0.36762627  1
  C  C235  1  0.00642717  0.62225710  0.36892078  1
  C  C236  1  -0.00952391  0.95718675  0.36670780  1
  C  C237  1  0.50429155  0.28618326  0.36937891  1
  C  C238  1  0.53009362  0.61885765  0.39642226  1
  C  C239  1  0.50245106  0.95401107  0.37090680  1
  C  C240  1  0.23911626  0.21258575  0.63312091  1
  C  C241  1  0.24475992  0.54727328  0.63278742  1
  C  C242  1  0.24870800  0.87700402  0.63456273  1
  C  C243  1  0.74577264  0.21308971  0.63035742  1
  C  C244  1  0.71663648  0.54932117  0.61491987  1
  C  C245  1  0.75429527  0.87805338  0.63052059  1
  C  C246  1  0.24678873  0.12011080  0.13499959  1
  C  C247  1  0.25388138  0.45406900  0.13379618  1
  C  C248  1  0.25189298  0.78903026  0.12892097  1
  C  C249  1  0.73263219  0.12161101  0.12804626  1
  C  C250  1  0.75677243  0.45494967  0.13227054  1
  C  C251  1  0.75289704  0.78749266  0.12955545  1
  C  C252  1  0.25524494  0.20995078  0.87129305  1
  C  C253  1  0.24373461  0.54547467  0.86805031  1
  C  C254  1  0.25262607  0.87846435  0.86431406  1
  C  C255  1  0.75643748  0.21219494  0.86967557  1
  C  C256  1  0.75137187  0.54679184  0.87021762  1
  C  C257  1  0.75045317  0.87532407  0.86850745  1
  C  C258  1  0.24535856  0.12242359  0.37015060  1
  C  C259  1  0.25131811  0.45911621  0.36925383  1
  C  C260  1  0.26536917  0.78725123  0.37030566  1
  C  C261  1  0.74909058  0.12375636  0.37222728  1
  C  C262  1  0.74534479  0.45363398  0.36735871  1
  C  C263  1  0.75236021  0.78981325  0.36722189  1
  C  C264  1  0.02802508  0.58753323  0.03528307  1
  C  C265  1  0.27150433  0.57911681  0.53912652  1
  C  C266  1  0.78775086  0.24593570  0.96135569  1
  C  C267  1  0.48515093  0.07546609  0.96733920  1
  C  C268  1  0.71235687  0.42759030  0.46126511  1
  C  C269  1  0.19164828  0.23916637  0.54303167  1
  C  C270  1  0.68602539  0.56897472  0.95620074  1
  C  C271  1  0.75494005  0.09254895  0.03319376  1
  C  C272  1  0.55771222  0.73530462  0.95217038  1
  C  C273  1  0.23822122  0.42846269  0.03557833  1
  C  C274  1  0.26712076  0.09288776  0.03778183  1
  C  C275  1  0.03766411  0.40680210  0.53961393  1
  C  C276  1  0.25061950  0.75778643  0.46729060  1
  C  C277  1  0.01915724  0.92532726  0.03916957  1
  C  C278  1  0.48259201  0.25602095  0.46482319  1
  C  C279  1  0.19001326  0.75260733  0.04589205  1
  C  C280  1  0.93807832  0.92926825  0.04831590  1
  C  C281  1  0.18607720  0.09584165  0.04753747  1
  C  C282  1  0.05786861  0.26003266  0.45434076  1
  C  C283  1  0.31890115  0.43129590  0.04776408  1
  C  C284  1  0.06080082  0.07022489  0.53958521  1
  C  C285  1  0.69135424  0.23861071  0.54218912  1
  C  C286  1  0.73915486  0.57775985  0.51761877  1
  C  C287  1  0.42996841  0.92617127  0.04938591  1
  C  C288  1  0.72693694  0.76270126  0.46368180  1
  C  C289  1  0.01901823  0.41243290  0.96115276  1
  C  C290  1  0.93326547  0.25345957  0.04605907  1
  C  C291  1  0.59154283  0.58910445  0.48357417  1
  C  C292  1  0.43819957  0.73714188  0.53848031  1
  C  C293  1  0.80852390  0.76540326  0.45642811  1
  C  C294  1  0.73031574  0.42356804  0.03885397  1
  C  C295  1  0.76600913  0.57411749  0.96828524  1
  C  C296  1  0.22733422  0.90405792  0.96112921  1
  C  C297  1  0.52311829  0.92242018  0.46616689  1
  C  C298  1  0.48087319  0.58728310  0.03193106  1
  C  C299  1  0.48511561  0.41235398  0.54124176  1
  C  C300  1  0.50850967  0.58466601  0.49212629  1
  C  C301  1  0.01906683  0.74444149  0.96808271  1
  C  C302  1  0.56670921  0.07405093  0.96031943  1
  C  C303  1  0.06548799  0.58996581  0.45313390  1
  C  C304  1  0.51946526  0.73843218  0.53452037  1
  C  C305  1  0.33091192  0.76168591  0.45542764  1
  C  C306  1  0.22703727  0.90669882  0.53988777  1
  C  C307  1  0.65673048  0.57594470  0.52678280  1
  C  C308  1  0.68748736  0.09196730  0.45677946  1
  C  C309  1  0.44246202  0.92618747  0.45812290  1
  C  C310  1  0.30886698  0.90274551  0.95365341  1
  C  C311  1  0.47657035  0.73856126  0.96162901  1
  N  N312  1  0.48328242  0.07239567  0.53572806  1
  N  N313  1  0.72034110  0.90828184  0.53679590  1
  N  N314  1  0.50759671  0.92518508  0.03871995  1
  N  N315  1  0.26079307  0.42336607  0.46149291  1
  N  N316  1  0.18497614  0.09998360  0.45566125  1
  N  N317  1  0.79832572  0.90839075  0.54246932  1
  N  N318  1  0.24288142  0.24875723  0.96261226  1
  N  N319  1  0.56128950  0.25818128  0.45535296  1
  N  N320  1  0.95854737  0.40718019  0.54004260  1
  N  N321  1  0.79505553  0.75755081  0.04051356  1
  N  N322  1  0.76569789  0.09030052  0.46590262  1
  N  N323  1  0.80934706  0.42486100  0.04327484  1
  N  N324  1  0.26176711  0.08627272  0.46248973  1
  N  N325  1  0.26791716  0.75322895  0.03631297  1
  N  N326  1  0.71060371  0.24352847  0.96072990  1
  N  N327  1  0.95109618  0.58981076  0.04138618  1
  N  N328  1  0.01122146  0.25442604  0.03682096  1
  N  N329  1  0.98363427  0.07422747  0.53279914  1
  N  N330  1  0.73723015  0.91073276  0.96057245  1
  N  N331  1  0.18424683  0.42481727  0.44959643  1
  N  N332  1  0.44991249  0.40822887  0.95353079  1
  N  N333  1  0.98682949  0.58787063  0.46193127  1
  N  N334  1  0.27075005  0.24111973  0.53763553  1
  N  N335  1  0.31917802  0.23440248  0.95446849  1
  N  N336  1  0.44454054  0.26432808  0.03943924  1
  N  N337  1  0.98581526  0.07828564  0.95922337  1
  N  N338  1  0.71681107  0.75773905  0.03616582  1
  N  N339  1  0.79141070  0.42597137  0.45964921  1
  N  N340  1  0.56337227  0.40892262  0.55030711  1
  N  N341  1  0.76805752  0.24162649  0.53301522  1
  N  N342  1  0.94251347  0.74062725  0.95943927  1
  N  N343  1  0.94021476  0.40956166  0.95302805  1
  N  N344  1  0.30567886  0.90540393  0.54680331  1
  N  N345  1  0.52586339  0.40844988  0.95805881  1
  N  N346  1  0.81404252  0.90709233  0.95142208  1
  N  N347  1  0.56081548  0.06985745  0.54251268  1
  N  N348  1  0.52066863  0.26166058  0.03402988  1
  N  N349  1  0.98138182  0.25578231  0.46340231  1
  N  N350  1  0.93634624  0.74263775  0.55023784  1
  N  N351  1  0.06270930  0.07463769  0.95074382  1
  N  N352  1  0.67594250  0.09312197  0.03939214  1
  N  N353  1  0.01304886  0.74634048  0.54076408  1
  N  N354  1  0.55868779  0.59097782  0.04158933  1
  N  N355  1  0.01523417  0.92283056  0.46025492  1
  N  N356  1  0.19422294  0.57623433  0.54258548  1
  N  N357  1  0.93902545  0.92600601  0.45473351  1
  N  N358  1  0.20310647  0.57494736  0.96024228  1
  N  N359  1  0.28099379  0.57443070  0.95839067  1
  N  N360  1  0.07994942  0.05320999  0.59868683  1
  N  N361  1  0.06679092  0.38931760  0.59607167  1
  N  N362  1  0.05342242  0.72280454  0.58884419  1
  N  N363  1  0.57939012  0.04959640  0.59920112  1
  N  N364  1  0.57076893  0.38782805  0.60882024  1
  N  N365  1  0.55009853  0.72189941  0.58936646  1
  N  N366  1  0.42719386  0.28077816  0.09890984  1
  N  N367  1  0.44561083  0.60514778  0.08532015  1
  N  N368  1  0.42116168  0.94534758  0.10802582  1
  N  N369  1  0.92251516  0.27461368  0.10372258  1
  N  N370  1  0.93871914  0.61154972  0.10108029  1
  N  N371  1  0.92667040  0.94681398  0.10837847  1
  N  N372  1  0.45241050  0.05852374  0.91053516  1
  N  N373  1  0.43014928  0.38823540  0.89574153  1
  N  N374  1  0.44016838  0.72380083  0.90653305  1
  N  N375  1  0.94653868  0.05656818  0.90977683  1
  N  N376  1  0.92555287  0.38661129  0.89617726  1
  N  N377  1  0.93347730  0.71838014  0.89948484  1
  N  N378  1  0.07405565  0.27975218  0.39602636  1
  N  N379  1  0.07794637  0.60960076  0.39500573  1
  N  N380  1  0.04831003  0.94174037  0.40571596  1
  N  N381  1  0.57426973  0.27821314  0.39708363  1
  N  N382  1  0.60144045  0.61028404  0.42261865  1
  N  N383  1  0.55910192  0.93911817  0.41367818  1
  N  N384  1  0.29850186  0.22470216  0.59422846  1
  N  N385  1  0.30439999  0.56199935  0.59345077  1
  N  N386  1  0.31763017  0.88690323  0.60587790  1
  N  N387  1  0.80192893  0.22519388  0.58913669  1
  N  N388  1  0.77392423  0.56092467  0.57259254  1
  N  N389  1  0.82037173  0.88985502  0.59891695  1
  N  N390  1  0.17490726  0.11242643  0.10797107  1
  N  N391  1  0.19914349  0.44259779  0.08961519  1
  N  N392  1  0.17999667  0.77419654  0.10344301  1
  N  N393  1  0.66405261  0.11142732  0.09867265  1
  N  N394  1  0.69673610  0.44185890  0.09307807  1
  N  N395  1  0.69138310  0.77490927  0.09221270  1
  N  N396  1  0.20246445  0.22375537  0.91504131  1
  N  N397  1  0.18040910  0.55826619  0.90335874  1
  N  N398  1  0.19361274  0.88880215  0.90529193  1
  N  N399  1  0.69083865  0.22220612  0.90243838  1
  N  N400  1  0.67775943  0.55274339  0.89649046  1
  N  N401  1  0.69707591  0.88879686  0.91162811  1
  N  N402  1  0.30001920  0.10940433  0.41281238  1
  N  N403  1  0.30280951  0.44679744  0.41410338  1
  N  N404  1  0.33885647  0.77974584  0.39577651  1
  N  N405  1  0.80434248  0.11206357  0.41427510  1
  N  N406  1  0.81023510  0.44213727  0.40092547  1
  N  N407  1  0.82282047  0.78196984  0.39633860  1
  N  N408  1  0.44667961  0.27312391  0.41145251  1
  N  N409  1  0.47348990  0.60238115  0.43947656  1
  N  N410  1  0.43104408  0.94579758  0.39765148  1
  N  N411  1  0.94698565  0.27490432  0.40796215  1
  N  N412  1  0.95067185  0.61138282  0.41105407  1
  N  N413  1  0.92242399  0.94758600  0.39690361  1
  N  N414  1  0.07146717  0.05532308  0.89255978  1
  N  N415  1  0.05332915  0.39359224  0.90795623  1
  N  N416  1  0.05915502  0.72604730  0.91686094  1
  N  N417  1  0.58226479  0.05741834  0.90198612  1
  N  N418  1  0.55639762  0.38768288  0.90336412  1
  N  N419  1  0.56876952  0.71883364  0.89172659  1
  N  N420  1  0.04977176  0.27849429  0.08736443  1
  N  N421  1  0.06568138  0.60664297  0.08736617  1
  N  N422  1  0.05536383  0.94102300  0.09393072  1
  N  N423  1  0.55321281  0.27745679  0.08953340  1
  N  N424  1  0.57230533  0.61062805  0.10060372  1
  N  N425  1  0.54802011  0.94848827  0.08888496  1
  N  N426  1  0.45314941  0.05485515  0.59018119  1
  N  N427  1  0.44501024  0.39323586  0.59252231  1
  N  N428  1  0.42069715  0.71942793  0.59835125  1
  N  N429  1  0.95260736  0.05839605  0.58998514  1
  N  N430  1  0.93875550  0.38875005  0.59787763  1
  N  N431  1  0.92884665  0.72120788  0.60764621  1
  N  N432  1  0.17431953  0.11323255  0.39588770  1
  N  N433  1  0.17937146  0.44460778  0.39125666  1
  N  N434  1  0.21076386  0.77413197  0.41331438  1
  N  N435  1  0.67692805  0.11109350  0.39809515  1
  N  N436  1  0.68228298  0.44436392  0.40486017  1
  N  N437  1  0.69350684  0.77826187  0.40800166  1
  N  N438  1  0.32739862  0.22006596  0.89473378  1
  N  N439  1  0.30747822  0.55500099  0.90327340  1
  N  N440  1  0.32294459  0.88708330  0.89317302  1
  N  N441  1  0.81893890  0.22722169  0.90648659  1
  N  N442  1  0.80582075  0.55978992  0.91339264  1
  N  N443  1  0.82182314  0.88715674  0.89333487  1
  N  N444  1  0.30349200  0.10810465  0.09260723  1
  N  N445  1  0.32690484  0.44683999  0.10873036  1
  N  N446  1  0.30716040  0.77733828  0.08656711  1
  N  N447  1  0.79107035  0.10898527  0.08743350  1
  N  N448  1  0.82425109  0.44441066  0.10187229  1
  N  N449  1  0.81812916  0.77711372  0.09650647  1
  N  N450  1  0.17100025  0.22219705  0.60162778  1
  N  N451  1  0.17713934  0.55644464  0.60204024  1
  N  N452  1  0.19055667  0.89003386  0.59360841  1
  N  N453  1  0.67491475  0.22148581  0.60162286  1
  N  N454  1  0.64554181  0.55820920  0.58800787  1
  N  N455  1  0.69350286  0.88983695  0.59222760  1
  Cl  Cl456  1  0.26742999  0.06291108  0.60617404  1
  Cl  Cl457  1  0.25981567  0.39724936  0.60339885  1
  Cl  Cl458  1  0.23317920  0.72435910  0.62140492  1
  Cl  Cl459  1  0.76603507  0.05971678  0.60617049  1
  Cl  Cl460  1  0.75497992  0.38764727  0.62231233  1
  Cl  Cl461  1  0.73690432  0.71687281  0.61415683  1
  Cl  Cl462  1  0.23524132  0.27029170  0.10287848  1
  Cl  Cl463  1  0.25909019  0.61072807  0.10514232  1
  Cl  Cl464  1  0.23823092  0.93963637  0.11991218  1
  Cl  Cl465  1  0.73669933  0.27760159  0.11753148  1
  Cl  Cl466  1  0.75503424  0.61618452  0.11601923  1
  Cl  Cl467  1  0.72986036  0.93397975  0.10140304  1
  Cl  Cl468  1  0.26330678  0.05816014  0.87903364  1
  Cl  Cl469  1  0.23877018  0.38839838  0.87974123  1
  Cl  Cl470  1  0.25212353  0.72466543  0.89663843  1
  Cl  Cl471  1  0.76715939  0.05913587  0.88239938  1
  Cl  Cl472  1  0.74057888  0.38951556  0.88876176  1
  Cl  Cl473  1  0.75249591  0.72488736  0.87901225  1
  Cl  Cl474  1  0.26133235  0.27970388  0.37687028  1
  Cl  Cl475  1  0.26837231  0.60759736  0.37708982  1
  Cl  Cl476  1  0.23284326  0.94430046  0.38844429  1
  Cl  Cl477  1  0.75956180  0.27322300  0.38005619  1
  Cl  Cl478  1  0.77489093  0.61369834  0.37973625  1
  Cl  Cl479  1  0.74033705  0.94911513  0.37859231  1
  Cl  Cl480  1  -0.01256558  0.22275139  0.62650394  1
  Cl  Cl481  1  -0.03110359  0.56325276  0.60254240  1
  Cl  Cl482  1  0.00440500  0.88783857  0.61801129  1
  Cl  Cl483  1  0.48555386  0.22014729  0.60891979  1
  Cl  Cl484  1  0.47599123  0.55055061  0.62576852  1
  Cl  Cl485  1  0.50785989  0.88774635  0.62334727  1
  Cl  Cl486  1  -0.02393886  0.10980203  0.09830092  1
  Cl  Cl487  1  0.01329594  0.44337720  0.10691382  1
  Cl  Cl488  1  -0.00165886  0.77615438  0.12846434  1
  Cl  Cl489  1  0.48256861  0.10813323  0.12143740  1
  Cl  Cl490  1  0.51473234  0.45093241  0.12677500  1
  Cl  Cl491  1  0.49726802  0.77733647  0.10401962  1
  Cl  Cl492  1  0.01786343  0.22925727  0.89814297  1
  Cl  Cl493  1  -0.00394062  0.55734008  0.87751278  1
  Cl  Cl494  1  0.00917326  0.88573735  0.88527961  1
  Cl  Cl495  1  0.50731198  0.21198640  0.87498107  1
  Cl  Cl496  1  0.49060841  0.55830139  0.89019950  1
  Cl  Cl497  1  0.51710788  0.89801207  0.89958415  1
  Cl  Cl498  1  -0.01085790  0.11416821  0.37388730  1
  Cl  Cl499  1  -0.00570166  0.44644919  0.37440226  1
  Cl  Cl500  1  0.02416713  0.77066238  0.40042936  1
  Cl  Cl501  1  0.48728432  0.10989166  0.38727301  1
  Cl  Cl502  1  0.48766023  0.44631641  0.39446833  1
  Cl  Cl503  1  0.51674371  0.77337699  0.37001000  1
  Cl  Cl504  1  0.35732885  0.15323357  0.74589156  1
  Cl  Cl505  1  0.35918211  0.48162094  0.76205589  1
  Cl  Cl506  1  0.36703140  0.81227241  0.75305860  1
  Cl  Cl507  1  0.85815285  0.15039618  0.74984115  1
  Cl  Cl508  1  0.85764964  0.48300740  0.75206720  1
  Cl  Cl509  1  0.86357800  0.81465577  0.75026149  1
  Cl  Cl510  1  0.12929534  0.18702910  0.24463964  1
  Cl  Cl511  1  0.13906834  0.51881361  0.25205955  1
  Cl  Cl512  1  0.14249640  0.84480850  0.25028326  1
  Cl  Cl513  1  0.63158604  0.18556344  0.26010342  1
  Cl  Cl514  1  0.64100162  0.51713483  0.25570003  1
  Cl  Cl515  1  0.64763654  0.84639609  0.24527513  1
  Cl  Cl516  1  0.13760203  0.14627364  0.75728678  1
  Cl  Cl517  1  0.13916663  0.48471435  0.74113584  1
  Cl  Cl518  1  0.14206307  0.81712508  0.75183447  1
  Cl  Cl519  1  0.63769299  0.14655579  0.74197875  1
  Cl  Cl520  1  0.63727354  0.48291763  0.74950627  1
  Cl  Cl521  1  0.64247809  0.81707290  0.74900374  1
  Cl  Cl522  1  0.35070473  0.18563140  0.24920306  1
  Cl  Cl523  1  0.35926604  0.51924920  0.24263870  1
  Cl  Cl524  1  0.36379040  0.85510521  0.24761565  1
  Cl  Cl525  1  0.85115714  0.18283450  0.24202288  1
  Cl  Cl526  1  0.86147301  0.51835129  0.24335327  1
  Cl  Cl527  1  0.86589118  0.85849528  0.25805498  1
  Cl  Cl528  1  0.10928913  0.31700863  0.74915146  1
  Cl  Cl529  1  0.10889830  0.64833066  0.75195173  1
  Cl  Cl530  1  0.11651353  0.98235071  0.75332263  1
  Cl  Cl531  1  0.60919550  0.31557505  0.74275234  1
  Cl  Cl532  1  0.61026155  0.64712255  0.75433560  1
  Cl  Cl533  1  0.61117170  0.98256183  0.75347427  1
  Cl  Cl534  1  0.37710342  0.02003696  0.25996382  1
  Cl  Cl535  1  0.38604396  0.35241444  0.24058584  1
  Cl  Cl536  1  0.39290749  0.68414831  0.25050018  1
  Cl  Cl537  1  0.87908400  0.01958814  0.24063290  1
  Cl  Cl538  1  0.88473869  0.35331667  0.23731927  1
  Cl  Cl539  1  0.88636348  0.68698424  0.25164265  1
  Cl  Cl540  1  0.38583890  0.31451219  0.75306399  1
  Cl  Cl541  1  0.38580492  0.64749476  0.74937039  1
  Cl  Cl542  1  0.39222514  0.98212654  0.74660273  1
  Cl  Cl543  1  0.88734578  0.31517064  0.76054113  1
  Cl  Cl544  1  0.88713021  0.65062827  0.74888419  1
  Cl  Cl545  1  0.89448256  0.98432061  0.74505506  1
  Cl  Cl546  1  0.10641480  0.02127895  0.24912590  1
  Cl  Cl547  1  0.10575322  0.35181312  0.25324849  1
  Cl  Cl548  1  0.10717397  0.68339385  0.25155062  1
  Cl  Cl549  1  0.60367048  0.01687749  0.24923098  1
  Cl  Cl550  1  0.60603122  0.35082233  0.26166974  1
  Cl  Cl551  1  0.60908309  0.68065414  0.24212102  1
