# generated using pymatgen
data_H8PbC4(N3Cl2)2
_symmetry_space_group_name_H-M   'P 1'
_cell_length_a   16.62215744
_cell_length_b   22.50407105
_cell_length_c   21.58977351
_cell_angle_alpha   89.99867591
_cell_angle_beta   89.99813050
_cell_angle_gamma   89.99852172
_symmetry_Int_Tables_number   1
_chemical_formula_structural   H8PbC4(N3Cl2)2
_chemical_formula_sum   'H192 Pb24 C96 N144 Cl96'
_cell_volume   8076.00478750
_cell_formula_units_Z   24
loop_
 _symmetry_equiv_pos_site_id
 _symmetry_equiv_pos_as_xyz
  1  'x, y, z'
loop_
 _atom_site_type_symbol
 _atom_site_label
 _atom_site_symmetry_multiplicity
 _atom_site_fract_x
 _atom_site_fract_y
 _atom_site_fract_z
 _atom_site_occupancy
  H  H0  1  0.00057736  0.03203849  0.68132467  1
  H  H1  1  -0.01243307  0.36642346  0.67592044  1
  H  H2  1  -0.00234280  0.69908567  0.67652461  1
  H  H3  1  0.49482834  0.03230562  0.67953659  1
  H  H4  1  0.50106467  0.36540391  0.68241747  1
  H  H5  1  0.50402984  0.69756104  0.67751959  1
  H  H6  1  -0.00905236  0.30022417  0.17720909  1
  H  H7  1  0.00722609  0.63558504  0.18140578  1
  H  H8  1  0.00203557  0.96920271  0.17977140  1
  H  H9  1  0.49952310  0.30390701  0.18266710  1
  H  H10  1  0.49372590  0.63545754  0.17970353  1
  H  H11  1  0.50543580  0.96856715  0.18070730  1
  H  H12  1  0.00550619  0.03081858  0.82425247  1
  H  H13  1  -0.00549526  0.36324309  0.81933965  1
  H  H14  1  0.00572218  0.70103032  0.81855815  1
  H  H15  1  0.50008351  0.03142152  0.82133810  1
  H  H16  1  0.50006547  0.36432129  0.82304061  1
  H  H17  1  0.49767417  0.69865009  0.81604887  1
  H  H18  1  -0.00429263  0.30100749  0.32232127  1
  H  H19  1  0.00175475  0.63689065  0.32181971  1
  H  H20  1  -0.00734843  0.96907754  0.32384199  1
  H  H21  1  0.49745511  0.30153292  0.32112211  1
  H  H22  1  0.49598886  0.63536534  0.31923310  1
  H  H23  1  0.50825566  0.96878753  0.31931862  1
  H  H24  1  0.25543060  0.19827512  0.67744174  1
  H  H25  1  0.24400246  0.53134892  0.68186897  1
  H  H26  1  0.25824282  0.86614312  0.67974737  1
  H  H27  1  0.75436895  0.19785222  0.67948368  1
  H  H28  1  0.74581399  0.53215002  0.67922819  1
  H  H29  1  0.73961250  0.86488349  0.67973651  1
  H  H30  1  0.25156862  0.13626406  0.17846027  1
  H  H31  1  0.24304211  0.46670952  0.17995854  1
  H  H32  1  0.24712416  0.80229750  0.18290774  1
  H  H33  1  0.74210641  0.13405390  0.17893518  1
  H  H34  1  0.76439866  0.46513247  0.17417862  1
  H  H35  1  0.75255864  0.80303203  0.18150161  1
  H  H36  1  0.24859450  0.19726015  0.81889678  1
  H  H37  1  0.24571927  0.52970672  0.81886180  1
  H  H38  1  0.24293777  0.86846262  0.82219581  1
  H  H39  1  0.75293501  0.19948654  0.82018144  1
  H  H40  1  0.75933514  0.53168047  0.81988870  1
  H  H41  1  0.74335559  0.86572638  0.81879864  1
  H  H42  1  0.25791210  0.13491088  0.31729532  1
  H  H43  1  0.25943237  0.46696982  0.31853585  1
  H  H44  1  0.24443446  0.80074237  0.32193430  1
  H  H45  1  0.74634578  0.13726274  0.32173492  1
  H  H46  1  0.74111949  0.46703141  0.32050132  1
  H  H47  1  0.74758308  0.80156718  0.31871778  1
  H  H48  1  0.12569544  0.05434736  0.61090809  1
  H  H49  1  0.12609752  0.38296357  0.62205308  1
  H  H50  1  0.12331964  0.72006609  0.60939011  1
  H  H51  1  0.62790243  0.05283949  0.61644832  1
  H  H52  1  0.62613600  0.38804281  0.61314923  1
  H  H53  1  0.61680408  0.72434602  0.59845146  1
  H  H54  1  0.37402868  0.27892699  0.11345128  1
  H  H55  1  0.38178314  0.61019728  0.10012440  1
  H  H56  1  0.36938623  0.95135399  0.12298436  1
  H  H57  1  0.87722350  0.27893016  0.09911436  1
  H  H58  1  0.87647674  0.61110304  0.11672021  1
  H  H59  1  0.87049423  0.94724541  0.11630209  1
  H  H60  1  0.36882228  0.05269679  0.88597231  1
  H  H61  1  0.37865372  0.38413934  0.89787315  1
  H  H62  1  0.37281573  0.72170187  0.88928136  1
  H  H63  1  0.86991450  0.05252202  0.88304642  1
  H  H64  1  0.87573243  0.38644140  0.89648600  1
  H  H65  1  0.87200870  0.71935972  0.88183429  1
  H  H66  1  0.13170362  0.28281772  0.38092283  1
  H  H67  1  0.11610191  0.61254120  0.40135925  1
  H  H68  1  0.12480267  0.94953868  0.38723017  1
  H  H69  1  0.63313895  0.28240720  0.38129424  1
  H  H70  1  0.61942780  0.61240116  0.39103150  1
  H  H71  1  0.61952068  0.94354488  0.40207230  1
  H  H72  1  0.36218375  0.22737090  0.59439032  1
  H  H73  1  0.37624020  0.55319811  0.61711785  1
  H  H74  1  0.36898843  0.89045020  0.60021335  1
  H  H75  1  0.86814037  0.22404561  0.59918690  1
  H  H76  1  0.88236161  0.54969426  0.62132709  1
  H  H77  1  0.87719992  0.88206382  0.62191864  1
  H  H78  1  0.12939829  0.11347670  0.10617338  1
  H  H79  1  0.12872403  0.44243094  0.10307314  1
  H  H80  1  0.13064696  0.78054314  0.10615268  1
  H  H81  1  0.63746700  0.10869263  0.09564989  1
  H  H82  1  0.62192295  0.44975400  0.12660038  1
  H  H83  1  0.62679354  0.78009793  0.11286661  1
  H  H84  1  0.12540186  0.21777982  0.88900193  1
  H  H85  1  0.12356524  0.55552723  0.89202030  1
  H  H86  1  0.13377802  0.89089583  0.90279332  1
  H  H87  1  0.62773524  0.21980457  0.88805065  1
  H  H88  1  0.62076076  0.55108017  0.87699175  1
  H  H89  1  0.63581366  0.88983347  0.90032070  1
  H  H90  1  0.36985918  0.10948804  0.39724709  1
  H  H91  1  0.36784497  0.44347742  0.40091321  1
  H  H92  1  0.37809189  0.78071485  0.38432443  1
  H  H93  1  0.87298535  0.11407351  0.39073490  1
  H  H94  1  0.87694684  0.44853404  0.38161554  1
  H  H95  1  0.88104324  0.78051829  0.38316755  1
  H  H96  1  0.38620630  0.27286522  0.40082679  1
  H  H97  1  0.37101801  0.61256115  0.39064190  1
  H  H98  1  0.37286987  0.94778963  0.37915193  1
  H  H99  1  0.88529920  0.27725317  0.40501833  1
  H  H100  1  0.86906297  0.61474322  0.38526738  1
  H  H101  1  0.87763546  0.94022747  0.40076191  1
  H  H102  1  0.11677524  0.05704429  0.90374445  1
  H  H103  1  0.12409800  0.38459175  0.88812382  1
  H  H104  1  0.11935870  0.72508345  0.89943243  1
  H  H105  1  0.61817386  0.05667420  0.89740821  1
  H  H106  1  0.62686172  0.39043716  0.89003200  1
  H  H107  1  0.62115418  0.72217582  0.88870439  1
  H  H108  1  0.12472015  0.28178999  0.11766994  1
  H  H109  1  0.12595840  0.61122088  0.10688347  1
  H  H110  1  0.11889524  0.94570580  0.10142446  1
  H  H111  1  0.62343103  0.28071174  0.11032948  1
  H  H112  1  0.62951981  0.61259582  0.12053078  1
  H  H113  1  0.61686103  0.94389145  0.10220188  1
  H  H114  1  0.38014322  0.05695121  0.59961888  1
  H  H115  1  0.37571431  0.38730685  0.61100005  1
  H  H116  1  0.36946425  0.71824104  0.61735501  1
  H  H117  1  0.87643848  0.05417946  0.60916276  1
  H  H118  1  0.88080813  0.39098874  0.59379986  1
  H  H119  1  0.87451137  0.72048909  0.60677974  1
  H  H120  1  0.12188850  0.11565350  0.37866032  1
  H  H121  1  0.12132473  0.44962239  0.37288550  1
  H  H122  1  0.13056135  0.77671121  0.40084017  1
  H  H123  1  0.62372530  0.11079508  0.39285256  1
  H  H124  1  0.62986674  0.44240315  0.40337246  1
  H  H125  1  0.63218586  0.77711201  0.39634485  1
  H  H126  1  0.37478040  0.21867035  0.88715015  1
  H  H127  1  0.37304992  0.55318721  0.88559447  1
  H  H128  1  0.38018911  0.88476317  0.87819599  1
  H  H129  1  0.87737081  0.21887450  0.89190874  1
  H  H130  1  0.86704970  0.55552045  0.90360903  1
  H  H131  1  0.88284053  0.88313301  0.87383781  1
  H  H132  1  0.37830174  0.11211923  0.10866992  1
  H  H133  1  0.37729871  0.44915164  0.11910678  1
  H  H134  1  0.37958786  0.78274597  0.12131372  1
  H  H135  1  0.88362040  0.12064246  0.12583280  1
  H  H136  1  0.86470570  0.44019915  0.08872084  1
  H  H137  1  0.87589862  0.77901435  0.10778586  1
  H  H138  1  0.11641070  0.21671717  0.62096432  1
  H  H139  1  0.12759701  0.55538818  0.60547651  1
  H  H140  1  0.12187288  0.88092122  0.62070124  1
  H  H141  1  0.62103556  0.21872926  0.61592580  1
  H  H142  1  0.63449222  0.55682496  0.60020947  1
  H  H143  1  0.63159525  0.89256056  0.59517612  1
  H  H144  1  0.33039632  0.57826220  0.99861160  1
  H  H145  1  0.09443590  0.91296877  0.49208724  1
  H  H146  1  0.40037953  0.75310577  0.51202257  1
  H  H147  1  0.90379839  0.91695780  0.00489417  1
  H  H148  1  0.13599550  0.42070084  0.48803541  1
  H  H149  1  0.44807126  0.07930371  0.49673106  1
  H  H150  1  0.18705164  0.58447381  0.49852914  1
  H  H151  1  0.30247207  0.08093022  0.50297963  1
  H  H152  1  0.94023230  0.92219816  0.50334139  1
  H  H153  1  0.45601649  0.25745959  0.50413900  1
  H  H154  1  0.28648805  0.24252756  0.49279457  1
  H  H155  1  0.69631420  0.58497822  0.49334792  1
  H  H156  1  0.69504882  0.74973891  0.50356688  1
  H  H157  1  0.07772499  0.08288296  0.50177639  1
  H  H158  1  0.55302906  0.91625732  -0.00583714  1
  H  H159  1  0.91701596  0.59075824  0.00803056  1
  H  H160  1  0.18776031  0.75775061  -0.00403442  1
  H  H161  1  0.70481346  0.91637098  1.00752993  1
  H  H162  1  0.06805085  0.59102320  -0.00495077  1
  H  H163  1  0.60074131  0.58562286  0.01210159  1
  H  H164  1  0.17886822  0.56831875  0.99989169  1
  H  H165  1  0.70978737  0.08200856  -0.00999382  1
  H  H166  1  0.30777815  0.91580690  0.49304836  1
  H  H167  1  0.42046932  0.24922770  0.00443635  1
  H  H168  1  0.18716206  0.41204910  -0.00422704  1
  H  H169  1  0.70201622  0.41962615  0.50523875  1
  H  H170  1  0.13817798  0.25080811  0.51338041  1
  H  H171  1  0.16828976  0.24907292  0.99937032  1
  H  H172  1  0.67093202  0.24938652  1.00056648  1
  H  H173  1  0.29920526  0.42047533  0.50824804  1
  H  H174  1  0.59055469  0.41422761  0.99702085  1
  H  H175  1  0.05015583  0.75452269  1.00003955  1
  H  H176  1  0.79453206  0.57804766  1.00915262  1
  H  H177  1  0.89550211  0.08521952  0.99242472  1
  H  H178  1  0.38883854  0.91896672  0.00930396  1
  H  H179  1  0.89959877  0.58521173  0.49227550  1
  H  H180  1  0.42781118  0.41948835  0.99695423  1
  H  H181  1  0.67346875  0.75336726  0.00215587  1
  H  H182  1  0.70743734  0.92087158  0.49717310  1
  H  H183  1  0.60309888  0.24588411  0.48582132  1
  H  H184  1  0.44675222  0.58734762  -0.00845627  1
  H  H185  1  0.54725526  0.92075385  0.50366871  1
  H  H186  1  0.55691829  0.08421581  1.00145167  1
  H  H187  1  0.54766010  0.73617418  0.49515684  1
  H  H188  1  0.42081476  0.58543386  0.49519765  1
  H  H189  1  0.34905221  0.75704719  0.00772311  1
  H  H190  1  0.42567486  0.41317196  0.50495913  1
  H  H191  1  0.57991055  0.41219304  0.50075532  1
  Pb  Pb192  1  0.24894176  0.04606260  0.74732506  1
  Pb  Pb193  1  0.25002019  0.37906870  0.75225554  1
  Pb  Pb194  1  0.25384475  0.71577817  0.75487142  1
  Pb  Pb195  1  0.75213285  0.04710972  0.75144714  1
  Pb  Pb196  1  0.75444146  0.38127883  0.74595326  1
  Pb  Pb197  1  0.74549695  0.71432244  0.74712718  1
  Pb  Pb198  1  0.25543669  0.28498350  0.25573637  1
  Pb  Pb199  1  0.24857784  0.61859182  0.24735098  1
  Pb  Pb200  1  0.24909774  0.95428624  0.24946198  1
  Pb  Pb201  1  0.75560083  0.28586014  0.24873933  1
  Pb  Pb202  1  0.75414590  0.61842703  0.25012757  1
  Pb  Pb203  1  0.75457424  0.95252533  0.25522949  1
  Pb  Pb204  1  -0.00043718  0.21209239  0.74863660  1
  Pb  Pb205  1  0.00113542  0.55134251  0.75610097  1
  Pb  Pb206  1  0.00123994  0.87905186  0.74813062  1
  Pb  Pb207  1  0.50041679  0.21426489  0.74563642  1
  Pb  Pb208  1  0.49981633  0.54542343  0.74667559  1
  Pb  Pb209  1  0.50435106  0.88399164  0.74477601  1
  Pb  Pb210  1  0.00204885  0.12156184  0.25069261  1
  Pb  Pb211  1  0.00260530  0.45084982  0.24179719  1
  Pb  Pb212  1  0.00386222  0.78680573  0.24433971  1
  Pb  Pb213  1  0.50560196  0.11788107  0.24645258  1
  Pb  Pb214  1  0.50312881  0.45244992  0.25740438  1
  Pb  Pb215  1  0.50316162  0.78561796  0.25685370  1
  C  C216  1  0.00098072  0.04693602  0.63357183  1
  C  C217  1  -0.00157169  0.38021654  0.62856407  1
  C  C218  1  -0.00152219  0.71341945  0.62837233  1
  C  C219  1  0.50059039  0.04697184  0.63189256  1
  C  C220  1  0.50054269  0.38044996  0.63454347  1
  C  C221  1  0.49657340  0.71315355  0.63017612  1
  C  C222  1  -0.00216938  0.28683230  0.12937343  1
  C  C223  1  0.00255660  0.62006722  0.13385444  1
  C  C224  1  -0.00292186  0.95401646  0.13230089  1
  C  C225  1  0.49903218  0.28785618  0.13531430  1
  C  C226  1  0.50230292  0.61978794  0.13246580  1
  C  C227  1  0.49674615  0.95440343  0.13300084  1
  C  C228  1  -0.00320259  0.04649674  0.87123178  1
  C  C229  1  -0.00160302  0.37788530  0.86715561  1
  C  C230  1  -0.00081445  0.71545848  0.86626343  1
  C  C231  1  0.49601806  0.04660812  0.86880072  1
  C  C232  1  0.50175759  0.37983354  0.87078264  1
  C  C233  1  0.49697078  0.71355787  0.86389111  1
  C  C234  1  0.00427310  0.28732212  0.36986084  1
  C  C235  1  -0.00473878  0.62190062  0.36934718  1
  C  C236  1  -0.00173188  0.95317945  0.37127321  1
  C  C237  1  0.50578949  0.28600980  0.36842109  1
  C  C238  1  0.49518762  0.61989032  0.36680487  1
  C  C239  1  0.50062939  0.95396785  0.36670975  1
  C  C240  1  0.24445637  0.21355858  0.63036200  1
  C  C241  1  0.24968214  0.54657249  0.63433850  1
  C  C242  1  0.24991919  0.87911689  0.63182307  1
  C  C243  1  0.74766726  0.21274560  0.63194252  1
  C  C244  1  0.75387942  0.54628783  0.63163874  1
  C  C245  1  0.74917106  0.87939540  0.63238778  1
  C  C246  1  0.25350696  0.12080297  0.13105956  1
  C  C247  1  0.24942455  0.45282931  0.13215147  1
  C  C248  1  0.25270385  0.78822734  0.13494456  1
  C  C249  1  0.75440052  0.12098584  0.13144780  1
  C  C250  1  0.74976905  0.45143935  0.12734418  1
  C  C251  1  0.75202047  0.78753289  0.13396974  1
  C  C252  1  0.24920141  0.21183272  0.86671429  1
  C  C253  1  0.24674766  0.54550669  0.86646897  1
  C  C254  1  0.25263244  0.88143332  0.86988928  1
  C  C255  1  0.75212563  0.21326472  0.86826021  1
  C  C256  1  0.74863149  0.54587968  0.86729161  1
  C  C257  1  0.75381152  0.87937386  0.86627219  1
  C  C258  1  0.24954287  0.12042877  0.36481140  1
  C  C259  1  0.24913012  0.45307109  0.36611026  1
  C  C260  1  0.25149984  0.78647613  0.36937279  1
  C  C261  1  0.74783629  0.12099914  0.36874961  1
  C  C262  1  0.74866796  0.45324354  0.36833961  1
  C  C263  1  0.75387723  0.78666801  0.36624426  1
  C  C264  1  0.76611559  0.57012402  0.96440339  1
  C  C265  1  0.73096673  0.57366518  0.53446525  1
  C  C266  1  0.30430140  0.76567271  0.04345010  1
  C  C267  1  0.73555449  0.90538049  0.96456828  1
  C  C268  1  0.97066530  0.26118755  0.03359343  1
  C  C269  1  0.43920034  0.92917399  0.04422214  1
  C  C270  1  0.47693121  0.59434298  0.03574132  1
  C  C271  1  0.79267546  0.23811752  0.96201079  1
  C  C272  1  0.97974934  0.40735697  0.53197415  1
  C  C273  1  0.22189399  0.57337961  0.53964195  1
  C  C274  1  0.54235327  0.40477579  0.54123916  1
  C  C275  1  0.71112715  0.23886888  0.96248665  1
  C  C276  1  0.81927433  0.09892606  0.04514254  1
  C  C277  1  0.03835353  0.07261551  0.54060458  1
  C  C278  1  0.68229610  0.42704437  0.04368337  1
  C  C279  1  0.21054571  0.23831481  0.96127608  1
  C  C280  1  0.96002056  0.73880036  0.53593533  1
  C  C281  1  0.30399808  0.42937301  0.04204157  1
  C  C282  1  0.22582703  0.75978887  0.46505712  1
  C  C283  1  0.04021759  0.73860213  0.53672762  1
  C  C284  1  0.21813173  0.09253396  0.03814304  1
  C  C285  1  0.52080514  0.92716190  0.03649198  1
  C  C286  1  0.27269285  0.90452941  0.53390099  1
  C  C287  1  0.71289449  0.08946225  0.46039818  1
  C  C288  1  0.81587638  0.90266180  0.95339183  1
  C  C289  1  0.18779426  0.43018749  0.45428770  1
  C  C290  1  0.73926892  0.09428982  0.03326940  1
  C  C291  1  0.03625391  0.59451277  0.03891386  1
  C  C292  1  0.23129075  0.90641335  0.96635306  1
  C  C293  1  0.29162778  0.57089998  0.95867766  1
  C  C294  1  0.95042399  0.92731746  0.04195412  1
  C  C295  1  0.22246077  0.76548670  0.03793853  1
  C  C296  1  0.22273811  0.42545908  0.03557576  1
  C  C297  1  0.27152012  0.09309764  0.46025433  1
  C  C298  1  0.05765030  0.26449471  0.45925069  1
  C  C299  1  0.31137770  0.90430298  0.95823587  1
  C  C300  1  0.05950917  0.40471572  0.54159694  1
  C  C301  1  0.81188133  0.57062319  0.54323167  1
  C  C302  1  0.44534638  0.07449762  0.95953169  1
  C  C303  1  0.29222358  0.23812931  0.95941992  1
  C  C304  1  0.26898712  0.42907313  0.46433458  1
  C  C305  1  0.76149220  0.42416894  0.03093629  1
  C  C306  1  0.02213365  0.07789098  0.96687609  1
  C  C307  1  0.19154378  0.90016411  0.54229780  1
  C  C308  1  0.72780902  0.76013319  0.46125858  1
  C  C309  1  0.46094245  0.26020816  0.04307462  1
  C  C310  1  0.05137461  0.26237889  0.04003986  1
  C  C311  1  0.71295888  0.76242850  0.04122218  1
  N  N312  1  0.54493557  0.41214514  0.95968856  1
  N  N313  1  0.97084342  0.91700667  0.46228901  1
  N  N314  1  0.77315057  0.24010523  0.53599234  1
  N  N315  1  0.98082549  0.26150968  0.46791388  1
  N  N316  1  0.02470827  0.59439431  0.46479059  1
  N  N317  1  0.81081893  0.90446114  0.54567478  1
  N  N318  1  0.95906956  0.07285740  0.53952747  1
  N  N319  1  0.53521280  0.74011474  0.95774950  1
  N  N320  1  0.79229297  0.76154206  0.03957440  1
  N  N321  1  0.21190613  0.57148588  0.96002721  1
  N  N322  1  0.19260113  0.09539295  0.45417980  1
  N  N323  1  0.30314259  0.76197857  0.46107137  1
  N  N324  1  0.55566215  0.59390150  0.04441020  1
  N  N325  1  0.52404638  0.07515561  0.96242874  1
  N  N326  1  0.73340413  0.90747825  0.53808506  1
  N  N327  1  0.26297211  0.24661704  0.53702727  1
  N  N328  1  0.04875060  0.92978340  0.46069376  1
  N  N329  1  0.47700944  0.07335192  0.53810019  1
  N  N330  1  0.52182398  0.74539353  0.53739821  1
  N  N331  1  0.79035409  0.09028351  0.46099927  1
  N  N332  1  0.54035185  0.26086414  0.04154821  1
  N  N333  1  0.80687163  0.76057564  0.45666897  1
  N  N334  1  0.46279304  0.40499875  0.54165359  1
  N  N335  1  0.29542390  0.09216947  0.03765450  1
  N  N336  1  0.02211246  0.73826550  0.96117525  1
  N  N337  1  0.94441504  0.73690705  0.95660576  1
  N  N338  1  0.80617428  0.42969775  0.45689715  1
  N  N339  1  0.55482009  0.07186233  0.54228050  1
  N  N340  1  0.02936825  0.92648643  0.03659639  1
  N  N341  1  0.55986344  0.26421766  0.45670300  1
  N  N342  1  0.48183142  0.25272056  0.46089921  1
  N  N343  1  0.44321383  0.73500031  0.54165027  1
  N  N344  1  0.30125264  0.57254615  0.54309125  1
  N  N345  1  0.94693427  0.59522306  0.45792860  1
  N  N346  1  0.45849076  0.73977383  0.95778545  1
  N  N347  1  0.04262136  0.40418472  0.95946493  1
  N  N348  1  0.94399344  0.07553879  0.95880393  1
  N  N349  1  0.53688363  0.59525052  0.46053251  1
  N  N350  1  0.95694963  0.59227539  0.04403836  1
  N  N351  1  0.69705605  0.23712360  0.54124449  1
  N  N352  1  0.52036180  0.92730331  0.46109970  1
  N  N353  1  0.72883137  0.42759597  0.46309639  1
  N  N354  1  0.45843916  0.59500070  0.45865737  1
  N  N355  1  0.68776929  0.57009149  0.95525928  1
  N  N356  1  0.46746650  0.39910610  0.96593071  1
  N  N357  1  0.96635844  0.40446217  0.96227749  1
  N  N358  1  0.44269786  0.92902698  0.45475540  1
  N  N359  1  0.18556003  0.23495871  0.54384365  1
  N  N360  1  0.06576767  0.05669643  0.59800946  1
  N  N361  1  0.07065670  0.38833510  0.60106077  1
  N  N362  1  0.06446892  0.72345802  0.59321086  1
  N  N363  1  0.56891687  0.05713526  0.60149596  1
  N  N364  1  0.56616804  0.39003569  0.59900005  1
  N  N365  1  0.55487639  0.72162635  0.58930122  1
  N  N366  1  0.43426286  0.27658425  0.10031960  1
  N  N367  1  0.44320316  0.60956893  0.09064865  1
  N  N368  1  0.42634856  0.94597274  0.10441400  1
  N  N369  1  0.93820281  0.27608407  0.08843146  1
  N  N370  1  0.93622573  0.61084298  0.10176832  1
  N  N371  1  0.92925418  0.94393794  0.10059608  1
  N  N372  1  0.42756224  0.05706287  0.90153413  1
  N  N373  1  0.43963332  0.38830105  0.90819513  1
  N  N374  1  0.43368700  0.72307906  0.89978840  1
  N  N375  1  0.92794726  0.05613024  0.89986456  1
  N  N376  1  0.93738057  0.38806014  0.90533893  1
  N  N377  1  0.93073145  0.72203570  0.89747601  1
  N  N378  1  0.07480227  0.27974180  0.39931672  1
  N  N379  1  0.05438147  0.61107882  0.40951142  1
  N  N380  1  0.06588352  0.94321898  0.40185361  1
  N  N381  1  0.57476285  0.27548829  0.39690764  1
  N  N382  1  0.55882100  0.61004297  0.40275470  1
  N  N383  1  0.55730245  0.94434550  0.40846865  1
  N  N384  1  0.29995442  0.22360237  0.58744523  1
  N  N385  1  0.31662010  0.55603802  0.60272583  1
  N  N386  1  0.30788020  0.89108953  0.59100438  1
  N  N387  1  0.80594808  0.22501007  0.59203466  1
  N  N388  1  0.82503027  0.55423320  0.60227329  1
  N  N389  1  0.81963299  0.88657571  0.60440641  1
  N  N390  1  0.18975728  0.10994692  0.09412690  1
  N  N391  1  0.18976536  0.44062764  0.09277105  1
  N  N392  1  0.19172071  0.77925125  0.09539466  1
  N  N393  1  0.69956763  0.10851238  0.08837496  1
  N  N394  1  0.67585717  0.44387839  0.10329611  1
  N  N395  1  0.68666437  0.77773806  0.09893768  1
  N  N396  1  0.18521122  0.22182592  0.90237120  1
  N  N397  1  0.18429906  0.55269685  0.90372133  1
  N  N398  1  0.19521544  0.89254678  0.91254198  1
  N  N399  1  0.68696152  0.22317163  0.90291721  1
  N  N400  1  0.67858625  0.55479684  0.89463458  1
  N  N401  1  0.69767859  0.89048664  0.90878269  1
  N  N402  1  0.30788212  0.10852056  0.40589037  1
  N  N403  1  0.30615970  0.44309993  0.40883889  1
  N  N404  1  0.31929142  0.77852594  0.39992962  1
  N  N405  1  0.81234980  0.11031303  0.40276424  1
  N  N406  1  0.81804964  0.44445335  0.39771400  1
  N  N407  1  0.82129986  0.77702661  0.39754380  1
  N  N408  1  0.44796606  0.27639121  0.40955524  1
  N  N409  1  0.43162699  0.60976355  0.40210428  1
  N  N410  1  0.43120668  0.94386396  0.39549006  1
  N  N411  1  0.94760605  0.27629897  0.41109402  1
  N  N412  1  0.92810840  0.61202763  0.40020402  1
  N  N413  1  0.93874314  0.94153857  0.41019627  1
  N  N414  1  0.05530533  0.05947803  0.91295157  1
  N  N415  1  0.06382772  0.38784896  0.90042888  1
  N  N416  1  0.05732678  0.72738326  0.90618151  1
  N  N417  1  0.55658795  0.05711561  0.90697972  1
  N  N418  1  0.56679403  0.39157110  0.90393405  1
  N  N419  1  0.56008650  0.72428905  0.89970763  1
  N  N420  1  0.06746100  0.27779162  0.09872248  1
  N  N421  1  0.06513534  0.60999131  0.09509842  1
  N  N422  1  0.05679069  0.94324818  0.09323845  1
  N  N423  1  0.56227868  0.27797584  0.09946969  1
  N  N424  1  0.57105561  0.60985805  0.10377354  1
  N  N425  1  0.55549723  0.94293915  0.09212057  1
  N  N426  1  0.44216839  0.05635654  0.59155022  1
  N  N427  1  0.43704044  0.38974686  0.59910947  1
  N  N428  1  0.42800538  0.72473204  0.60153883  1
  N  N429  1  0.93746014  0.05715554  0.59791693  1
  N  N430  1  0.94226405  0.39237729  0.58515072  1
  N  N431  1  0.93353811  0.72366981  0.59184646  1
  N  N432  1  0.18086081  0.11217635  0.39456752  1
  N  N433  1  0.17765605  0.44488202  0.39315087  1
  N  N434  1  0.19192862  0.77474604  0.41017675  1
  N  N435  1  0.68381759  0.10783173  0.40481303  1
  N  N436  1  0.69172540  0.44366783  0.41000322  1
  N  N437  1  0.69364258  0.77589982  0.40608241  1
  N  N438  1  0.31526998  0.22229318  0.90217772  1
  N  N439  1  0.31334461  0.55656546  0.90036291  1
  N  N440  1  0.32410850  0.88911014  0.89851985  1
  N  N441  1  0.81711863  0.22276358  0.90513344  1
  N  N442  1  0.80499859  0.55575135  0.91065343  1
  N  N443  1  0.82635894  0.88729549  0.89386946  1
  N  N444  1  0.31785129  0.11010427  0.09693493  1
  N  N445  1  0.31929184  0.44538514  0.10073057  1
  N  N446  1  0.32149549  0.77958426  0.10384845  1
  N  N447  1  0.82786867  0.11495256  0.10492896  1
  N  N448  1  0.80285779  0.43888397  0.08178204  1
  N  N449  1  0.81480058  0.77730400  0.09759555  1
  N  N450  1  0.17393348  0.22356480  0.60385391  1
  N  N451  1  0.18896399  0.55758051  0.59509290  1
  N  N452  1  0.17899393  0.88510406  0.60175077  1
  N  N453  1  0.67980558  0.22035237  0.60077676  1
  N  N454  1  0.69584601  0.55825486  0.59100446  1
  N  N455  1  0.69413626  0.89224195  0.59024874  1
  Cl  Cl456  1  0.25822669  0.05816261  0.61094354  1
  Cl  Cl457  1  0.25776215  0.38466151  0.61749931  1
  Cl  Cl458  1  0.24863351  0.71787360  0.62346145  1
  Cl  Cl459  1  0.75204534  0.04811964  0.62108640  1
  Cl  Cl460  1  0.74928813  0.39288991  0.60828846  1
  Cl  Cl461  1  0.73762980  0.72446085  0.61205040  1
  Cl  Cl462  1  0.25111184  0.28069882  0.12528494  1
  Cl  Cl463  1  0.25234908  0.60609613  0.10784831  1
  Cl  Cl464  1  0.24092239  0.95001937  0.11901193  1
  Cl  Cl465  1  0.74866631  0.28060769  0.11464170  1
  Cl  Cl466  1  0.75447505  0.60936668  0.11417120  1
  Cl  Cl467  1  0.74182436  0.94518018  0.12234595  1
  Cl  Cl468  1  0.24112987  0.05236327  0.87824741  1
  Cl  Cl469  1  0.25374351  0.38571390  0.88544108  1
  Cl  Cl470  1  0.24383305  0.72131284  0.89093652  1
  Cl  Cl471  1  0.74104808  0.05460585  0.88692158  1
  Cl  Cl472  1  0.75018524  0.38618600  0.87966419  1
  Cl  Cl473  1  0.74464073  0.72025605  0.88072194  1
  Cl  Cl474  1  0.26493894  0.27006348  0.39535616  1
  Cl  Cl475  1  0.24317262  0.61383078  0.38279152  1
  Cl  Cl476  1  0.24812134  0.94781856  0.38350709  1
  Cl  Cl477  1  0.75752307  0.28272576  0.38142371  1
  Cl  Cl478  1  0.74400480  0.61269807  0.38328322  1
  Cl  Cl479  1  0.74367675  0.94201224  0.39682609  1
  Cl  Cl480  1  -0.00826129  0.22068059  0.61686060  1
  Cl  Cl481  1  0.00605459  0.55244388  0.62482537  1
  Cl  Cl482  1  -0.00080900  0.88899010  0.61144546  1
  Cl  Cl483  1  0.48478754  0.22876543  0.60271383  1
  Cl  Cl484  1  0.50315297  0.55425853  0.61393519  1
  Cl  Cl485  1  0.50917584  0.89213550  0.60281368  1
  Cl  Cl486  1  0.00851435  0.11526759  0.11742924  1
  Cl  Cl487  1  -0.00288653  0.44833766  0.11392704  1
  Cl  Cl488  1  0.00590310  0.77550564  0.10724130  1
  Cl  Cl489  1  0.51152645  0.10833019  0.10874750  1
  Cl  Cl490  1  0.49592679  0.44731574  0.12312164  1
  Cl  Cl491  1  0.50410776  0.78113391  0.12916049  1
  Cl  Cl492  1  0.00023708  0.21393990  0.88059259  1
  Cl  Cl493  1  -0.00465737  0.56090990  0.89660912  1
  Cl  Cl494  1  0.01014658  0.88518982  0.87821332  1
  Cl  Cl495  1  0.49901056  0.21685686  0.87718323  1
  Cl  Cl496  1  0.49367443  0.55265722  0.88412560  1
  Cl  Cl497  1  0.51260183  0.88914447  0.87759136  1
  Cl  Cl498  1  -0.00265086  0.11383940  0.38222818  1
  Cl  Cl499  1  -0.00296463  0.45229814  0.37396484  1
  Cl  Cl500  1  0.00699620  0.78237477  0.37612877  1
  Cl  Cl501  1  0.49284610  0.10985581  0.38931808  1
  Cl  Cl502  1  0.50039350  0.43995127  0.39830711  1
  Cl  Cl503  1  0.50789398  0.77322691  0.39545273  1
  Cl  Cl504  1  0.35955931  0.14665992  0.74831957  1
  Cl  Cl505  1  0.36412070  0.47785219  0.74873842  1
  Cl  Cl506  1  0.35986756  0.81052518  0.75212573  1
  Cl  Cl507  1  0.86008606  0.14466169  0.75188436  1
  Cl  Cl508  1  0.85672769  0.47896041  0.74931641  1
  Cl  Cl509  1  0.86456099  0.81098611  0.75057812  1
  Cl  Cl510  1  0.13764890  0.18866343  0.25433711  1
  Cl  Cl511  1  0.13802827  0.52298930  0.25124670  1
  Cl  Cl512  1  0.13989474  0.85305051  0.24996006  1
  Cl  Cl513  1  0.63596760  0.18881944  0.25280799  1
  Cl  Cl514  1  0.63547781  0.52217693  0.24511446  1
  Cl  Cl515  1  0.63865444  0.85414091  0.25382867  1
  Cl  Cl516  1  0.13663866  0.14533111  0.74284731  1
  Cl  Cl517  1  0.14338102  0.47928231  0.75260144  1
  Cl  Cl518  1  0.13728620  0.81214868  0.74709045  1
  Cl  Cl519  1  0.63563473  0.14496549  0.74596401  1
  Cl  Cl520  1  0.63483943  0.47755046  0.75333990  1
  Cl  Cl521  1  0.64194248  0.81281944  0.74936915  1
  Cl  Cl522  1  0.35888070  0.18950555  0.25055518  1
  Cl  Cl523  1  0.36116257  0.52025156  0.24942371  1
  Cl  Cl524  1  0.36331211  0.85522152  0.25456316  1
  Cl  Cl525  1  0.86049004  0.18717820  0.24699551  1
  Cl  Cl526  1  0.85817605  0.52178164  0.25020399  1
  Cl  Cl527  1  0.85916101  0.85775331  0.25358239  1
  Cl  Cl528  1  0.11388635  0.31113155  0.74493300  1
  Cl  Cl529  1  0.10882476  0.64382644  0.75326081  1
  Cl  Cl530  1  0.11061943  0.98020034  0.74609999  1
  Cl  Cl531  1  0.60515599  0.31181519  0.74754737  1
  Cl  Cl532  1  0.60914196  0.64691546  0.75065259  1
  Cl  Cl533  1  0.60929191  0.97778899  0.74515811  1
  Cl  Cl534  1  0.38512823  0.02250197  0.25163182  1
  Cl  Cl535  1  0.38715687  0.35496472  0.25451228  1
  Cl  Cl536  1  0.39064065  0.68731723  0.25152109  1
  Cl  Cl537  1  0.88920351  0.02098191  0.24909324  1
  Cl  Cl538  1  0.89052680  0.35358374  0.25093267  1
  Cl  Cl539  1  0.88680718  0.68887881  0.24968311  1
  Cl  Cl540  1  0.38738452  0.31243530  0.75125357  1
  Cl  Cl541  1  0.38606591  0.64452975  0.74637829  1
  Cl  Cl542  1  0.38955426  0.97765823  0.75016512  1
  Cl  Cl543  1  0.89002401  0.31371397  0.75053075  1
  Cl  Cl544  1  0.89106988  0.64327065  0.75081128  1
  Cl  Cl545  1  0.88704310  0.97790637  0.75301198  1
  Cl  Cl546  1  0.11089196  0.02053139  0.25679389  1
  Cl  Cl547  1  0.11243265  0.35787953  0.25327301  1
  Cl  Cl548  1  0.10983483  0.68564959  0.24735908  1
  Cl  Cl549  1  0.60497587  0.02111510  0.25061139  1
  Cl  Cl550  1  0.60685348  0.35540183  0.25256845  1
  Cl  Cl551  1  0.61019340  0.68794786  0.25087020  1
