# generated using pymatgen
data_H8PbC4(N3Cl2)2
_symmetry_space_group_name_H-M   'P 1'
_cell_length_a   16.62301171
_cell_length_b   22.51186163
_cell_length_c   21.59180870
_cell_angle_alpha   90.00025745
_cell_angle_beta   90.01988617
_cell_angle_gamma   90.00461046
_symmetry_Int_Tables_number   1
_chemical_formula_structural   H8PbC4(N3Cl2)2
_chemical_formula_sum   'H192 Pb24 C96 N144 Cl96'
_cell_volume   8079.97687275
_cell_formula_units_Z   24
loop_
 _symmetry_equiv_pos_site_id
 _symmetry_equiv_pos_as_xyz
  1  'x, y, z'
loop_
 _atom_site_type_symbol
 _atom_site_label
 _atom_site_symmetry_multiplicity
 _atom_site_fract_x
 _atom_site_fract_y
 _atom_site_fract_z
 _atom_site_occupancy
  H  H0  1  -0.00728793  0.02962758  0.68100097  1
  H  H1  1  0.00024647  0.36419233  0.67694545  1
  H  H2  1  -0.00886978  0.69630130  0.67755957  1
  H  H3  1  0.50628012  0.02735058  0.68015365  1
  H  H4  1  0.50635726  0.36419353  0.67577132  1
  H  H5  1  0.50812349  0.69372033  0.67755579  1
  H  H6  1  0.01218277  0.30529118  0.17773719  1
  H  H7  1  0.01569728  0.63226236  0.17538403  1
  H  H8  1  0.00815963  0.96997505  0.17831459  1
  H  H9  1  0.48538331  0.30128049  0.17580878  1
  H  H10  1  0.49089838  0.63751339  0.17671867  1
  H  H11  1  0.48833475  0.96857772  0.17714694  1
  H  H12  1  0.00237296  0.03091424  0.82019225  1
  H  H13  1  -0.00216821  0.36372931  0.82195256  1
  H  H14  1  -0.00340869  0.69575261  0.81943164  1
  H  H15  1  0.49663075  0.02765548  0.82164709  1
  H  H16  1  0.50077034  0.35233553  0.82562755  1
  H  H17  1  0.49885371  0.69873656  0.82156283  1
  H  H18  1  0.01864080  0.30038302  0.31840388  1
  H  H19  1  0.01127587  0.63808375  0.32116502  1
  H  H20  1  0.00239239  0.96921257  0.32255433  1
  H  H21  1  0.48457864  0.30310715  0.32318072  1
  H  H22  1  0.48030203  0.63233337  0.32607984  1
  H  H23  1  0.50804877  0.96935460  0.32311782  1
  H  H24  1  0.24952812  0.19654074  0.67947881  1
  H  H25  1  0.24602753  0.53066998  0.67772989  1
  H  H26  1  0.25084280  0.86339671  0.67836586  1
  H  H27  1  0.75224286  0.19897098  0.68048572  1
  H  H28  1  0.75342259  0.53020550  0.67790374  1
  H  H29  1  0.74210980  0.86456242  0.67636288  1
  H  H30  1  0.24817202  0.13819504  0.18004428  1
  H  H31  1  0.26701351  0.46911602  0.17884350  1
  H  H32  1  0.24483056  0.80187768  0.17903406  1
  H  H33  1  0.75286072  0.13655865  0.18100158  1
  H  H34  1  0.73405133  0.47077509  0.17655386  1
  H  H35  1  0.76072779  0.80403083  0.18160052  1
  H  H36  1  0.24602347  0.19769370  0.82056302  1
  H  H37  1  0.24413780  0.53130227  0.81981348  1
  H  H38  1  0.24306331  0.86430826  0.82123311  1
  H  H39  1  0.75457288  0.19575677  0.82295991  1
  H  H40  1  0.74418657  0.52975423  0.82143687  1
  H  H41  1  0.76019332  0.86508903  0.82077949  1
  H  H42  1  0.24132481  0.13634481  0.32513018  1
  H  H43  1  0.25084168  0.47231704  0.32304737  1
  H  H44  1  0.26000373  0.80434442  0.32348084  1
  H  H45  1  0.75677649  0.13579876  0.31777343  1
  H  H46  1  0.73928675  0.47122666  0.32350340  1
  H  H47  1  0.74408416  0.80263411  0.31877914  1
  H  H48  1  0.12697118  0.05040823  0.61803251  1
  H  H49  1  0.11626135  0.38997885  0.59969781  1
  H  H50  1  0.12538569  0.71689168  0.61794091  1
  H  H51  1  0.62556030  0.05356850  0.60428046  1
  H  H52  1  0.61295852  0.39613194  0.59399889  1
  H  H53  1  0.61967405  0.72357458  0.59670474  1
  H  H54  1  0.37622201  0.27174020  0.09535472  1
  H  H55  1  0.37079227  0.60992375  0.10390925  1
  H  H56  1  0.37703473  0.94219516  0.09521564  1
  H  H57  1  0.87333795  0.28385357  0.12418707  1
  H  H58  1  0.87435578  0.61844973  0.12752306  1
  H  H59  1  0.87155635  0.94926275  0.11964263  1
  H  H60  1  0.37648393  0.05395984  0.89418566  1
  H  H61  1  0.37398899  0.38397565  0.88971011  1
  H  H62  1  0.38442988  0.72353479  0.89929958  1
  H  H63  1  0.87726026  0.05413851  0.88858304  1
  H  H64  1  0.87710374  0.38978974  0.89338783  1
  H  H65  1  0.88776556  0.72184291  0.90127849  1
  H  H66  1  0.12344704  0.27574286  0.40425334  1
  H  H67  1  0.12481339  0.60888497  0.40139227  1
  H  H68  1  0.11927715  0.94414383  0.39815288  1
  H  H69  1  0.62680842  0.28291324  0.37164317  1
  H  H70  1  0.62353336  0.61781425  0.37253251  1
  H  H71  1  0.61928385  0.94361648  0.40283419  1
  H  H72  1  0.37063885  0.22204925  0.60743764  1
  H  H73  1  0.37449036  0.55404404  0.61091258  1
  H  H74  1  0.38152518  0.88368509  0.61533896  1
  H  H75  1  0.87274834  0.22316054  0.60832266  1
  H  H76  1  0.87307734  0.55639477  0.60276538  1
  H  H77  1  0.88280261  0.88228074  0.62379843  1
  H  H78  1  0.12162645  0.11348463  0.11267077  1
  H  H79  1  0.12309729  0.45415553  0.13099132  1
  H  H80  1  0.11896657  0.77685966  0.10913739  1
  H  H81  1  0.62291276  0.11317478  0.11463972  1
  H  H82  1  0.63242043  0.43874099  0.09074277  1
  H  H83  1  0.62132231  0.78339807  0.12584988  1
  H  H84  1  0.13182602  0.22090990  0.89761854  1
  H  H85  1  0.12871354  0.55550834  0.89920733  1
  H  H86  1  0.13340389  0.89441239  0.90374230  1
  H  H87  1  0.62641663  0.22236517  0.88869255  1
  H  H88  1  0.62694223  0.55876902  0.89602712  1
  H  H89  1  0.62617151  0.88420048  0.88178775  1
  H  H90  1  0.37457220  0.11362215  0.38570662  1
  H  H91  1  0.38346481  0.44869398  0.38603081  1
  H  H92  1  0.37331521  0.77748809  0.40433157  1
  H  H93  1  0.86990360  0.11149896  0.39642808  1
  H  H94  1  0.88037771  0.45482476  0.37660692  1
  H  H95  1  0.87905050  0.78095074  0.38023317  1
  H  H96  1  0.38336543  0.27135354  0.40938515  1
  H  H97  1  0.38157174  0.60625707  0.41268707  1
  H  H98  1  0.37259717  0.95106465  0.37917167  1
  H  H99  1  0.87819674  0.28305702  0.37311491  1
  H  H100  1  0.87712384  0.61508117  0.38328634  1
  H  H101  1  0.87001937  0.94634669  0.38578734  1
  H  H102  1  0.12637993  0.05361125  0.88837451  1
  H  H103  1  0.12578010  0.38556578  0.88698103  1
  H  H104  1  0.13457532  0.71617812  0.87739844  1
  H  H105  1  0.62598142  0.05439349  0.88660328  1
  H  H106  1  0.62246570  0.38949214  0.89250841  1
  H  H107  1  0.63217094  0.71764376  0.88087985  1
  H  H108  1  0.11886527  0.27365400  0.09573586  1
  H  H109  1  0.11673052  0.60638203  0.08906454  1
  H  H110  1  0.11774434  0.94376283  0.09469059  1
  H  H111  1  0.62255432  0.28298158  0.11778106  1
  H  H112  1  0.61946603  0.61580178  0.11017146  1
  H  H113  1  0.62358760  0.94721601  0.11894375  1
  H  H114  1  0.37739288  0.05042041  0.61134248  1
  H  H115  1  0.36774100  0.38294221  0.61981999  1
  H  H116  1  0.37263889  0.71536767  0.61760291  1
  H  H117  1  0.87875232  0.05651525  0.60258955  1
  H  H118  1  0.86788015  0.38696574  0.61516827  1
  H  H119  1  0.87838089  0.72547282  0.59807529  1
  H  H120  1  0.12666992  0.10656201  0.40108712  1
  H  H121  1  0.13554369  0.44444182  0.39944536  1
  H  H122  1  0.12598436  0.78318415  0.38350392  1
  H  H123  1  0.62179885  0.11535340  0.37545828  1
  H  H124  1  0.63684838  0.43888538  0.40782866  1
  H  H125  1  0.63102332  0.77914405  0.39911924  1
  H  H126  1  0.38015090  0.21727607  0.88112545  1
  H  H127  1  0.37629230  0.55466529  0.88509989  1
  H  H128  1  0.37983264  0.88201578  0.88041833  1
  H  H129  1  0.87571868  0.22119587  0.89502598  1
  H  H130  1  0.87537320  0.55265985  0.88637838  1
  H  H131  1  0.87355531  0.89265735  0.90106605  1
  H  H132  1  0.37059841  0.11328071  0.10653477  1
  H  H133  1  0.36641411  0.44089407  0.09286108  1
  H  H134  1  0.36877540  0.77970600  0.10880089  1
  H  H135  1  0.87152199  0.11149493  0.10645730  1
  H  H136  1  0.87604698  0.45090811  0.12729148  1
  H  H137  1  0.86771168  0.77704082  0.09802562  1
  H  H138  1  0.12260803  0.21900529  0.61153776  1
  H  H139  1  0.12557798  0.55399075  0.60371020  1
  H  H140  1  0.13357865  0.88836830  0.60541440  1
  H  H141  1  0.62410755  0.21958790  0.61474724  1
  H  H142  1  0.62352771  0.55401372  0.61478046  1
  H  H143  1  0.63777752  0.89191170  0.59018074  1
  H  H144  1  0.64695544  0.08461915  0.48813836  1
  H  H145  1  0.28788361  0.41605363  -0.01093032  1
  H  H146  1  0.46494500  0.24629135  0.50728683  1
  H  H147  1  0.82814022  0.25039576  1.00359046  1
  H  H148  1  0.42602304  0.59557840  -0.00030122  1
  H  H149  1  0.92404843  0.41963154  1.00252875  1
  H  H150  1  0.71254238  0.41657952  -0.00796631  1
  H  H151  1  0.06228604  0.91320774  0.50576162  1
  H  H152  1  0.80795068  0.08459578  0.50443774  1
  H  H153  1  0.04400652  0.24771253  -0.00465668  1
  H  H154  1  0.19243612  0.24964875  1.00688624  1
  H  H155  1  0.90199709  0.91699798  0.49313187  1
  H  H156  1  0.53784026  0.41446792  0.49280428  1
  H  H157  1  0.05435534  0.42167831  0.49786512  1
  H  H158  1  0.08359665  0.08430263  0.99996628  1
  H  H159  1  0.04379497  0.91894301  -0.00563640  1
  H  H160  1  0.65672706  0.91341024  0.99405102  1
  H  H161  1  0.20781379  0.92226238  1.00322479  1
  H  H162  1  0.79461378  0.74826316  -0.00495742  1
  H  H163  1  0.82427315  0.24858031  0.49807987  1
  H  H164  1  0.60394184  0.74881151  -0.00568502  1
  H  H165  1  0.81720750  0.58678746  0.50084569  1
  H  H166  1  0.32166311  0.74984455  -0.00157579  1
  H  H167  1  0.39212525  0.91882928  0.49361797  1
  H  H168  1  0.33999110  0.07813433  0.49168232  1
  H  H169  1  0.04679704  0.25155044  0.50761131  1
  H  H170  1  0.15618945  0.75224339  0.49535150  1
  H  H171  1  0.66750271  0.24813790  0.99552416  1
  H  H172  1  0.54721222  0.74967762  0.49557443  1
  H  H173  1  0.16385206  0.74784818  0.00477839  1
  H  H174  1  0.56096848  0.40640747  0.99843610  1
  H  H175  1  0.81633416  0.07953316  0.00033046  1
  H  H176  1  0.69719303  0.75263741  0.50494664  1
  H  H177  1  0.43068585  0.40097072  0.99645814  1
  H  H178  1  0.09233347  0.41905301  0.99808936  1
  H  H179  1  0.57542164  0.57611628  0.01003537  1
  H  H180  1  0.95813325  0.74829409  1.00611441  1
  H  H181  1  0.31136518  0.26849917  0.51331080  1
  H  H182  1  0.86432072  0.41886698  0.48398401  1
  H  H183  1  0.65889051  0.24571381  0.50209727  1
  H  H184  1  0.65557003  0.58561190  0.50295575  1
  H  H185  1  0.42856393  0.08655792  1.00177486  1
  H  H186  1  0.71661842  0.42265591  0.50792367  1
  H  H187  1  0.88411094  0.58842825  1.01160910  1
  H  H188  1  0.39106253  0.42203553  0.51512997  1
  H  H189  1  0.58602331  0.08051439  0.99325328  1
  H  H190  1  0.94404298  0.08493608  0.49634144  1
  H  H191  1  0.17479312  0.22492135  0.50332417  1
  Pb  Pb192  1  0.25270372  0.04668113  0.74704466  1
  Pb  Pb193  1  0.25024964  0.37948629  0.74753330  1
  Pb  Pb194  1  0.25233854  0.71331742  0.75529661  1
  Pb  Pb195  1  0.75086696  0.04580369  0.74668211  1
  Pb  Pb196  1  0.74838622  0.38420688  0.74990535  1
  Pb  Pb197  1  0.75441786  0.71422196  0.74780215  1
  Pb  Pb198  1  0.24436978  0.28360569  0.25390506  1
  Pb  Pb199  1  0.24690374  0.61812422  0.25117771  1
  Pb  Pb200  1  0.24788968  0.95354209  0.24171655  1
  Pb  Pb201  1  0.74956241  0.28701906  0.24605320  1
  Pb  Pb202  1  0.74798310  0.61975456  0.25114084  1
  Pb  Pb203  1  0.74310391  0.95092471  0.25208829  1
  Pb  Pb204  1  -0.00006339  0.21377005  0.75399415  1
  Pb  Pb205  1  0.00434124  0.54677287  0.74954814  1
  Pb  Pb206  1  0.00345130  0.88006030  0.75606641  1
  Pb  Pb207  1  0.50143419  0.21270433  0.74253988  1
  Pb  Pb208  1  0.49865088  0.54962244  0.75786599  1
  Pb  Pb209  1  0.50385677  0.87904038  0.74219536  1
  Pb  Pb210  1  -0.00597068  0.11680544  0.25274917  1
  Pb  Pb211  1  0.00025661  0.45454510  0.25966509  1
  Pb  Pb212  1  -0.00172336  0.78601574  0.24263155  1
  Pb  Pb213  1  0.49689405  0.12053517  0.24348793  1
  Pb  Pb214  1  0.49919395  0.44939296  0.24544843  1
  Pb  Pb215  1  0.49393774  0.78447378  0.25969203  1
  C  C216  1  -0.00024370  0.04532579  0.63377774  1
  C  C217  1  -0.00494886  0.38054703  0.62980080  1
  C  C218  1  -0.00204353  0.71253562  0.63077232  1
  C  C219  1  0.50301024  0.04318593  0.63264745  1
  C  C220  1  0.49539536  0.38057594  0.62909093  1
  C  C221  1  0.50061283  0.70951902  0.63043314  1
  C  C222  1  0.00178608  0.28860722  0.13131434  1
  C  C223  1  0.00124561  0.61888679  0.12850238  1
  C  C224  1  -0.00052432  0.95512102  0.13102340  1
  C  C225  1  0.49508664  0.28575632  0.12903065  1
  C  C226  1  0.49379014  0.62115656  0.12937582  1
  C  C227  1  0.49602655  0.95298583  0.13018332  1
  C  C228  1  0.00243441  0.04627708  0.86771320  1
  C  C229  1  0.00026199  0.37984893  0.86937144  1
  C  C230  1  0.00680899  0.71110564  0.86647731  1
  C  C231  1  0.50022556  0.04488547  0.86866564  1
  C  C232  1  0.49912869  0.37347958  0.87085148  1
  C  C233  1  0.50598093  0.71321565  0.86902652  1
  C  C234  1  0.00644993  0.28639168  0.36559047  1
  C  C235  1  0.00450531  0.62205431  0.36827175  1
  C  C236  1  -0.00327464  0.95315659  0.36995815  1
  C  C237  1  0.49800669  0.28692004  0.36937661  1
  C  C238  1  0.49566434  0.61872835  0.37266075  1
  C  C239  1  0.49922732  0.95460702  0.37038242  1
  C  C240  1  0.24739955  0.21231184  0.63188320  1
  C  C241  1  0.24892329  0.54619260  0.63041885  1
  C  C242  1  0.25549173  0.87862148  0.63108585  1
  C  C243  1  0.74948794  0.21415229  0.63271731  1
  C  C244  1  0.75045039  0.54765008  0.63098824  1
  C  C245  1  0.75431748  0.87940589  0.62961779  1
  C  C246  1  0.24711441  0.12189899  0.13299384  1
  C  C247  1  0.25229433  0.45530309  0.13208702  1
  C  C248  1  0.24373047  0.78589393  0.13148710  1
  C  C249  1  0.74873679  0.12042192  0.13375829  1
  C  C250  1  0.74717513  0.45520983  0.13007405  1
  C  C251  1  0.74968960  0.78826620  0.13486556  1
  C  C252  1  0.25249227  0.21174640  0.86826726  1
  C  C253  1  0.25002508  0.54609262  0.86747317  1
  C  C254  1  0.25163696  0.87981710  0.86830357  1
  C  C255  1  0.75171873  0.21282067  0.87002396  1
  C  C256  1  0.74908071  0.54639251  0.86809886  1
  C  C257  1  0.75351889  0.88033284  0.86811066  1
  C  C258  1  0.24795425  0.11929319  0.37176165  1
  C  C259  1  0.25714363  0.45597564  0.36980421  1
  C  C260  1  0.25338918  0.78847081  0.37059584  1
  C  C261  1  0.74917178  0.12060040  0.36516265  1
  C  C262  1  0.75264202  0.45531666  0.37001989  1
  C  C263  1  0.75161253  0.78751968  0.36612845  1
  C  C264  1  0.71909850  0.57700642  0.96183916  1
  C  C265  1  0.04671994  0.40778891  0.96137776  1
  C  C266  1  0.22952228  0.42626526  0.46420544  1
  C  C267  1  0.93496748  0.59607306  0.04262468  1
  C  C268  1  0.77508654  0.09444125  0.46203683  1
  C  C269  1  0.20568274  0.09263174  0.04144425  1
  C  C270  1  0.30697787  0.23643905  0.95794123  1
  C  C271  1  0.30479950  0.90583298  0.54086171  1
  C  C272  1  0.47496997  0.25454384  0.03414211  1
  C  C273  1  0.70310684  0.23755359  0.53932204  1
  C  C274  1  0.77933657  0.09160299  0.04019918  1
  C  C275  1  0.96022702  0.07353909  0.96045825  1
  C  C276  1  0.04966551  0.74120711  0.54237702  1
  C  C277  1  0.54917688  0.92407398  0.04228505  1
  C  C278  1  0.55826925  0.73929982  0.95945166  1
  C  C279  1  0.26138504  0.42793414  0.03346626  1
  C  C280  1  0.81505350  0.42758109  0.04608577  1
  C  C281  1  0.02745400  0.92459789  0.46464554  1
  C  C282  1  0.72888329  0.76159698  0.46177403  1
  C  C283  1  0.98817586  0.73776336  0.96255027  1
  C  C284  1  0.93866064  0.25907978  0.04579003  1
  C  C285  1  0.56624945  0.25777011  0.45228729  1
  C  C286  1  0.52354520  0.92585105  0.46619104  1
  C  C287  1  0.46503181  0.07488701  0.96189373  1
  C  C288  1  0.69358211  0.09486889  0.45431094  1
  C  C289  1  0.97577727  0.07362906  0.53894961  1
  C  C290  1  0.22422236  0.90750536  0.53749480  1
  C  C291  1  0.48596036  0.59188007  0.46942684  1
  C  C292  1  0.96454031  0.40865033  0.96362856  1
  C  C293  1  0.21659441  0.57521256  0.53726923  1
  C  C294  1  0.81427300  0.90466515  0.54360634  1
  C  C295  1  0.94258134  0.40626576  0.53939637  1
  C  C296  1  0.78860877  0.24081330  0.96375811  1
  C  C297  1  0.04202928  0.07385042  0.96174875  1
  C  C298  1  0.22586501  0.23831975  0.96520066  1
  C  C299  1  0.20276410  0.76182489  0.45966513  1
  C  C300  1  0.78518555  0.23871818  0.53714533  1
  C  C301  1  0.56405355  0.59599338  0.45623961  1
  C  C302  1  0.28361929  0.75900923  0.03834168  1
  C  C303  1  0.18237617  0.43281221  0.04844725  1
  C  C304  1  0.21803941  0.08444429  0.46540489  1
  C  C305  1  0.76622635  0.75986408  0.03898425  1
  C  C306  1  0.70319051  0.90508779  0.95789716  1
  C  C307  1  0.01485026  0.59229007  0.03070094  1
  C  C308  1  0.70136236  0.57565484  0.54056017  1
  C  C309  1  0.47712196  0.74104392  0.96450071  1
  C  C310  1  0.01995182  0.26073029  0.46254617  1
  C  C311  1  0.44244692  0.92831717  0.45959992  1
  N  N312  1  0.73743662  0.42408559  0.03504473  1
  N  N313  1  0.06679369  0.73602498  0.95469622  1
  N  N314  1  0.78108549  0.57655367  0.53790530  1
  N  N315  1  0.69994626  0.09239026  0.04222784  1
  N  N316  1  0.05471669  0.07164896  0.54410067  1
  N  N317  1  0.28149528  0.75958677  0.46679172  1
  N  N318  1  0.20404103  0.75717630  0.04021111  1
  N  N319  1  0.23390186  0.90904965  0.96193358  1
  N  N320  1  0.48889639  0.25436321  0.46395616  1
  N  N321  1  0.78200616  0.90812822  0.96467862  1
  N  N322  1  0.44339943  0.73768904  0.54336568  1
  N  N323  1  0.79665893  0.57511910  0.95917804  1
  N  N324  1  0.45471446  0.41603703  0.95532896  1
  N  N325  1  0.30680756  0.42909761  0.46117529  1
  N  N326  1  0.94183003  0.26218112  0.45204000  1
  N  N327  1  0.01753257  0.92782027  0.03672898  1
  N  N328  1  0.68814235  0.76153810  0.04845779  1
  N  N329  1  0.22185308  0.57301301  0.96324274  1
  N  N330  1  0.95299191  0.59336527  0.45735881  1
  N  N331  1  0.01690357  0.25619675  0.03720478  1
  N  N332  1  0.94802938  0.92526460  0.45908722  1
  N  N333  1  0.53817397  0.60155676  0.03727838  1
  N  N334  1  0.45911966  0.07081866  0.54061013  1
  N  N335  1  0.53686917  0.41814908  0.95604859  1
  N  N336  1  0.53561498  0.07219965  0.53837866  1
  N  N337  1  0.20360738  0.24113914  0.54178232  1
  N  N338  1  0.55221805  0.25826267  0.03997390  1
  N  N339  1  0.02137912  0.40804273  0.53543769  1
  N  N340  1  0.43668749  0.40387138  0.54309201  1
  N  N341  1  0.70885745  0.24185793  0.96048284  1
  N  N342  1  0.29389420  0.57547615  0.53831258  1
  N  N343  1  0.29822956  0.57277947  0.95856935  1
  N  N344  1  0.45955984  0.58773054  0.03880239  1
  N  N345  1  0.73900805  0.42033761  0.46301374  1
  N  N346  1  0.97265876  0.74472517  0.53492786  1
  N  N347  1  0.80761856  0.76039731  0.45529360  1
  N  N348  1  0.28332396  0.09254736  0.03843252  1
  N  N349  1  0.73814880  0.90839103  0.53174386  1
  N  N350  1  0.31111172  0.90453879  0.95573748  1
  N  N351  1  0.52074317  0.74089327  0.53779123  1
  N  N352  1  0.47235469  0.92197325  0.03363404  1
  N  N353  1  0.51397312  0.41652731  0.53707030  1
  N  N354  1  0.94027737  0.92960781  0.04356285  1
  N  N355  1  0.28467431  0.23514754  0.53836722  1
  N  N356  1  0.54470644  0.07593910  0.95797331  1
  N  N357  1  0.02922222  0.59106912  0.46306003  1
  N  N358  1  0.29666799  0.08781164  0.45944150  1
  N  N359  1  0.81553200  0.43415436  0.45490321  1
  N  N360  1  0.06774746  0.05403105  0.60311649  1
  N  N361  1  0.05446579  0.39268079  0.59147432  1
  N  N362  1  0.06764323  0.72216533  0.60063554  1
  N  N363  1  0.56413025  0.05520272  0.59514572  1
  N  N364  1  0.55093260  0.39199501  0.58661519  1
  N  N365  1  0.55760330  0.72162644  0.58950319  1
  N  N366  1  0.43762615  0.27127833  0.08721280  1
  N  N367  1  0.43174393  0.61140494  0.09226489  1
  N  N368  1  0.43894294  0.94081060  0.08961012  1
  N  N369  1  0.92941609  0.27795508  0.10456866  1
  N  N370  1  0.92809648  0.61248861  0.10437020  1
  N  N371  1  0.92959285  0.94555173  0.10263740  1
  N  N372  1  0.43726638  0.05694092  0.90613302  1
  N  N373  1  0.43412277  0.38546293  0.90372212  1
  N  N374  1  0.44571858  0.72523520  0.90992829  1
  N  N375  1  0.93673100  0.05716484  0.90362944  1
  N  N376  1  0.93720583  0.39136682  0.90593040  1
  N  N377  1  0.95006269  0.72306688  0.90878223  1
  N  N378  1  0.06124948  0.27526602  0.40983400  1
  N  N379  1  0.06246752  0.60877898  0.40816294  1
  N  N380  1  0.05808243  0.94158908  0.40926163  1
  N  N381  1  0.57206170  0.27658051  0.39331407  1
  N  N382  1  0.57020534  0.61198666  0.39627425  1
  N  N383  1  0.55782619  0.94166465  0.41245507  1
  N  N384  1  0.30969494  0.22805916  0.59760344  1
  N  N385  1  0.31435392  0.55709375  0.59761263  1
  N  N386  1  0.32357336  0.88829994  0.59869587  1
  N  N387  1  0.81255533  0.22431518  0.59551251  1
  N  N388  1  0.81135215  0.55955327  0.59367507  1
  N  N389  1  0.82685206  0.88757154  0.60350608  1
  N  N390  1  0.18121766  0.11005641  0.09865459  1
  N  N391  1  0.17745427  0.44895039  0.10802644  1
  N  N392  1  0.17965219  0.77392552  0.09752456  1
  N  N393  1  0.68274558  0.11019971  0.10125314  1
  N  N394  1  0.69443974  0.44377563  0.08585240  1
  N  N395  1  0.67922568  0.77906963  0.10817380  1
  N  N396  1  0.19284468  0.22266553  0.90806024  1
  N  N397  1  0.19072046  0.55650825  0.90720095  1
  N  N398  1  0.19571893  0.89385412  0.90933564  1
  N  N399  1  0.68642649  0.22339136  0.90308785  1
  N  N400  1  0.68791625  0.55995895  0.90654385  1
  N  N401  1  0.68443827  0.88861257  0.89875668  1
  N  N402  1  0.31576555  0.10965055  0.40175869  1
  N  N403  1  0.32437027  0.44736533  0.40101059  1
  N  N404  1  0.31140609  0.77653744  0.41085498  1
  N  N405  1  0.80850373  0.11042673  0.40604922  1
  N  N406  1  0.82442866  0.44604300  0.39463311  1
  N  N407  1  0.81992614  0.77656909  0.39569452  1
  N  N408  1  0.44560307  0.27506829  0.41367156  1
  N  N409  1  0.44348007  0.60558371  0.41873230  1
  N  N410  1  0.42900699  0.94619270  0.39876389  1
  N  N411  1  0.93544250  0.27805421  0.39171874  1
  N  N412  1  0.93650915  0.61276750  0.39864880  1
  N  N413  1  0.92956850  0.94318565  0.40083200  1
  N  N414  1  0.06690359  0.05696877  0.90266263  1
  N  N415  1  0.06695505  0.38985123  0.90241453  1
  N  N416  1  0.07656314  0.71958745  0.89440509  1
  N  N417  1  0.56608535  0.05568683  0.90102095  1
  N  N418  1  0.56186373  0.38838449  0.90520934  1
  N  N419  1  0.57500477  0.72198668  0.89914590  1
  N  N420  1  0.05681349  0.27674111  0.08897579  1
  N  N421  1  0.05489336  0.60602115  0.08249722  1
  N  N422  1  0.05546864  0.94483418  0.08884860  1
  N  N423  1  0.56453444  0.27765904  0.10082076  1
  N  N424  1  0.55948012  0.60943028  0.09713051  1
  N  N425  1  0.56613505  0.94250549  0.10096993  1
  N  N426  1  0.43786455  0.05291034  0.59892203  1
  N  N427  1  0.42491582  0.39109073  0.60293865  1
  N  N428  1  0.43124197  0.71953543  0.60152366  1
  N  N429  1  0.94032279  0.05798707  0.59374641  1
  N  N430  1  0.92563979  0.38960596  0.59802396  1
  N  N431  1  0.94023047  0.72631417  0.59134909  1
  N  N432  1  0.18751921  0.10419360  0.41138912  1
  N  N433  1  0.19682324  0.44232271  0.40917887  1
  N  N434  1  0.18416240  0.77892067  0.40068291  1
  N  N435  1  0.67908553  0.11090608  0.39405418  1
  N  N436  1  0.69922367  0.44344088  0.41395270  1
  N  N437  1  0.69280301  0.77762750  0.40739716  1
  N  N438  1  0.32242364  0.22056788  0.89938236  1
  N  N439  1  0.31676540  0.55573042  0.89918498  1
  N  N440  1  0.32173624  0.88678378  0.89725104  1
  N  N441  1  0.81523967  0.22399856  0.90707015  1
  N  N442  1  0.81558935  0.55592874  0.90018774  1
  N  N443  1  0.81182098  0.89239732  0.90811865  1
  N  N444  1  0.30923242  0.11097447  0.09667444  1
  N  N445  1  0.30449170  0.44218131  0.08723201  1
  N  N446  1  0.30859757  0.77624833  0.09514525  1
  N  N447  1  0.81057182  0.10869228  0.09582573  1
  N  N448  1  0.82095390  0.44564107  0.10538239  1
  N  N449  1  0.80553125  0.77595276  0.09181915  1
  N  N450  1  0.18243465  0.21698270  0.59689190  1
  N  N451  1  0.18601507  0.55756350  0.59264261  1
  N  N452  1  0.19399098  0.89105240  0.59251954  1
  N  N453  1  0.68270688  0.22270785  0.59926512  1
  N  N454  1  0.68247193  0.55836135  0.59872387  1
  N  N455  1  0.70067338  0.89207379  0.58651186  1
  Cl  Cl456  1  0.25493196  0.05666867  0.61084834  1
  Cl  Cl457  1  0.24009760  0.38342918  0.61319412  1
  Cl  Cl458  1  0.24904069  0.71640049  0.62516575  1
  Cl  Cl459  1  0.75268213  0.05579881  0.61186392  1
  Cl  Cl460  1  0.73500900  0.40117594  0.60556100  1
  Cl  Cl461  1  0.74335615  0.72428672  0.61109664  1
  Cl  Cl462  1  0.24365691  0.27330208  0.11847601  1
  Cl  Cl463  1  0.24727596  0.61119377  0.11740828  1
  Cl  Cl464  1  0.23996306  0.94222897  0.10056446  1
  Cl  Cl465  1  0.74764573  0.28277828  0.11092317  1
  Cl  Cl466  1  0.73954831  0.61379550  0.12022860  1
  Cl  Cl467  1  0.74746443  0.94788683  0.12065931  1
  Cl  Cl468  1  0.25308311  0.05154385  0.87761036  1
  Cl  Cl469  1  0.25371738  0.38334262  0.88219276  1
  Cl  Cl470  1  0.26203305  0.72419962  0.89112433  1
  Cl  Cl471  1  0.75054113  0.05712721  0.87998534  1
  Cl  Cl472  1  0.74428836  0.39267625  0.89151759  1
  Cl  Cl473  1  0.76595015  0.72108762  0.88303168  1
  Cl  Cl474  1  0.25435939  0.27266169  0.40013147  1
  Cl  Cl475  1  0.24838442  0.60788128  0.38513178  1
  Cl  Cl476  1  0.24067997  0.95086594  0.37245199  1
  Cl  Cl477  1  0.75198911  0.28376203  0.37720246  1
  Cl  Cl478  1  0.75558620  0.60788807  0.38696445  1
  Cl  Cl479  1  0.74551468  0.94764965  0.38245068  1
  Cl  Cl480  1  0.00084001  0.22640139  0.61852178  1
  Cl  Cl481  1  -0.00343640  0.54829486  0.61752241  1
  Cl  Cl482  1  0.00932417  0.88725553  0.62177644  1
  Cl  Cl483  1  0.49179789  0.22601110  0.60351798  1
  Cl  Cl484  1  0.50028565  0.54996181  0.62710892  1
  Cl  Cl485  1  0.51385705  0.88803752  0.60671433  1
  Cl  Cl486  1  -0.00255662  0.11617861  0.11854093  1
  Cl  Cl487  1  -0.00208875  0.44755772  0.12931125  1
  Cl  Cl488  1  -0.00710370  0.77777782  0.10608210  1
  Cl  Cl489  1  0.49589660  0.11119952  0.10752788  1
  Cl  Cl490  1  0.50383755  0.43377864  0.09924597  1
  Cl  Cl491  1  0.49170196  0.78127437  0.12818446  1
  Cl  Cl492  1  0.00448052  0.22397171  0.89215528  1
  Cl  Cl493  1  0.00522063  0.55608501  0.88388364  1
  Cl  Cl494  1  0.01004116  0.89458118  0.89656066  1
  Cl  Cl495  1  0.50464375  0.22229179  0.87404728  1
  Cl  Cl496  1  0.50347873  0.56099675  0.89581501  1
  Cl  Cl497  1  0.50297433  0.88277774  0.87240235  1
  Cl  Cl498  1  -0.00333162  0.10928566  0.38768936  1
  Cl  Cl499  1  0.01202296  0.44206818  0.39606676  1
  Cl  Cl500  1  0.00295883  0.78636130  0.37166769  1
  Cl  Cl501  1  0.49678339  0.11840976  0.37437272  1
  Cl  Cl502  1  0.51541445  0.43453978  0.39203489  1
  Cl  Cl503  1  0.50656391  0.77609252  0.39743582  1
  Cl  Cl504  1  0.36098547  0.14939863  0.75025151  1
  Cl  Cl505  1  0.36467456  0.47932921  0.75190273  1
  Cl  Cl506  1  0.36243310  0.81483022  0.74984951  1
  Cl  Cl507  1  0.86040160  0.14822219  0.75276386  1
  Cl  Cl508  1  0.85819617  0.47832702  0.75200318  1
  Cl  Cl509  1  0.86425793  0.81618501  0.74739614  1
  Cl  Cl510  1  0.14206865  0.18798447  0.25760337  1
  Cl  Cl511  1  0.14197395  0.51589183  0.24929451  1
  Cl  Cl512  1  0.13724830  0.85177135  0.24353225  1
  Cl  Cl513  1  0.63646966  0.18801672  0.24747222  1
  Cl  Cl514  1  0.63806679  0.51814387  0.25160676  1
  Cl  Cl515  1  0.64230434  0.85363732  0.24699584  1
  Cl  Cl516  1  0.13885845  0.14718080  0.74422638  1
  Cl  Cl517  1  0.14312189  0.48223029  0.75032934  1
  Cl  Cl518  1  0.14053117  0.81332905  0.75472332  1
  Cl  Cl519  1  0.64199413  0.14914304  0.74731989  1
  Cl  Cl520  1  0.64268110  0.47954204  0.75548999  1
  Cl  Cl521  1  0.64380782  0.81557875  0.75140309  1
  Cl  Cl522  1  0.36129615  0.18700741  0.25098996  1
  Cl  Cl523  1  0.36546456  0.51951534  0.24902264  1
  Cl  Cl524  1  0.35659286  0.85114779  0.25286954  1
  Cl  Cl525  1  0.85857437  0.18634786  0.24961435  1
  Cl  Cl526  1  0.86186173  0.51991628  0.25240125  1
  Cl  Cl527  1  0.86303492  0.85523111  0.25039886  1
  Cl  Cl528  1  0.10926908  0.31577070  0.75125164  1
  Cl  Cl529  1  0.11253444  0.64848051  0.75122593  1
  Cl  Cl530  1  0.11374032  0.98158138  0.74513181  1
  Cl  Cl531  1  0.60910246  0.31586992  0.74505648  1
  Cl  Cl532  1  0.61383157  0.64824126  0.75448264  1
  Cl  Cl533  1  0.60952550  0.98328448  0.75423254  1
  Cl  Cl534  1  0.38875925  0.01777493  0.24880821  1
  Cl  Cl535  1  0.39351294  0.35355113  0.25040365  1
  Cl  Cl536  1  0.39593645  0.68506803  0.25223286  1
  Cl  Cl537  1  0.89110371  0.02083375  0.24906965  1
  Cl  Cl538  1  0.88607383  0.35503922  0.25286720  1
  Cl  Cl539  1  0.88376964  0.68710817  0.24528693  1
  Cl  Cl540  1  0.38870995  0.31298931  0.74368166  1
  Cl  Cl541  1  0.39301098  0.64738677  0.75246626  1
  Cl  Cl542  1  0.39103167  0.97999730  0.74715716  1
  Cl  Cl543  1  0.88700002  0.31419158  0.74818555  1
  Cl  Cl544  1  0.89152159  0.64690205  0.74666685  1
  Cl  Cl545  1  0.89185248  0.98115757  0.75490224  1
  Cl  Cl546  1  0.10995762  0.01944995  0.24602365  1
  Cl  Cl547  1  0.10930476  0.35230855  0.24856510  1
  Cl  Cl548  1  0.10683250  0.68316999  0.24407663  1
  Cl  Cl549  1  0.60991224  0.02069172  0.24810049  1
  Cl  Cl550  1  0.61397951  0.35416910  0.24863823  1
  Cl  Cl551  1  0.61262660  0.68752232  0.25247843  1
