# generated using pymatgen
data_H8PbC4(N3Cl2)2
_symmetry_space_group_name_H-M   'P 1'
_cell_length_a   16.62248733
_cell_length_b   22.50245807
_cell_length_c   21.58951994
_cell_angle_alpha   89.99973697
_cell_angle_beta   90.01400536
_cell_angle_gamma   89.99664341
_symmetry_Int_Tables_number   1
_chemical_formula_structural   H8PbC4(N3Cl2)2
_chemical_formula_sum   'H192 Pb24 C96 N144 Cl96'
_cell_volume   8075.49111701
_cell_formula_units_Z   24
loop_
 _symmetry_equiv_pos_site_id
 _symmetry_equiv_pos_as_xyz
  1  'x, y, z'
loop_
 _atom_site_type_symbol
 _atom_site_label
 _atom_site_symmetry_multiplicity
 _atom_site_fract_x
 _atom_site_fract_y
 _atom_site_fract_z
 _atom_site_occupancy
  H  H0  1  0.00803042  0.03010233  0.67960312  1
  H  H1  1  -0.00525781  0.36720332  0.68029716  1
  H  H2  1  0.00120905  0.69818601  0.68160821  1
  H  H3  1  0.49645600  0.03249791  0.67965633  1
  H  H4  1  0.50484102  0.36613780  0.68055412  1
  H  H5  1  0.50364324  0.69885302  0.67787346  1
  H  H6  1  0.00359554  0.30187273  0.17849033  1
  H  H7  1  0.00000684  0.63492061  0.18054701  1
  H  H8  1  0.00150943  0.96811480  0.17768896  1
  H  H9  1  0.50448809  0.30153009  0.18139487  1
  H  H10  1  0.50014759  0.63439100  0.17949541  1
  H  H11  1  0.50185630  0.96922929  0.17887806  1
  H  H12  1  -0.00307428  0.03242832  0.81968292  1
  H  H13  1  0.00353738  0.36487879  0.82279645  1
  H  H14  1  -0.00544189  0.69904312  0.82000030  1
  H  H15  1  0.50158811  0.03067218  0.81886751  1
  H  H16  1  0.49955183  0.36546124  0.81977637  1
  H  H17  1  0.50391722  0.69901307  0.81732034  1
  H  H18  1  -0.00865137  0.30089073  0.32181090  1
  H  H19  1  -0.00238083  0.63508215  0.31868019  1
  H  H20  1  -0.00475876  0.96526165  0.32255750  1
  H  H21  1  0.50449728  0.30109455  0.31616175  1
  H  H22  1  0.49234800  0.63636164  0.31922752  1
  H  H23  1  0.50503895  0.96809131  0.31649385  1
  H  H24  1  0.25675206  0.20019805  0.68021366  1
  H  H25  1  0.25697203  0.53224749  0.68178726  1
  H  H26  1  0.26052706  0.86619951  0.67759102  1
  H  H27  1  0.74390366  0.19665641  0.68243305  1
  H  H28  1  0.74771781  0.53222529  0.68199692  1
  H  H29  1  0.74083988  0.86491952  0.68236854  1
  H  H30  1  0.25358113  0.13561234  0.18230910  1
  H  H31  1  0.25865826  0.46820122  0.18208293  1
  H  H32  1  0.25188634  0.80229956  0.18303532  1
  H  H33  1  0.75243221  0.13533378  0.18089234  1
  H  H34  1  0.73922819  0.46885188  0.18020202  1
  H  H35  1  0.74527005  0.80010382  0.18189149  1
  H  H36  1  0.24682652  0.19833201  0.82192128  1
  H  H37  1  0.24691554  0.53185778  0.81883993  1
  H  H38  1  0.25469141  0.86452626  0.81904953  1
  H  H39  1  0.75039332  0.19737811  0.81980805  1
  H  H40  1  0.75741555  0.53306851  0.81884278  1
  H  H41  1  0.74227612  0.86614395  0.82071910  1
  H  H42  1  0.24969257  0.13343907  0.31874616  1
  H  H43  1  0.25813714  0.46769591  0.32153054  1
  H  H44  1  0.24425169  0.80124229  0.32045014  1
  H  H45  1  0.75098602  0.13320351  0.32015906  1
  H  H46  1  0.74209071  0.46917408  0.31713322  1
  H  H47  1  0.75062243  0.80121239  0.32026778  1
  H  H48  1  0.11764689  0.05622262  0.59675743  1
  H  H49  1  0.12925729  0.38533767  0.62036497  1
  H  H50  1  0.11849852  0.72132268  0.60503728  1
  H  H51  1  0.62212502  0.05426757  0.60857347  1
  H  H52  1  0.62131608  0.38989776  0.60167780  1
  H  H53  1  0.61585269  0.72472785  0.59722769  1
  H  H54  1  0.37425921  0.27995100  0.11485198  1
  H  H55  1  0.37623312  0.61135963  0.10901425  1
  H  H56  1  0.37116099  0.94700273  0.11503642  1
  H  H57  1  0.87198139  0.27955067  0.11371684  1
  H  H58  1  0.87558230  0.61325868  0.10751690  1
  H  H59  1  0.86966326  0.94758933  0.11393861  1
  H  H60  1  0.37641713  0.05426532  0.88984207  1
  H  H61  1  0.37569282  0.38911862  0.89020863  1
  H  H62  1  0.37199962  0.71824293  0.87951068  1
  H  H63  1  0.87358585  0.05434532  0.89122178  1
  H  H64  1  0.87322950  0.38697402  0.88775284  1
  H  H65  1  0.87246036  0.72102128  0.89285335  1
  H  H66  1  0.13089825  0.28199506  0.37534130  1
  H  H67  1  0.12767579  0.61350633  0.38428885  1
  H  H68  1  0.12900331  0.94865734  0.38264379  1
  H  H69  1  0.62540423  0.27875567  0.38864005  1
  H  H70  1  0.62683277  0.61633768  0.38111575  1
  H  H71  1  0.62715788  0.94660910  0.38808090  1
  H  H72  1  0.36725319  0.22176720  0.59867719  1
  H  H73  1  0.36705948  0.55546420  0.60153824  1
  H  H74  1  0.36433712  0.89605252  0.59363912  1
  H  H75  1  0.87324827  0.22181415  0.61634793  1
  H  H76  1  0.87284068  0.55348712  0.61050159  1
  H  H77  1  0.87723747  0.88271493  0.62574805  1
  H  H78  1  0.12657032  0.11353547  0.11281488  1
  H  H79  1  0.12483773  0.44687539  0.11864970  1
  H  H80  1  0.12820066  0.77992255  0.10951252  1
  H  H81  1  0.62454470  0.11345963  0.11267961  1
  H  H82  1  0.63068052  0.44322748  0.09749204  1
  H  H83  1  0.62961216  0.77810469  0.10324976  1
  H  H84  1  0.12875719  0.22299507  0.89704359  1
  H  H85  1  0.12494072  0.55437092  0.89339062  1
  H  H86  1  0.12783530  0.88632718  0.88824318  1
  H  H87  1  0.62945617  0.22166605  0.89395919  1
  H  H88  1  0.62449748  0.55302144  0.88360033  1
  H  H89  1  0.63591800  0.89168026  0.90302139  1
  H  H90  1  0.38115233  0.11431474  0.38337771  1
  H  H91  1  0.36974424  0.44288197  0.40309477  1
  H  H92  1  0.38110170  0.78096494  0.37927612  1
  H  H93  1  0.87820168  0.11104623  0.39021236  1
  H  H94  1  0.87663175  0.44765945  0.37938502  1
  H  H95  1  0.87655964  0.78091978  0.39129743  1
  H  H96  1  0.37620635  0.28010296  0.38151516  1
  H  H97  1  0.37968237  0.60948989  0.39976141  1
  H  H98  1  0.37764085  0.94871505  0.38353403  1
  H  H99  1  0.88510047  0.27422249  0.40637599  1
  H  H100  1  0.87904427  0.61259060  0.39565704  1
  H  H101  1  0.88174685  0.94343808  0.40012794  1
  H  H102  1  0.12289596  0.05324714  0.88663605  1
  H  H103  1  0.12169065  0.38933806  0.89820051  1
  H  H104  1  0.12167731  0.71832815  0.88593803  1
  H  H105  1  0.62539552  0.05478422  0.88859052  1
  H  H106  1  0.62422416  0.38494752  0.89076486  1
  H  H107  1  0.62121141  0.72173034  0.89293797  1
  H  H108  1  0.12004730  0.27763312  0.10070747  1
  H  H109  1  0.12418331  0.61240352  0.10760971  1
  H  H110  1  0.11753285  0.94349624  0.10180152  1
  H  H111  1  0.62302488  0.27703816  0.10687196  1
  H  H112  1  0.62571640  0.61234023  0.10954381  1
  H  H113  1  0.62000907  0.94430663  0.10286690  1
  H  H114  1  0.37304890  0.05512664  0.60807565  1
  H  H115  1  0.37323681  0.38608562  0.61579894  1
  H  H116  1  0.36864809  0.71883506  0.61848086  1
  H  H117  1  0.87173885  0.05034811  0.62108887  1
  H  H118  1  0.88147564  0.38999548  0.60269717  1
  H  H119  1  0.86932611  0.72019604  0.61535416  1
  H  H120  1  0.13181391  0.11112525  0.39287699  1
  H  H121  1  0.12317417  0.44708144  0.38299633  1
  H  H122  1  0.13305746  0.77742467  0.40059267  1
  H  H123  1  0.62948751  0.11201391  0.39442353  1
  H  H124  1  0.62842160  0.44461331  0.39619116  1
  H  H125  1  0.62762329  0.77794255  0.39148521  1
  H  H126  1  0.37739765  0.21943545  0.88706862  1
  H  H127  1  0.37421010  0.55412713  0.88705267  1
  H  H128  1  0.37719578  0.88962697  0.89271924  1
  H  H129  1  0.87819281  0.21995174  0.88642332  1
  H  H130  1  0.87221129  0.55672977  0.89922078  1
  H  H131  1  0.88230055  0.88230941  0.87466873  1
  H  H132  1  0.37577307  0.11147534  0.10999249  1
  H  H133  1  0.37317064  0.44486883  0.10273418  1
  H  H134  1  0.37684294  0.77952110  0.11077258  1
  H  H135  1  0.87377752  0.11113877  0.10655763  1
  H  H136  1  0.87727876  0.44891762  0.12291686  1
  H  H137  1  0.87839441  0.78153545  0.11658015  1
  H  H138  1  0.11985053  0.22019321  0.62158392  1
  H  H139  1  0.11945099  0.54990265  0.62459003  1
  H  H140  1  0.11967603  0.88173451  0.62272771  1
  H  H141  1  0.62361795  0.21853133  0.60869124  1
  H  H142  1  0.62346340  0.55609454  0.61097791  1
  H  H143  1  0.63029302  0.88804249  0.60209778  1
  H  H144  1  0.28563833  0.91150861  0.49264321  1
  H  H145  1  0.30139769  0.58132469  0.49349015  1
  H  H146  1  0.29946022  0.24533934  0.49059303  1
  H  H147  1  0.08197708  0.74702094  0.99950412  1
  H  H148  1  0.56653307  0.24756291  -0.00058115  1
  H  H149  1  0.35620800  0.75348703  0.48875786  1
  H  H150  1  0.69301963  0.75188411  -0.00441346  1
  H  H151  1  0.41565416  0.25496232  0.49567108  1
  H  H152  1  0.05860565  0.74964712  0.49768159  1
  H  H153  1  0.13467872  0.91566885  0.51365356  1
  H  H154  1  0.08139814  0.08331946  0.99903443  1
  H  H155  1  0.69498973  0.91128539  0.49345554  1
  H  H156  1  0.42911284  0.39900258  0.99743469  1
  H  H157  1  0.82976816  0.24135128  0.50776526  1
  H  H158  1  0.55868491  0.91772227  -0.00158244  1
  H  H159  1  0.57803590  0.92350868  0.50061422  1
  H  H160  1  0.04457814  0.07735287  0.49520598  1
  H  H161  1  0.57355232  0.25827982  0.50174444  1
  H  H162  1  0.09157208  0.58317150  0.49531094  1
  H  H163  1  0.17299468  0.91494085  0.99761588  1
  H  H164  1  0.91042767  0.25075690  0.00754109  1
  H  H165  1  0.90173807  0.91662623  0.00592226  1
  H  H166  1  0.19830943  0.74958112  0.50737051  1
  H  H167  1  0.15126127  0.42007822  0.49088906  1
  H  H168  1  0.69397678  0.41791546  0.50304629  1
  H  H169  1  0.83084165  0.08176450  0.49438401  1
  H  H170  1  0.57916893  0.58402341  0.00450836  1
  H  H171  1  0.44906275  0.58464653  0.50134499  1
  H  H172  1  0.57156320  0.42734189  0.98955216  1
  H  H173  1  0.33860681  0.24842034  0.99363449  1
  H  H174  1  0.56516891  0.74759556  1.00274453  1
  H  H175  1  0.93940589  0.41890481  0.49521540  1
  H  H176  1  0.33032345  0.58363927  0.99676485  1
  H  H177  1  0.30773151  0.41966211  -0.00464074  1
  H  H178  1  0.66806190  0.08562792  0.00255509  1
  H  H179  1  0.18680012  0.08430482  0.50402307  1
  H  H180  1  0.96098454  0.25290359  0.50785106  1
  H  H181  1  0.85710864  0.91054095  0.51214813  1
  H  H182  1  0.14512538  0.24703888  0.51160625  1
  H  H183  1  0.55540085  0.41690290  0.49913525  1
  H  H184  1  0.91244781  0.41746594  0.99451529  1
  H  H185  1  0.41845648  0.92544707  0.49736394  1
  H  H186  1  0.70256628  0.41589890  -0.00702131  1
  H  H187  1  0.40329837  0.74725502  0.99214737  1
  H  H188  1  0.32373888  0.08252365  0.00194822  1
  H  H189  1  0.70584126  0.91828169  1.00900531  1
  H  H190  1  0.67313373  0.58543922  0.50261845  1
  H  H191  1  0.68028893  0.23656546  0.49588957  1
  Pb  Pb192  1  0.25083624  0.04790487  0.74869801  1
  Pb  Pb193  1  0.24911094  0.38152863  0.75407410  1
  Pb  Pb194  1  0.24612484  0.71218156  0.74521309  1
  Pb  Pb195  1  0.74816776  0.04597749  0.74958911  1
  Pb  Pb196  1  0.74509043  0.37972114  0.74729804  1
  Pb  Pb197  1  0.75231386  0.71488555  0.75017768  1
  Pb  Pb198  1  0.24881664  0.28614532  0.24527416  1
  Pb  Pb199  1  0.25007007  0.61955615  0.25036785  1
  Pb  Pb200  1  0.25563107  0.95243563  0.25262909  1
  Pb  Pb201  1  0.75619683  0.28521397  0.25658971  1
  Pb  Pb202  1  0.75337858  0.62118495  0.25075365  1
  Pb  Pb203  1  0.74869578  0.95334762  0.25048876  1
  Pb  Pb204  1  -0.00177142  0.21423061  0.75112481  1
  Pb  Pb205  1  -0.00426173  0.54528402  0.75231562  1
  Pb  Pb206  1  0.00339623  0.88079860  0.75471375  1
  Pb  Pb207  1  0.49777843  0.21236725  0.74803049  1
  Pb  Pb208  1  0.50013719  0.55026807  0.74768129  1
  Pb  Pb209  1  0.49883997  0.87912343  0.74901228  1
  Pb  Pb210  1  0.00283816  0.11578527  0.25287749  1
  Pb  Pb211  1  0.00119567  0.45497272  0.24770576  1
  Pb  Pb212  1  0.00203215  0.78889949  0.25325074  1
  Pb  Pb213  1  0.50191449  0.12162147  0.24854961  1
  Pb  Pb214  1  0.50269131  0.45165812  0.24871707  1
  Pb  Pb215  1  0.50471385  0.78466240  0.24574688  1
  C  C216  1  -0.00054210  0.04497931  0.63226264  1
  C  C217  1  0.00156062  0.38079602  0.63243247  1
  C  C218  1  -0.00387715  0.71311207  0.63403533  1
  C  C219  1  0.49743152  0.04712631  0.63197845  1
  C  C220  1  0.50011769  0.38095562  0.63284555  1
  C  C221  1  0.49607300  0.71387817  0.63064787  1
  C  C222  1  -0.00183317  0.28656197  0.13102258  1
  C  C223  1  -0.00006588  0.62048132  0.13269107  1
  C  C224  1  -0.00428891  0.95329071  0.13013770  1
  C  C225  1  0.50031526  0.28634419  0.13378543  1
  C  C226  1  0.50112189  0.61926937  0.13186259  1
  C  C227  1  0.49797316  0.95392309  0.13148569  1
  C  C228  1  -0.00165309  0.04687139  0.86749693  1
  C  C229  1  -0.00092224  0.38022692  0.87019949  1
  C  C230  1  -0.00312567  0.71297482  0.86794581  1
  C  C231  1  0.50083408  0.04614499  0.86617640  1
  C  C232  1  0.49980290  0.38012583  0.86781168  1
  C  C233  1  0.49874913  0.71331309  0.86523800  1
  C  C234  1  0.00222302  0.28683057  0.36921945  1
  C  C235  1  0.00154706  0.62024309  0.36630881  1
  C  C236  1  0.00224455  0.95255784  0.37060556  1
  C  C237  1  0.50203747  0.28653853  0.36407446  1
  C  C238  1  0.49932923  0.62092932  0.36653761  1
  C  C239  1  0.50315424  0.95403822  0.36459619  1
  C  C240  1  0.24723726  0.21431101  0.63256450  1
  C  C241  1  0.24804907  0.54591921  0.63416121  1
  C  C242  1  0.24802302  0.88069960  0.63035103  1
  C  C243  1  0.74748644  0.21236929  0.63492399  1
  C  C244  1  0.74795152  0.54707052  0.63425173  1
  C  C245  1  0.74977976  0.87872038  0.63462631  1
  C  C246  1  0.25189388  0.12032308  0.13473594  1
  C  C247  1  0.25210230  0.45333356  0.13454281  1
  C  C248  1  0.25237803  0.78729008  0.13528654  1
  C  C249  1  0.75031634  0.12011633  0.13328981  1
  C  C250  1  0.74938937  0.45401642  0.13298625  1
  C  C251  1  0.75131678  0.78634678  0.13397085  1
  C  C252  1  0.25142716  0.21337174  0.86941707  1
  C  C253  1  0.24864213  0.54703698  0.86645067  1
  C  C254  1  0.25343375  0.87986264  0.86663243  1
  C  C255  1  0.75251929  0.21283183  0.86715905  1
  C  C256  1  0.75132487  0.54733777  0.86662308  1
  C  C257  1  0.75344320  0.87986930  0.86809956  1
  C  C258  1  0.25395800  0.11936881  0.36659204  1
  C  C259  1  0.24992321  0.45282174  0.36895820  1
  C  C260  1  0.25356822  0.78621216  0.36784535  1
  C  C261  1  0.75330465  0.11861826  0.36802173  1
  C  C262  1  0.74933202  0.45378896  0.36443560  1
  C  C263  1  0.75186538  0.78673801  0.36796436  1
  C  C264  1  0.44723186  0.92576233  0.04080148  1
  C  C265  1  0.03328598  0.41019150  0.96473029  1
  C  C266  1  0.27640520  0.42808480  0.03871919  1
  C  C267  1  0.22934762  0.75982676  0.46423459  1
  C  C268  1  0.22254760  0.09431851  0.46307729  1
  C  C269  1  0.53049677  0.25928606  0.03964723  1
  C  C270  1  0.97573197  0.40744144  0.53536988  1
  C  C271  1  0.72653077  0.90286491  0.53669349  1
  C  C272  1  0.97506172  0.92791877  0.46681972  1
  C  C273  1  0.71180954  0.57393029  0.54139884  1
  C  C274  1  0.04603419  0.59381134  0.45751833  1
  C  C275  1  0.06544091  0.26168713  0.45562608  1
  C  C276  1  0.05716318  0.40544060  0.54293387  1
  C  C277  1  0.53892207  0.07547891  0.95841724  1
  C  C278  1  0.28589773  0.09338026  0.04144326  1
  C  C279  1  0.27057229  0.23807288  0.53517603  1
  C  C280  1  0.52985618  0.73811649  0.96153104  1
  C  C281  1  0.45884292  0.93242304  0.45847020  1
  C  C282  1  0.02705734  0.92422215  0.03453893  1
  C  C283  1  0.53800634  0.26436098  0.45996882  1
  C  C284  1  0.18806539  0.56928318  0.54574161  1
  C  C285  1  0.70944189  0.09497029  0.04101366  1
  C  C286  1  0.30405313  0.09567110  0.45807179  1
  C  C287  1  0.80791186  0.90165459  0.54540451  1
  C  C288  1  0.45971878  0.59175760  0.03802240  1
  C  C289  1  0.44793453  0.73731877  0.95664898  1
  C  C290  1  0.72567681  0.42763306  0.46004628  1
  C  C291  1  0.46092366  0.07401136  0.53888984  1
  C  C292  1  0.71185055  0.23612604  0.53992059  1
  C  C293  1  0.28910685  0.57320689  0.95849880  1
  C  C294  1  0.72535229  0.76159154  0.03831199  1
  C  C295  1  0.71613084  0.75942074  0.46082571  1
  C  C296  1  0.21358116  0.90532543  0.95908804  1
  C  C297  1  0.26917623  0.57121032  0.53618920  1
  C  C298  1  0.81682926  0.90290809  0.95466902  1
  C  C299  1  0.44388851  0.74037773  0.54179804  1
  C  C300  1  0.54086013  0.93152619  0.46003108  1
  C  C301  1  0.73655294  0.90646799  0.96615575  1
  C  C302  1  0.21741487  0.24222404  0.96440798  1
  C  C303  1  0.05646186  0.93003637  0.46111669  1
  C  C304  1  0.73137377  0.42704367  0.03676684  1
  C  C305  1  0.04057760  0.73756906  0.96179868  1
  C  C306  1  0.04052704  0.07292355  0.96126404  1
  C  C307  1  0.02438273  0.73954025  0.53938387  1
  C  C308  1  0.79556111  0.24022476  0.95882676  1
  C  C309  1  0.45611671  0.26395450  0.45724566  1
  C  C310  1  0.95898731  0.07304748  0.96112557  1
  C  C311  1  0.95903470  0.73804056  0.96232396  1
  N  N312  1  0.96681848  0.59310974  0.46180351  1
  N  N313  1  0.78872928  0.09360158  0.03856494  1
  N  N314  1  0.21499178  0.76089967  0.04135754  1
  N  N315  1  0.18592450  0.90176241  0.54474444  1
  N  N316  1  0.47761391  0.59192409  0.45996325  1
  N  N317  1  0.29632692  0.24025596  0.95999969  1
  N  N318  1  0.26293738  0.91479100  0.53704149  1
  N  N319  1  0.19756770  0.42786136  0.04429858  1
  N  N320  1  0.96173682  0.59507896  0.03859977  1
  N  N321  1  0.98739243  0.25922933  0.46511592  1
  N  N322  1  0.30846660  0.76115784  0.45587050  1
  N  N323  1  0.03785413  0.59507551  0.03851712  1
  N  N324  1  0.46108193  0.07514846  0.96006467  1
  N  N325  1  0.80434167  0.76235530  0.04293946  1
  N  N326  1  0.03076730  0.25895498  0.03616267  1
  N  N327  1  0.20985116  0.57340342  0.96112014  1
  N  N328  1  0.77821203  0.57366085  0.96274746  1
  N  N329  1  0.53810602  0.07366215  0.53769936  1
  N  N330  1  0.52558323  0.40497839  0.53863307  1
  N  N331  1  0.19199927  0.23807941  0.54452561  1
  N  N332  1  0.19867644  0.42876547  0.45743465  1
  N  N333  1  0.27636486  0.42752880  0.46559527  1
  N  N334  1  0.52594533  0.92549424  0.03779303  1
  N  N335  1  0.70185258  0.57177647  0.95786287  1
  N  N336  1  0.45107861  0.26092151  0.04168400  1
  N  N337  1  0.94012671  0.06972506  0.54461230  1
  N  N338  1  0.71432019  0.09456009  0.46250251  1
  N  N339  1  0.46043204  0.41048086  0.95835450  1
  N  N340  1  0.53900864  0.59251661  0.03941638  1
  N  N341  1  0.71778895  0.24111879  0.96259473  1
  N  N342  1  0.44780475  0.40401632  0.54203523  1
  N  N343  1  0.79330589  0.76066169  0.46212396  1
  N  N344  1  0.80467424  0.42793111  0.45425841  1
  N  N345  1  0.52096490  0.74280493  0.53376271  1
  N  N346  1  0.95273452  0.25955909  0.04206989  1
  N  N347  1  0.94544528  0.73996661  0.54300886  1
  N  N348  1  0.29156407  0.76086530  0.04180445  1
  N  N349  1  0.53986993  0.39918238  0.96132051  1
  N  N350  1  0.79103185  0.57278693  0.54055794  1
  N  N351  1  0.79245940  0.09474083  0.45948659  1
  N  N352  1  0.80992909  0.42862802  0.04501637  1
  N  N353  1  0.55528815  0.59512521  0.45516419  1
  N  N354  1  0.79103298  0.24036958  0.54454909  1
  N  N355  1  0.29280465  0.90663517  0.96117814  1
  N  N356  1  0.95439076  0.40832276  0.96047276  1
  N  N357  1  0.94840771  0.92621520  0.04022662  1
  N  N358  1  0.01780716  0.07333224  0.53803157  1
  N  N359  1  0.20647417  0.09421810  0.04190086  1
  N  N360  1  0.05542251  0.05548272  0.59020216  1
  N  N361  1  0.07166201  0.38945915  0.60189569  1
  N  N362  1  0.05727781  0.72343983  0.59494995  1
  N  N363  1  0.56127778  0.05667121  0.59706396  1
  N  N364  1  0.55940691  0.39173620  0.59360896  1
  N  N365  1  0.55353793  0.72580607  0.59037330  1
  N  N366  1  0.43412730  0.27750707  0.10107859  1
  N  N367  1  0.43621552  0.60807244  0.09531603  1
  N  N368  1  0.42950989  0.94293220  0.09889173  1
  N  N369  1  0.93161645  0.27640984  0.09932146  1
  N  N370  1  0.93656056  0.61063615  0.09693928  1
  N  N371  1  0.92869965  0.94430000  0.09889056  1
  N  N372  1  0.43733772  0.05660491  0.90122364  1
  N  N373  1  0.43592841  0.38714190  0.90364087  1
  N  N374  1  0.43022623  0.72201434  0.89665618  1
  N  N375  1  0.93369972  0.05740234  0.90458098  1
  N  N376  1  0.93265793  0.38962901  0.90210567  1
  N  N377  1  0.93272293  0.72352076  0.90574795  1
  N  N378  1  0.07486456  0.27758763  0.39584736  1
  N  N379  1  0.06861078  0.61013365  0.39904103  1
  N  N380  1  0.07170528  0.94502705  0.40133562  1
  N  N381  1  0.56554779  0.27813835  0.40163476  1
  N  N382  1  0.56809226  0.61142344  0.39635472  1
  N  N383  1  0.56713500  0.94473543  0.40135791  1
  N  N384  1  0.30553641  0.22352718  0.58983920  1
  N  N385  1  0.30541617  0.55654072  0.59251666  1
  N  N386  1  0.30226890  0.89221652  0.58687285  1
  N  N387  1  0.81307459  0.22290650  0.60243718  1
  N  N388  1  0.81182706  0.55626710  0.59876152  1
  N  N389  1  0.82043803  0.88687273  0.60636031  1
  N  N390  1  0.18712243  0.11098185  0.10033446  1
  N  N391  1  0.18430437  0.44372635  0.10376300  1
  N  N392  1  0.18947417  0.77703222  0.09916662  1
  N  N393  1  0.68442670  0.11073930  0.09897636  1
  N  N394  1  0.69275740  0.44221745  0.09037936  1
  N  N395  1  0.69104739  0.77617673  0.09391139  1
  N  N396  1  0.18935211  0.22560641  0.90847483  1
  N  N397  1  0.18627395  0.55710563  0.90328929  1
  N  N398  1  0.18796928  0.88936318  0.90139799  1
  N  N399  1  0.69091528  0.22356844  0.90402261  1
  N  N400  1  0.68403980  0.55560270  0.89820447  1
  N  N401  1  0.69791555  0.89166153  0.91085249  1
  N  N402  1  0.32236931  0.11059433  0.39970611  1
  N  N403  1  0.30789686  0.44217428  0.41027431  1
  N  N404  1  0.32267578  0.77742774  0.39644598  1
  N  N405  1  0.81777650  0.10817290  0.40212214  1
  N  N406  1  0.81739857  0.44414631  0.39467749  1
  N  N407  1  0.81600349  0.77791735  0.40292819  1
  N  N408  1  0.43521890  0.27763111  0.39754381  1
  N  N409  1  0.44178811  0.60943306  0.40704899  1
  N  N410  1  0.43683091  0.94623200  0.39884160  1
  N  N411  1  0.94748430  0.27720457  0.41235827  1
  N  N412  1  0.94068939  0.60976247  0.40444871  1
  N  N413  1  0.94271713  0.94174252  0.41147676  1
  N  N414  1  0.06384911  0.05651320  0.90177818  1
  N  N415  1  0.06125035  0.39250128  0.90925279  1
  N  N416  1  0.06288756  0.72199907  0.90175633  1
  N  N417  1  0.56546118  0.05798395  0.90181121  1
  N  N418  1  0.56390638  0.39242952  0.90181319  1
  N  N419  1  0.56012257  0.72332995  0.90416503  1
  N  N420  1  0.05861148  0.27554329  0.09202738  1
  N  N421  1  0.06324985  0.61095349  0.09677914  1
  N  N422  1  0.05670546  0.94110478  0.09029513  1
  N  N423  1  0.56205462  0.27498493  0.09563906  1
  N  N424  1  0.56513737  0.60961880  0.09722694  1
  N  N425  1  0.55849103  0.94392972  0.09319643  1
  N  N426  1  0.43292186  0.05802067  0.59564656  1
  N  N427  1  0.43253403  0.38921767  0.60093717  1
  N  N428  1  0.42615381  0.72321960  0.60095220  1
  N  N429  1  0.92963015  0.05446792  0.60397612  1
  N  N430  1  0.94232556  0.39156481  0.59235975  1
  N  N431  1  0.92943766  0.72343676  0.60204030  1
  N  N432  1  0.19232968  0.10904892  0.40477741  1
  N  N433  1  0.18185207  0.44406611  0.39893578  1
  N  N434  1  0.19490579  0.77512903  0.40964026  1
  N  N435  1  0.69052973  0.10977962  0.40530195  1
  N  N436  1  0.69008281  0.44283951  0.40510627  1
  N  N437  1  0.68766116  0.77534822  0.40430482  1
  N  N438  1  0.31793498  0.22218826  0.90141765  1
  N  N439  1  0.31446911  0.55723141  0.90065556  1
  N  N440  1  0.31606806  0.89057196  0.90307734  1
  N  N441  1  0.81894519  0.22333698  0.90103955  1
  N  N442  1  0.81013500  0.55863326  0.90639033  1
  N  N443  1  0.82628136  0.88708007  0.89512315  1
  N  N444  1  0.31512531  0.10909957  0.09814575  1
  N  N445  1  0.31171379  0.44303450  0.09397557  1
  N  N446  1  0.31603014  0.77706606  0.09989371  1
  N  N447  1  0.81249609  0.10940738  0.09641531  1
  N  N448  1  0.81924768  0.44544025  0.10527500  1
  N  N449  1  0.81873070  0.77769750  0.10239857  1
  N  N450  1  0.17795124  0.22368429  0.60442063  1
  N  N451  1  0.17642251  0.55419595  0.60520120  1
  N  N452  1  0.17686173  0.88862777  0.60444902  1
  N  N453  1  0.68407548  0.22117901  0.59656792  1
  N  N454  1  0.68365906  0.55805597  0.59856642  1
  N  N455  1  0.69141992  0.88881167  0.59279844  1
  Cl  Cl456  1  0.24095332  0.05414281  0.61285636  1
  Cl  Cl457  1  0.25220974  0.38374049  0.62220607  1
  Cl  Cl458  1  0.24227994  0.72358223  0.60898194  1
  Cl  Cl459  1  0.74747779  0.05478890  0.61554677  1
  Cl  Cl460  1  0.74404443  0.38687401  0.61276280  1
  Cl  Cl461  1  0.74075596  0.72059652  0.61877222  1
  Cl  Cl462  1  0.24762575  0.27769407  0.11154111  1
  Cl  Cl463  1  0.25200367  0.61193250  0.11827668  1
  Cl  Cl464  1  0.24268372  0.94726617  0.12123689  1
  Cl  Cl465  1  0.74910919  0.28142399  0.12457331  1
  Cl  Cl466  1  0.74892537  0.61505017  0.11877005  1
  Cl  Cl467  1  0.74255980  0.94550755  0.11478742  1
  Cl  Cl468  1  0.25231841  0.05502385  0.88044498  1
  Cl  Cl469  1  0.25233328  0.38631724  0.88928892  1
  Cl  Cl470  1  0.24782597  0.71715723  0.87211280  1
  Cl  Cl471  1  0.74834018  0.05299403  0.88075335  1
  Cl  Cl472  1  0.74588660  0.38563333  0.88525687  1
  Cl  Cl473  1  0.74472744  0.72263685  0.88495902  1
  Cl  Cl474  1  0.25465937  0.27868465  0.38144587  1
  Cl  Cl475  1  0.25759805  0.61276970  0.38653394  1
  Cl  Cl476  1  0.25540568  0.94065597  0.39130149  1
  Cl  Cl477  1  0.76119955  0.27180163  0.39712999  1
  Cl  Cl478  1  0.75157035  0.61542675  0.38364462  1
  Cl  Cl479  1  0.75418682  0.94621839  0.38289631  1
  Cl  Cl480  1  -0.00603368  0.22415885  0.60594468  1
  Cl  Cl481  1  -0.00435428  0.55141497  0.62067601  1
  Cl  Cl482  1  0.00144373  0.88380339  0.62439955  1
  Cl  Cl483  1  0.49422536  0.22126980  0.61366608  1
  Cl  Cl484  1  0.49306311  0.55694729  0.60931498  1
  Cl  Cl485  1  0.49161180  0.89100082  0.61443538  1
  Cl  Cl486  1  0.00061960  0.11265432  0.11980108  1
  Cl  Cl487  1  0.00083827  0.44256919  0.11466090  1
  Cl  Cl488  1  0.00565005  0.78445717  0.11868479  1
  Cl  Cl489  1  0.50014748  0.11288321  0.11754371  1
  Cl  Cl490  1  0.50247892  0.44313859  0.10198344  1
  Cl  Cl491  1  0.50328410  0.78020239  0.11011701  1
  Cl  Cl492  1  0.00198505  0.22122235  0.88254132  1
  Cl  Cl493  1  -0.00300141  0.55012520  0.88409109  1
  Cl  Cl494  1  0.00664406  0.88757089  0.88766574  1
  Cl  Cl495  1  0.50427889  0.22153444  0.88321771  1
  Cl  Cl496  1  0.50076084  0.55259229  0.88381630  1
  Cl  Cl497  1  0.50925917  0.89329552  0.89000023  1
  Cl  Cl498  1  0.00374326  0.11107049  0.39274689  1
  Cl  Cl499  1  0.00138585  0.44514478  0.38061235  1
  Cl  Cl500  1  0.00860280  0.78047711  0.38688151  1
  Cl  Cl501  1  0.50633214  0.11519456  0.37903517  1
  Cl  Cl502  1  0.50177174  0.44409247  0.38904789  1
  Cl  Cl503  1  0.50387353  0.78109691  0.37612890  1
  Cl  Cl504  1  0.35916980  0.14592328  0.74975304  1
  Cl  Cl505  1  0.36052365  0.47599421  0.75274468  1
  Cl  Cl506  1  0.36042876  0.81166054  0.74896163  1
  Cl  Cl507  1  0.86422603  0.14381512  0.74602743  1
  Cl  Cl508  1  0.86096450  0.47725863  0.74899904  1
  Cl  Cl509  1  0.86280128  0.81015364  0.75139030  1
  Cl  Cl510  1  0.14041707  0.18901919  0.25085964  1
  Cl  Cl511  1  0.13972945  0.52087674  0.25154498  1
  Cl  Cl512  1  0.13986241  0.85509514  0.25346414  1
  Cl  Cl513  1  0.63690738  0.18923777  0.25239867  1
  Cl  Cl514  1  0.63769508  0.52196975  0.24935609  1
  Cl  Cl515  1  0.63791909  0.85626449  0.25068344  1
  Cl  Cl516  1  0.13577851  0.14634605  0.74636842  1
  Cl  Cl517  1  0.13870775  0.47599912  0.74655783  1
  Cl  Cl518  1  0.13849944  0.81246177  0.74580756  1
  Cl  Cl519  1  0.64023551  0.14545667  0.74940518  1
  Cl  Cl520  1  0.63653689  0.47634524  0.75243741  1
  Cl  Cl521  1  0.63716154  0.81341633  0.75174507  1
  Cl  Cl522  1  0.36574835  0.18935170  0.25276966  1
  Cl  Cl523  1  0.36351859  0.52030959  0.25178225  1
  Cl  Cl524  1  0.36138906  0.85782039  0.25428704  1
  Cl  Cl525  1  0.85896570  0.18980096  0.25112215  1
  Cl  Cl526  1  0.86307879  0.52074109  0.24991697  1
  Cl  Cl527  1  0.86362185  0.85527876  0.24711135  1
  Cl  Cl528  1  0.11162253  0.31081137  0.74606215  1
  Cl  Cl529  1  0.11200993  0.64303612  0.74968103  1
  Cl  Cl530  1  0.10924899  0.97774169  0.74880780  1
  Cl  Cl531  1  0.61135912  0.31158091  0.75078058  1
  Cl  Cl532  1  0.60785057  0.64273933  0.75081967  1
  Cl  Cl533  1  0.61235506  0.97837267  0.74662732  1
  Cl  Cl534  1  0.38808831  0.02247128  0.25062666  1
  Cl  Cl535  1  0.38806809  0.35547385  0.24712254  1
  Cl  Cl536  1  0.38937029  0.68898365  0.24924494  1
  Cl  Cl537  1  0.88825762  0.02371528  0.24880339  1
  Cl  Cl538  1  0.88879019  0.35458595  0.24915080  1
  Cl  Cl539  1  0.88859586  0.68943804  0.24990622  1
  Cl  Cl540  1  0.38930533  0.31140387  0.74991222  1
  Cl  Cl541  1  0.38787791  0.64423025  0.74834713  1
  Cl  Cl542  1  0.38512352  0.97844095  0.75082152  1
  Cl  Cl543  1  0.88900827  0.31039948  0.74958710  1
  Cl  Cl544  1  0.88654958  0.64455442  0.74878494  1
  Cl  Cl545  1  0.88719147  0.97709702  0.74836711  1
  Cl  Cl546  1  0.10893527  0.02311895  0.25286560  1
  Cl  Cl547  1  0.11321347  0.35429359  0.25202853  1
  Cl  Cl548  1  0.11431360  0.68828273  0.25139535  1
  Cl  Cl549  1  0.61243465  0.02185186  0.24943264  1
  Cl  Cl550  1  0.60833866  0.35601665  0.25176490  1
  Cl  Cl551  1  0.61017674  0.68930708  0.24975403  1
