# generated using pymatgen
data_H8PbC4(N3Cl2)2
_symmetry_space_group_name_H-M   'P 1'
_cell_length_a   16.62824197
_cell_length_b   22.52214513
_cell_length_c   21.59808778
_cell_angle_alpha   90.00033912
_cell_angle_beta   89.96957523
_cell_angle_gamma   89.99519797
_symmetry_Int_Tables_number   1
_chemical_formula_structural   H8PbC4(N3Cl2)2
_chemical_formula_sum   'H192 Pb24 C96 N144 Cl96'
_cell_volume   8088.56216275
_cell_formula_units_Z   24
loop_
 _symmetry_equiv_pos_site_id
 _symmetry_equiv_pos_as_xyz
  1  'x, y, z'
loop_
 _atom_site_type_symbol
 _atom_site_label
 _atom_site_symmetry_multiplicity
 _atom_site_fract_x
 _atom_site_fract_y
 _atom_site_fract_z
 _atom_site_occupancy
  H  H0  1  -0.00960572  0.03010225  0.67765962  1
  H  H1  1  -0.01396763  0.36098601  0.67560207  1
  H  H2  1  -0.00412827  0.70115641  0.68259955  1
  H  H3  1  0.51077708  0.03012329  0.67822213  1
  H  H4  1  0.50982219  0.36338056  0.67982919  1
  H  H5  1  0.49456844  0.69726636  0.67755267  1
  H  H6  1  0.00580211  0.30452158  0.17644251  1
  H  H7  1  -0.01972098  0.63955606  0.17669948  1
  H  H8  1  0.02007253  0.97213174  0.17264069  1
  H  H9  1  0.48647629  0.30483407  0.17652208  1
  H  H10  1  0.51867969  0.63426279  0.17805520  1
  H  H11  1  0.48891443  0.97309134  0.17618272  1
  H  H12  1  -0.00128177  0.02376059  0.82652072  1
  H  H13  1  0.00071946  0.36348967  0.82579813  1
  H  H14  1  0.02101540  0.69770522  0.82596482  1
  H  H15  1  0.50137980  0.02383574  0.81728576  1
  H  H16  1  0.49820130  0.36081975  0.81860966  1
  H  H17  1  0.48564831  0.69762392  0.81992374  1
  H  H18  1  -0.00647636  0.30659564  0.32745019  1
  H  H19  1  0.00748020  0.63520238  0.31914599  1
  H  H20  1  -0.01917194  0.97422857  0.32811564  1
  H  H21  1  0.50687268  0.30742529  0.32063021  1
  H  H22  1  0.49354936  0.63862062  0.32537079  1
  H  H23  1  0.52099411  0.96863677  0.32276972  1
  H  H24  1  0.24990674  0.19551338  0.68081319  1
  H  H25  1  0.23866191  0.52392832  0.67596183  1
  H  H26  1  0.26188673  0.85927258  0.66906265  1
  H  H27  1  0.73537193  0.19708715  0.67712724  1
  H  H28  1  0.76040363  0.52683365  0.67498838  1
  H  H29  1  0.74521756  0.86170907  0.68340429  1
  H  H30  1  0.23689851  0.13544823  0.17593044  1
  H  H31  1  0.24537507  0.47397707  0.18397045  1
  H  H32  1  0.25046810  0.80226351  0.17902953  1
  H  H33  1  0.75880446  0.14550671  0.17165856  1
  H  H34  1  0.74945175  0.46737001  0.17685808  1
  H  H35  1  0.74850978  0.80876123  0.17078094  1
  H  H36  1  0.24952935  0.19065591  0.82483663  1
  H  H37  1  0.25025355  0.53090059  0.82365169  1
  H  H38  1  0.24137182  0.86381055  0.82091222  1
  H  H39  1  0.75919106  0.19664321  0.82266086  1
  H  H40  1  0.75074912  0.52650695  0.81951997  1
  H  H41  1  0.74874268  0.86554421  0.82798189  1
  H  H42  1  0.24434747  0.13676529  0.32151591  1
  H  H43  1  0.23947725  0.46635126  0.32157086  1
  H  H44  1  0.25263007  0.80934161  0.32143941  1
  H  H45  1  0.74482801  0.13653483  0.32364826  1
  H  H46  1  0.76576990  0.47452397  0.32407703  1
  H  H47  1  0.74989577  0.79788302  0.32058597  1
  H  H48  1  0.11733929  0.05454312  0.60799166  1
  H  H49  1  0.11879190  0.38293465  0.61694179  1
  H  H50  1  0.13537800  0.71788728  0.62680876  1
  H  H51  1  0.61162619  0.06155395  0.59165313  1
  H  H52  1  0.62401422  0.38969685  0.60166329  1
  H  H53  1  0.63342140  0.71564190  0.62237925  1
  H  H54  1  0.38548967  0.27241198  0.09083782  1
  H  H55  1  0.37183125  0.62074677  0.13533474  1
  H  H56  1  0.39296718  0.94182657  0.08630895  1
  H  H57  1  0.87979827  0.27794340  0.10976092  1
  H  H58  1  0.88372702  0.60852374  0.08948853  1
  H  H59  1  0.87267513  0.95321704  0.13083076  1
  H  H60  1  0.37362296  0.05027003  0.88602707  1
  H  H61  1  0.36626073  0.38460838  0.87947655  1
  H  H62  1  0.38461354  0.72492355  0.90631094  1
  H  H63  1  0.87101080  0.05348732  0.89149425  1
  H  H64  1  0.86189221  0.38025438  0.87969935  1
  H  H65  1  0.88097072  0.71839705  0.87945879  1
  H  H66  1  0.11823269  0.27750473  0.39325668  1
  H  H67  1  0.10917891  0.60613285  0.40529741  1
  H  H68  1  0.12687495  0.95434288  0.37002034  1
  H  H69  1  0.61377188  0.27618791  0.40354197  1
  H  H70  1  0.61749225  0.61323794  0.39430920  1
  H  H71  1  0.62007323  0.93632908  0.41124510  1
  H  H72  1  0.37722620  0.22086082  0.61194373  1
  H  H73  1  0.38024384  0.55032150  0.62819593  1
  H  H74  1  0.37127635  0.89228315  0.59019421  1
  H  H75  1  0.87948940  0.21629552  0.62979038  1
  H  H76  1  0.88489202  0.55305526  0.60399073  1
  H  H77  1  0.87201029  0.88003354  0.61355245  1
  H  H78  1  0.13244298  0.10998771  0.09084951  1
  H  H79  1  0.13440219  0.44404550  0.10518880  1
  H  H80  1  0.11582522  0.78543908  0.11797665  1
  H  H81  1  0.63222466  0.11332064  0.10588571  1
  H  H82  1  0.64040372  0.44024249  0.09680531  1
  H  H83  1  0.62042916  0.78076504  0.10650579  1
  H  H84  1  0.11408683  0.21477498  0.88435545  1
  H  H85  1  0.12454394  0.55361126  0.89214111  1
  H  H86  1  0.12047742  0.88613239  0.89486008  1
  H  H87  1  0.62385081  0.21527859  0.87775368  1
  H  H88  1  0.62588442  0.54993036  0.88901806  1
  H  H89  1  0.62253934  0.88812771  0.89415329  1
  H  H90  1  0.37436918  0.11420928  0.38215528  1
  H  H91  1  0.37677408  0.45253821  0.37585784  1
  H  H92  1  0.36562501  0.77818590  0.39973310  1
  H  H93  1  0.88358078  0.11573482  0.37855254  1
  H  H94  1  0.88039005  0.44141314  0.40065061  1
  H  H95  1  0.86209067  0.77680156  0.40278873  1
  H  H96  1  0.36808016  0.28322799  0.37271952  1
  H  H97  1  0.37004408  0.60944245  0.39410016  1
  H  H98  1  0.37764622  0.95091668  0.37304450  1
  H  H99  1  0.87002050  0.28003997  0.39817828  1
  H  H100  1  0.86482267  0.61719939  0.37104124  1
  H  H101  1  0.88705578  0.94097294  0.41818694  1
  H  H102  1  0.11964143  0.05328901  0.89749163  1
  H  H103  1  0.10853784  0.38924648  0.90704736  1
  H  H104  1  0.12597196  0.72757711  0.90935793  1
  H  H105  1  0.62206663  0.05370533  0.89047977  1
  H  H106  1  0.61504104  0.38600740  0.89314517  1
  H  H107  1  0.62883359  0.71637061  0.86992281  1
  H  H108  1  0.12819402  0.27717785  0.10381078  1
  H  H109  1  0.12485855  0.62369568  0.13314743  1
  H  H110  1  0.11023308  0.94040808  0.07918496  1
  H  H111  1  0.62927326  0.28202748  0.12872637  1
  H  H112  1  0.61253037  0.60855353  0.08775624  1
  H  H113  1  0.63323688  0.95212591  0.12953240  1
  H  H114  1  0.36787131  0.04693178  0.62834035  1
  H  H115  1  0.37566488  0.38634690  0.61807400  1
  H  H116  1  0.38744851  0.72740788  0.59521791  1
  H  H117  1  0.86896119  0.05635372  0.60339149  1
  H  H118  1  0.87076775  0.38882492  0.59941606  1
  H  H119  1  0.88809254  0.72335061  0.60047913  1
  H  H120  1  0.12692198  0.11231700  0.39629216  1
  H  H121  1  0.13134363  0.44110358  0.40368193  1
  H  H122  1  0.11845597  0.78513074  0.38057600  1
  H  H123  1  0.63839632  0.10671293  0.40837148  1
  H  H124  1  0.63266588  0.45016450  0.38368627  1
  H  H125  1  0.61488278  0.77878793  0.38240655  1
  H  H126  1  0.36115511  0.22255779  0.90498084  1
  H  H127  1  0.37346687  0.55528665  0.89183837  1
  H  H128  1  0.36963783  0.88507231  0.88487246  1
  H  H129  1  0.86952880  0.22125609  0.90317209  1
  H  H130  1  0.87377865  0.55578818  0.88806428  1
  H  H131  1  0.87111625  0.88882992  0.89802201  1
  H  H132  1  0.37657678  0.11767025  0.12651342  1
  H  H133  1  0.38156736  0.45110747  0.12413849  1
  H  H134  1  0.36399164  0.77773078  0.10210872  1
  H  H135  1  0.88096510  0.11400856  0.10096034  1
  H  H136  1  0.88741560  0.44858391  0.12273800  1
  H  H137  1  0.86942458  0.77895652  0.09972205  1
  H  H138  1  0.12861979  0.22118237  0.60857909  1
  H  H139  1  0.13881415  0.55691309  0.58983295  1
  H  H140  1  0.12551272  0.88511169  0.61366285  1
  H  H141  1  0.63907388  0.22882780  0.58771453  1
  H  H142  1  0.63661961  0.55497037  0.60520911  1
  H  H143  1  0.62514638  0.89267337  0.61266790  1
  H  H144  1  0.56508259  0.56824379  0.49073055  1
  H  H145  1  0.91838416  0.24829675  0.50130769  1
  H  H146  1  0.41521516  0.58916509  0.49958778  1
  H  H147  1  0.71626239  0.08113687  0.50711574  1
  H  H148  1  0.08955487  0.41851568  0.50448194  1
  H  H149  1  0.18006564  0.24982427  0.50054107  1
  H  H150  1  0.20199444  0.41599123  -0.00042534  1
  H  H151  1  0.72538046  0.25311832  0.49238562  1
  H  H152  1  0.33190971  0.91640549  0.99778938  1
  H  H153  1  0.64496838  0.24499381  -0.00625785  1
  H  H154  1  0.61608357  0.74580642  0.97931519  1
  H  H155  1  0.55799809  0.41750806  1.00188761  1
  H  H156  1  0.03929933  0.41701632  1.01324876  1
  H  H157  1  0.53014018  0.08507710  0.49293958  1
  H  H158  1  0.12360134  0.59087788  0.01859025  1
  H  H159  1  0.81513141  0.60788251  0.97940621  1
  H  H160  1  0.38787839  0.24924261  0.48455392  1
  H  H161  1  0.68904329  0.94456368  0.52351478  1
  H  H162  1  0.22123098  0.58559704  0.49398520  1
  H  H163  1  0.03211116  0.57796699  0.50575468  1
  H  H164  1  0.96501613  0.57815621  -0.01027067  1
  H  H165  1  0.15059553  0.91803086  0.50429142  1
  H  H166  1  0.81590920  0.88579504  0.50661031  1
  H  H167  1  0.39727949  0.41689126  0.99061215  1
  H  H168  1  0.68301412  0.08075928  0.00161401  1
  H  H169  1  0.14671662  0.75011261  0.49123660  1
  H  H170  1  0.56235267  0.42030607  0.49682377  1
  H  H171  1  0.34336208  0.08230166  0.49606435  1
  H  H172  1  0.62675853  0.92242551  0.01842108  1
  H  H173  1  0.54158638  0.25125674  0.50322378  1
  H  H174  1  0.35811167  0.42138101  0.49033964  1
  H  H175  1  0.95676077  0.75058216  0.49356580  1
  H  H176  1  0.87435107  0.92249984  0.02093993  1
  H  H177  1  0.64525427  0.75269842  0.49159285  1
  H  H178  1  0.70847303  0.40744437  -0.00836278  1
  H  H179  1  0.30296809  0.74811748  -0.00661316  1
  H  H180  1  0.33275935  0.58645626  1.00313429  1
  H  H181  1  0.68188519  0.55877562  0.99604582  1
  H  H182  1  0.52775119  0.58204813  -0.01243808  1
  H  H183  1  0.46712657  0.24782435  -0.00786324  1
  H  H184  1  0.28883416  0.24841953  1.00606065  1
  H  H185  1  0.53540857  0.90919818  0.50603378  1
  H  H186  1  0.46210046  0.75290929  1.00833695  1
  H  H187  1  0.87294418  0.41385418  0.00491429  1
  H  H188  1  0.97457390  0.91827014  0.51345223  1
  H  H189  1  0.36307010  0.08504489  1.01163937  1
  H  H190  1  0.81705030  0.75224818  -0.00480602  1
  H  H191  1  0.83577783  0.58239773  0.50061885  1
  Pb  Pb192  1  0.24598096  0.04657247  0.75206620  1
  Pb  Pb193  1  0.24346352  0.38501036  0.75601149  1
  Pb  Pb194  1  0.25173901  0.71548922  0.75482827  1
  Pb  Pb195  1  0.74719291  0.05113313  0.74856362  1
  Pb  Pb196  1  0.74751494  0.37990262  0.74566491  1
  Pb  Pb197  1  0.75051274  0.71719064  0.74999597  1
  Pb  Pb198  1  0.25213319  0.28313415  0.24174016  1
  Pb  Pb199  1  0.25328124  0.61866898  0.26630559  1
  Pb  Pb200  1  0.25038808  0.95283608  0.23357792  1
  Pb  Pb201  1  0.75717252  0.28399922  0.26027809  1
  Pb  Pb202  1  0.74832840  0.61834347  0.23493580  1
  Pb  Pb203  1  0.75647890  0.94809080  0.27098900  1
  Pb  Pb204  1  0.00196515  0.21452250  0.75087277  1
  Pb  Pb205  1  -0.00410757  0.55036605  0.74593410  1
  Pb  Pb206  1  -0.00088925  0.88249528  0.74746638  1
  Pb  Pb207  1  0.49279301  0.21723963  0.74723680  1
  Pb  Pb208  1  0.50344445  0.54866932  0.74581540  1
  Pb  Pb209  1  0.49588290  0.88032387  0.74109082  1
  Pb  Pb210  1  0.00453766  0.11764573  0.24122997  1
  Pb  Pb211  1  0.00457233  0.45128481  0.25772348  1
  Pb  Pb212  1  0.00082325  0.78342795  0.25369294  1
  Pb  Pb213  1  0.50795417  0.11526160  0.25700151  1
  Pb  Pb214  1  0.50843296  0.44969541  0.24694729  1
  Pb  Pb215  1  0.49839769  0.78627847  0.24645725  1
  C  C216  1  -0.00807091  0.04691637  0.63058877  1
  C  C217  1  -0.00746596  0.37767511  0.62887800  1
  C  C218  1  0.00619940  0.71398372  0.63485650  1
  C  C219  1  0.49701288  0.04530299  0.63177873  1
  C  C220  1  0.50286293  0.37950310  0.63275337  1
  C  C221  1  0.50513069  0.71322619  0.63104510  1
  C  C222  1  0.00497850  0.28744033  0.12967914  1
  C  C223  1  -0.00299467  0.62407493  0.13071934  1
  C  C224  1  0.00073290  0.95593608  0.12769683  1
  C  C225  1  0.50012289  0.28827137  0.13051655  1
  C  C226  1  0.50098479  0.62097942  0.13171206  1
  C  C227  1  0.50520217  0.95646917  0.13062413  1
  C  C228  1  -0.00380956  0.04272669  0.87241078  1
  C  C229  1  -0.00981542  0.37768566  0.87317611  1
  C  C230  1  0.00896733  0.71438651  0.87196566  1
  C  C231  1  0.49905485  0.04133071  0.86405371  1
  C  C232  1  0.49286555  0.37743583  0.86568357  1
  C  C233  1  0.50058668  0.71334785  0.86621868  1
  C  C234  1  -0.00658037  0.28910442  0.37413232  1
  C  C235  1  -0.00656552  0.62012203  0.36564739  1
  C  C236  1  -0.00204072  0.95794264  0.37355961  1
  C  C237  1  0.49632673  0.29057528  0.36713776  1
  C  C238  1  0.49347331  0.62148388  0.37243417  1
  C  C239  1  0.50681052  0.95287611  0.36898959  1
  C  C240  1  0.25235409  0.21151458  0.63343209  1
  C  C241  1  0.25264863  0.54232056  0.63083343  1
  C  C242  1  0.25218563  0.87746325  0.62327754  1
  C  C243  1  0.75122657  0.21223047  0.63100982  1
  C  C244  1  0.76109835  0.54406571  0.62813049  1
  C  C245  1  0.74765199  0.87761184  0.63602541  1
  C  C246  1  0.24967458  0.12076662  0.12921640  1
  C  C247  1  0.25423261  0.45718037  0.13729600  1
  C  C248  1  0.24358313  0.78857692  0.13128575  1
  C  C249  1  0.75695027  0.12537555  0.12605424  1
  C  C250  1  0.75946701  0.45250039  0.12948139  1
  C  C251  1  0.74656272  0.79031522  0.12432119  1
  C  C252  1  0.24202686  0.20779956  0.87138576  1
  C  C253  1  0.25004765  0.54648023  0.87113044  1
  C  C254  1  0.24445037  0.87827928  0.86864554  1
  C  C255  1  0.74990836  0.21116068  0.86993755  1
  C  C256  1  0.75007930  0.54377799  0.86652995  1
  C  C257  1  0.74740457  0.88098055  0.87531860  1
  C  C258  1  0.24935650  0.12099716  0.36873575  1
  C  C259  1  0.25022327  0.45323765  0.36905765  1
  C  C260  1  0.24547002  0.79105229  0.36747533  1
  C  C261  1  0.75520549  0.12050149  0.37029213  1
  C  C262  1  0.75987121  0.45575779  0.36992076  1
  C  C263  1  0.74180692  0.78445684  0.36843509  1
  C  C264  1  0.02435761  0.74702607  0.96684050  1
  C  C265  1  0.78557850  0.90864304  0.96855099  1
  C  C266  1  0.96307593  0.40930845  0.53482900  1
  C  C267  1  0.28994147  0.90512879  0.96110460  1
  C  C268  1  0.26976827  0.76094899  0.03466591  1
  C  C269  1  0.82009121  0.42546776  0.04270858  1
  C  C270  1  0.06766985  0.73563832  0.54717948  1
  C  C271  1  0.20740176  0.57427145  0.96359368  1
  C  C272  1  0.96465541  0.25658309  0.03893195  1
  C  C273  1  0.92847466  0.40171645  0.96039240  1
  C  C274  1  0.21708856  0.09123202  0.46273557  1
  C  C275  1  0.70356815  0.90862764  0.96793011  1
  C  C276  1  0.71026836  0.42263577  0.45699699  1
  C  C277  1  0.19489479  0.76042754  0.45517699  1
  C  C278  1  0.50379609  0.59429564  0.03269107  1
  C  C279  1  0.28877558  0.57512337  0.96538877  1
  C  C280  1  0.23284693  0.42804851  0.04237365  1
  C  C281  1  0.20850554  0.90448479  0.96313704  1
  C  C282  1  0.56197891  0.74010565  0.54426022  1
  C  C283  1  0.48774668  0.74139563  0.96343765  1
  C  C284  1  0.42568568  0.59914787  0.05055136  1
  C  C285  1  0.52354776  0.40643008  0.96066983  1
  C  C286  1  0.56763858  0.25745810  0.04835330  1
  C  C287  1  0.98980546  0.59320476  0.03360085  1
  C  C288  1  0.00929227  0.40508896  0.97025346  1
  C  C289  1  0.43532931  0.25929075  0.45140226  1
  C  C290  1  0.29839576  0.09214202  0.45984699  1
  C  C291  1  0.73891733  0.42179177  0.03364178  1
  C  C292  1  0.27601250  0.91427392  0.52946344  1
  C  C293  1  0.70021833  0.75960001  0.03354462  1
  C  C294  1  0.77391455  0.23862003  0.96616366  1
  C  C295  1  0.22888305  0.42644792  0.46605871  1
  C  C296  1  0.31321850  0.09414997  0.04309036  1
  C  C297  1  0.30949043  0.42978195  0.45774975  1
  C  C298  1  0.44175356  0.40624227  0.95531773  1
  C  C299  1  0.06933724  0.59920717  0.04839321  1
  C  C300  1  0.69294302  0.23669884  0.95927228  1
  C  C301  1  0.42901034  0.07162218  0.54813637  1
  C  C302  1  0.23283143  0.09196250  0.03239799  1
  C  C303  1  0.21819993  0.23869398  0.54013955  1
  C  C304  1  0.52813257  0.40893401  0.53848865  1
  C  C305  1  0.04444060  0.40745270  0.53938920  1
  C  C306  1  0.00489933  0.59108653  0.46174997  1
  C  C307  1  0.98738566  0.73895081  0.53639720  1
  C  C308  1  0.03669729  0.25555849  0.46522375  1
  C  C309  1  0.02925797  0.07944747  0.96230059  1
  C  C310  1  0.07176805  0.93060420  0.45402410  1
  C  C311  1  0.18895888  0.76504896  0.04170839  1
  N  N312  1  0.71891086  0.08847198  0.03916874  1
  N  N313  1  0.92944100  0.92919368  0.04890173  1
  N  N314  1  0.70816570  0.57490709  0.95642875  1
  N  N315  1  0.50618662  0.07681700  0.53682382  1
  N  N316  1  0.03326393  0.07795439  0.53916687  1
  N  N317  1  0.51404397  0.92106720  0.46266430  1
  N  N318  1  0.51392567  0.25649724  0.46067679  1
  N  N319  1  0.49037276  0.25462281  0.03632822  1
  N  N320  1  0.79675842  0.08842785  0.03655068  1
  N  N321  1  0.43787267  0.92638965  0.45162240  1
  N  N322  1  0.29745964  0.23837934  0.54072206  1
  N  N323  1  0.45708741  0.07230421  0.95503527  1
  N  N324  1  0.78727879  0.41949454  0.46338195  1
  N  N325  1  0.48542566  0.74423576  0.53419836  1
  N  N326  1  0.74624653  0.24394376  0.53706546  1
  N  N327  1  0.56527313  0.73925411  0.94954233  1
  N  N328  1  0.00405130  0.92410508  0.03106037  1
  N  N329  1  0.71913864  0.57434388  0.53646575  1
  N  N330  1  0.76883154  0.76038786  0.46526323  1
  N  N331  1  0.79746205  0.57375598  0.53768822  1
  N  N332  1  0.99524079  0.92589327  0.46859009  1
  N  N333  1  0.95765966  0.25698169  0.46517752  1
  N  N334  1  0.79237393  0.90542924  0.54559241  1
  N  N335  1  0.92720659  0.59507626  0.45076122  1
  N  N336  1  0.44907220  0.40788974  0.54363218  1
  N  N337  1  0.77940739  0.75901066  0.03222731  1
  N  N338  1  0.94752945  0.74412601  0.95848724  1
  N  N339  1  0.78995546  0.57169297  0.95801714  1
  N  N340  1  0.18471040  0.23836693  0.95757756  1
  N  N341  1  0.31975490  0.57641170  0.55031907  1
  N  N342  1  0.95195286  0.07958674  0.96168293  1
  N  N343  1  0.49596870  0.92616479  0.03371082  1
  N  N344  1  0.69128221  0.76072851  0.45694176  1
  N  N345  1  0.24313854  0.57881167  0.53888613  1
  N  N346  1  0.31142774  0.43058450  0.04883965  1
  N  N347  1  0.95711211  0.07792351  0.53754756  1
  N  N348  1  0.81777130  0.09070732  0.45472262  1
  N  N349  1  0.26205364  0.24078276  0.96343351  1
  N  N350  1  0.04170941  0.25682035  0.03570177  1
  N  N351  1  0.45332976  0.58755771  0.46130887  1
  N  N352  1  0.53229776  0.59805490  0.46534058  1
  N  N353  1  0.19810914  0.90977496  0.53745450  1
  N  N354  1  0.27352555  0.75784004  0.46211092  1
  N  N355  1  0.71000151  0.90640065  0.54404204  1
  N  N356  1  0.74069374  0.08873086  0.46340972  1
  N  N357  1  0.82220109  0.23866017  0.54942298  1
  N  N358  1  0.53331937  0.07312871  0.95679194  1
  N  N359  1  0.57175476  0.93000590  0.04884381  1
  N  N360  1  0.05650317  0.05904320  0.59679686  1
  N  N361  1  0.06138706  0.38780258  0.59895085  1
  N  N362  1  0.07874937  0.72079470  0.60677534  1
  N  N363  1  0.54920888  0.05810966  0.58763269  1
  N  N364  1  0.56238370  0.39187214  0.59288627  1
  N  N365  1  0.57677878  0.72161298  0.60350350  1
  N  N366  1  0.44778844  0.27683560  0.08607943  1
  N  N367  1  0.42471205  0.61501372  0.11037742  1
  N  N368  1  0.45519851  0.94218037  0.08491282  1
  N  N369  1  0.93914346  0.27519735  0.09539968  1
  N  N370  1  0.94583974  0.60886384  0.08533408  1
  N  N371  1  0.92664067  0.94881474  0.10731864  1
  N  N372  1  0.43428037  0.05299076  0.89764295  1
  N  N373  1  0.42424070  0.38861838  0.89614001  1
  N  N374  1  0.44704229  0.72556414  0.91168635  1
  N  N375  1  0.93109925  0.05614289  0.90458228  1
  N  N376  1  0.91785735  0.38502565  0.90043633  1
  N  N377  1  0.93824954  0.72383613  0.89778752  1
  N  N378  1  0.05898507  0.27516776  0.40873174  1
  N  N379  1  0.04680322  0.60630984  0.40996406  1
  N  N380  1  0.07364851  0.94876155  0.39439953  1
  N  N381  1  0.55145279  0.27895669  0.40965579  1
  N  N382  1  0.55697757  0.60846885  0.40641847  1
  N  N383  1  0.55795260  0.93860696  0.41352483  1
  N  N384  1  0.31723747  0.22132999  0.59943582  1
  N  N385  1  0.32469843  0.55575511  0.60843988  1
  N  N386  1  0.30993993  0.89418699  0.58221918  1
  N  N387  1  0.82462942  0.22085422  0.60853822  1
  N  N388  1  0.82437987  0.55417002  0.59255465  1
  N  N389  1  0.81188657  0.87912407  0.60000185  1
  N  N390  1  0.19461301  0.10797176  0.08426139  1
  N  N391  1  0.19628112  0.44408014  0.09633464  1
  N  N392  1  0.17359181  0.78126822  0.10010659  1
  N  N393  1  0.69268199  0.11239203  0.09263176  1
  N  N394  1  0.70226008  0.43912480  0.08821095  1
  N  N395  1  0.67957881  0.77754038  0.09113978  1
  N  N396  1  0.17270415  0.21945470  0.89985235  1
  N  N397  1  0.18406660  0.55717550  0.90652459  1
  N  N398  1  0.18112856  0.88863419  0.90723091  1
  N  N399  1  0.67943267  0.21990174  0.89795136  1
  N  N400  1  0.68615840  0.54854759  0.90272918  1
  N  N401  1  0.68173634  0.89165675  0.90953370  1
  N  N402  1  0.31717357  0.11069837  0.39981110  1
  N  N403  1  0.32128632  0.44646704  0.39651528  1
  N  N404  1  0.30358482  0.77740345  0.40700902  1
  N  N405  1  0.82624034  0.10934101  0.39617094  1
  N  N406  1  0.81847884  0.44042218  0.40799104  1
  N  N407  1  0.79988347  0.77450460  0.40965950  1
  N  N408  1  0.42430732  0.27897338  0.39301074  1
  N  N409  1  0.42929143  0.61216269  0.40755684  1
  N  N410  1  0.43380723  0.94513567  0.39298721  1
  N  N411  1  0.93031577  0.27872846  0.40951193  1
  N  N412  1  0.92167716  0.61306805  0.39070093  1
  N  N413  1  0.94896421  0.94574606  0.41996869  1
  N  N414  1  0.05934365  0.05709889  0.90873618  1
  N  N415  1  0.04667248  0.38996599  0.91503324  1
  N  N416  1  0.06422198  0.72900949  0.91530306  1
  N  N417  1  0.56075840  0.05366139  0.90065963  1
  N  N418  1  0.55402714  0.38848861  0.90447687  1
  N  N419  1  0.57264849  0.72217533  0.88978107  1
  N  N420  1  0.06733134  0.27621167  0.09362967  1
  N  N421  1  0.07172979  0.61793794  0.10875500  1
  N  N422  1  0.04810165  0.94066119  0.08039117  1
  N  N423  1  0.57417205  0.27689172  0.10706101  1
  N  N424  1  0.55020965  0.60845388  0.08476829  1
  N  N425  1  0.57795217  0.94868222  0.10760293  1
  N  N426  1  0.42293635  0.05347793  0.60725117  1
  N  N427  1  0.43495175  0.38970171  0.60268073  1
  N  N428  1  0.44999246  0.72713906  0.58957378  1
  N  N429  1  0.92990249  0.05865039  0.59414897  1
  N  N430  1  0.93193448  0.39146755  0.58884362  1
  N  N431  1  0.94992296  0.72512293  0.59245702  1
  N  N432  1  0.18766997  0.10847761  0.40803605  1
  N  N433  1  0.19307876  0.44048416  0.41239450  1
  N  N434  1  0.17632695  0.77982494  0.39696966  1
  N  N435  1  0.70098199  0.10895690  0.41340115  1
  N  N436  1  0.69070244  0.44435568  0.40031816  1
  N  N437  1  0.67365176  0.77576636  0.39850330  1
  N  N438  1  0.29875398  0.21990204  0.91232267  1
  N  N439  1  0.31400151  0.55750608  0.90614861  1
  N  N440  1  0.31112750  0.88854592  0.90130132  1
  N  N441  1  0.80796194  0.22334670  0.91241470  1
  N  N442  1  0.81301579  0.56166029  0.89887230  1
  N  N443  1  0.81114941  0.89192952  0.91160232  1
  N  N444  1  0.32205295  0.11196730  0.10438300  1
  N  N445  1  0.32316635  0.44848105  0.10813874  1
  N  N446  1  0.30302362  0.77609870  0.09174167  1
  N  N447  1  0.81999411  0.11027592  0.09137510  1
  N  N448  1  0.83125317  0.44440604  0.10230694  1
  N  N449  1  0.80839374  0.77950776  0.08781939  1
  N  N450  1  0.18935613  0.22241657  0.59656934  1
  N  N451  1  0.20115056  0.55534796  0.58620874  1
  N  N452  1  0.18274861  0.88608000  0.59529445  1
  N  N453  1  0.70158302  0.22495246  0.58513227  1
  N  N454  1  0.69732054  0.55672130  0.59337187  1
  N  N455  1  0.68623075  0.89764467  0.60333117  1
  Cl  Cl456  1  0.23989761  0.04880109  0.61871365  1
  Cl  Cl457  1  0.24772953  0.38683719  0.62493552  1
  Cl  Cl458  1  0.26434328  0.72242236  0.62297023  1
  Cl  Cl459  1  0.73431731  0.05710343  0.60078221  1
  Cl  Cl460  1  0.74704116  0.38631560  0.61422581  1
  Cl  Cl461  1  0.76196543  0.71865834  0.61954187  1
  Cl  Cl462  1  0.26288286  0.27128463  0.10206534  1
  Cl  Cl463  1  0.24858436  0.61784382  0.13973108  1
  Cl  Cl464  1  0.25195895  0.94280408  0.09822661  1
  Cl  Cl465  1  0.75623170  0.27691966  0.13020105  1
  Cl  Cl466  1  0.74775052  0.60980900  0.09598943  1
  Cl  Cl467  1  0.75225000  0.95016786  0.13826203  1
  Cl  Cl468  1  0.24730185  0.05302060  0.88539966  1
  Cl  Cl469  1  0.23407915  0.38932811  0.89183514  1
  Cl  Cl470  1  0.25764908  0.72427906  0.89028649  1
  Cl  Cl471  1  0.74382474  0.05818101  0.88265107  1
  Cl  Cl472  1  0.73591758  0.38728533  0.87972524  1
  Cl  Cl473  1  0.75575655  0.71779302  0.88744947  1
  Cl  Cl474  1  0.24040208  0.27519236  0.37370875  1
  Cl  Cl475  1  0.23423540  0.60452468  0.40256623  1
  Cl  Cl476  1  0.25203002  0.94889832  0.36702146  1
  Cl  Cl477  1  0.73682254  0.27403794  0.40061856  1
  Cl  Cl478  1  0.73743901  0.61425218  0.36945524  1
  Cl  Cl479  1  0.75215842  0.93744264  0.40874976  1
  Cl  Cl480  1  0.00689160  0.22658260  0.61636431  1
  Cl  Cl481  1  0.01311159  0.55682073  0.60827615  1
  Cl  Cl482  1  -0.00693342  0.89579766  0.60630275  1
  Cl  Cl483  1  0.51662458  0.22819794  0.60273872  1
  Cl  Cl484  1  0.51316420  0.55738579  0.60972373  1
  Cl  Cl485  1  0.50263646  0.89140112  0.60128157  1
  Cl  Cl486  1  0.00723782  0.11193726  0.10711235  1
  Cl  Cl487  1  0.01484253  0.44292831  0.12470683  1
  Cl  Cl488  1  -0.01036468  0.77880139  0.12158821  1
  Cl  Cl489  1  0.51161313  0.11584293  0.12606332  1
  Cl  Cl490  1  0.51558632  0.44307154  0.11264977  1
  Cl  Cl491  1  0.49351206  0.77765282  0.11021797  1
  Cl  Cl492  1  -0.00961415  0.21791884  0.88114482  1
  Cl  Cl493  1  -0.00331226  0.55211428  0.88037875  1
  Cl  Cl494  1  -0.00274314  0.88543992  0.87758004  1
  Cl  Cl495  1  0.47879327  0.22897065  0.89410832  1
  Cl  Cl496  1  0.50392004  0.55830145  0.87965623  1
  Cl  Cl497  1  0.49764620  0.88319645  0.87114028  1
  Cl  Cl498  1  0.00713824  0.12120551  0.37308795  1
  Cl  Cl499  1  0.00623005  0.44024325  0.39263195  1
  Cl  Cl500  1  -0.01463779  0.78356274  0.38911714  1
  Cl  Cl501  1  0.51926919  0.10509408  0.40062068  1
  Cl  Cl502  1  0.50943034  0.45105093  0.38020884  1
  Cl  Cl503  1  0.49113639  0.77874391  0.37807719  1
  Cl  Cl504  1  0.36468265  0.14380809  0.74178247  1
  Cl  Cl505  1  0.36831577  0.47834207  0.74588642  1
  Cl  Cl506  1  0.35670133  0.81984289  0.74920220  1
  Cl  Cl507  1  0.85500483  0.14723290  0.74174157  1
  Cl  Cl508  1  0.86001045  0.48101753  0.75146894  1
  Cl  Cl509  1  0.86402362  0.81505020  0.74942140  1
  Cl  Cl510  1  0.14508370  0.18001458  0.24492687  1
  Cl  Cl511  1  0.14239312  0.51791071  0.25642005  1
  Cl  Cl512  1  0.13577253  0.85265805  0.24907740  1
  Cl  Cl513  1  0.63997119  0.18641363  0.25555515  1
  Cl  Cl514  1  0.64604110  0.51324033  0.24872190  1
  Cl  Cl515  1  0.63467900  0.85425269  0.25064222  1
  Cl  Cl516  1  0.14388214  0.15285709  0.75286946  1
  Cl  Cl517  1  0.14784217  0.48482873  0.75308266  1
  Cl  Cl518  1  0.13592599  0.81396569  0.73718163  1
  Cl  Cl519  1  0.63387323  0.14992175  0.75938707  1
  Cl  Cl520  1  0.64263533  0.48459178  0.74613822  1
  Cl  Cl521  1  0.64637319  0.81433038  0.75435624  1
  Cl  Cl522  1  0.36756173  0.18580566  0.25155617  1
  Cl  Cl523  1  0.36360684  0.52306588  0.25932683  1
  Cl  Cl524  1  0.35667847  0.84936156  0.24749552  1
  Cl  Cl525  1  0.85712490  0.18633129  0.25837838  1
  Cl  Cl526  1  0.86769987  0.52147343  0.24644555  1
  Cl  Cl527  1  0.85008842  0.84958232  0.25076542  1
  Cl  Cl528  1  0.10550193  0.31911951  0.75189249  1
  Cl  Cl529  1  0.11400276  0.64790240  0.75015542  1
  Cl  Cl530  1  0.10388081  0.98614031  0.74980018  1
  Cl  Cl531  1  0.60548537  0.31581225  0.75171922  1
  Cl  Cl532  1  0.61508669  0.64982308  0.75272302  1
  Cl  Cl533  1  0.60984388  0.98040236  0.74110851  1
  Cl  Cl534  1  0.39173312  0.01742042  0.25291401  1
  Cl  Cl535  1  0.38491386  0.35567140  0.24830106  1
  Cl  Cl536  1  0.39034979  0.68324010  0.25275129  1
  Cl  Cl537  1  0.88914525  0.01812895  0.25176400  1
  Cl  Cl538  1  0.89108263  0.35180299  0.25367087  1
  Cl  Cl539  1  0.88434838  0.68503931  0.25399807  1
  Cl  Cl540  1  0.38556213  0.30921663  0.74086682  1
  Cl  Cl541  1  0.39300840  0.64999201  0.74651184  1
  Cl  Cl542  1  0.38640590  0.97960002  0.74403193  1
  Cl  Cl543  1  0.88588900  0.31338493  0.74833671  1
  Cl  Cl544  1  0.89535454  0.64686496  0.75861372  1
  Cl  Cl545  1  0.88155652  0.98080397  0.74624315  1
  Cl  Cl546  1  0.10731447  0.01521533  0.25186890  1
  Cl  Cl547  1  0.11061365  0.34693537  0.24957014  1
  Cl  Cl548  1  0.10534266  0.68618060  0.25135976  1
  Cl  Cl549  1  0.61161921  0.01925454  0.25119146  1
  Cl  Cl550  1  0.60667657  0.35049330  0.24936667  1
  Cl  Cl551  1  0.60987064  0.68499750  0.24940251  1
