# generated using pymatgen
data_H8PbC4(N3Cl2)2
_symmetry_space_group_name_H-M   'P 1'
_cell_length_a   16.62460384
_cell_length_b   22.50945070
_cell_length_c   21.59062412
_cell_angle_alpha   90.00065748
_cell_angle_beta   89.98800535
_cell_angle_gamma   89.99455413
_symmetry_Int_Tables_number   1
_chemical_formula_structural   H8PbC4(N3Cl2)2
_chemical_formula_sum   'H192 Pb24 C96 N144 Cl96'
_cell_volume   8079.44236271
_cell_formula_units_Z   24
loop_
 _symmetry_equiv_pos_site_id
 _symmetry_equiv_pos_as_xyz
  1  'x, y, z'
loop_
 _atom_site_type_symbol
 _atom_site_label
 _atom_site_symmetry_multiplicity
 _atom_site_fract_x
 _atom_site_fract_y
 _atom_site_fract_z
 _atom_site_occupancy
  H  H0  1  -0.00016843  0.03298949  0.68027463  1
  H  H1  1  0.00064619  0.36216815  0.67782085  1
  H  H2  1  0.00728347  0.69890377  0.68084210  1
  H  H3  1  0.50180991  0.02905657  0.67678668  1
  H  H4  1  0.49492873  0.36211539  0.67868960  1
  H  H5  1  0.48787413  0.69845930  0.67541384  1
  H  H6  1  -0.00698722  0.30369441  0.17468541  1
  H  H7  1  -0.00078377  0.64033098  0.17912049  1
  H  H8  1  0.00453492  0.96609944  0.18002325  1
  H  H9  1  0.51066334  0.30202293  0.17466754  1
  H  H10  1  0.49175415  0.63532079  0.17809071  1
  H  H11  1  0.49024825  0.96907536  0.17885440  1
  H  H12  1  -0.00587465  0.03024611  0.82386486  1
  H  H13  1  -0.00700422  0.36387503  0.82185231  1
  H  H14  1  -0.01172092  0.69728934  0.82458476  1
  H  H15  1  0.50976543  0.02971880  0.82104961  1
  H  H16  1  0.50686757  0.36167412  0.82272848  1
  H  H17  1  0.50483590  0.69804811  0.82170771  1
  H  H18  1  0.00142165  0.30416403  0.32208979  1
  H  H19  1  0.00470517  0.63452787  0.31913273  1
  H  H20  1  0.00627896  0.97124385  0.32220812  1
  H  H21  1  0.49540476  0.30171618  0.32016585  1
  H  H22  1  0.49502962  0.63846451  0.32622461  1
  H  H23  1  0.49570835  0.97034470  0.32177548  1
  H  H24  1  0.25894245  0.19752609  0.68301988  1
  H  H25  1  0.23469840  0.53285633  0.67976896  1
  H  H26  1  0.24654653  0.86294406  0.68017134  1
  H  H27  1  0.73754869  0.19663249  0.67536075  1
  H  H28  1  0.76303518  0.53212652  0.67715001  1
  H  H29  1  0.75124519  0.86518366  0.68131052  1
  H  H30  1  0.26301400  0.13772153  0.18059931  1
  H  H31  1  0.25228473  0.46761376  0.18168703  1
  H  H32  1  0.26388940  0.80118180  0.17513527  1
  H  H33  1  0.73888164  0.13866296  0.17638516  1
  H  H34  1  0.74653585  0.47106119  0.17588139  1
  H  H35  1  0.74804904  0.80114667  0.17883699  1
  H  H36  1  0.25089619  0.19678078  0.82149338  1
  H  H37  1  0.25577545  0.52705808  0.82257563  1
  H  H38  1  0.24154241  0.86347574  0.81888299  1
  H  H39  1  0.75299005  0.20091995  0.82607760  1
  H  H40  1  0.75222031  0.53108681  0.82233359  1
  H  H41  1  0.75940809  0.86310598  0.82476945  1
  H  H42  1  0.25054386  0.13364751  0.31863569  1
  H  H43  1  0.25159673  0.47007972  0.31992592  1
  H  H44  1  0.24048969  0.79991567  0.31946349  1
  H  H45  1  0.74740895  0.13947588  0.32306449  1
  H  H46  1  0.76383020  0.46637905  0.32505571  1
  H  H47  1  0.76619496  0.80281188  0.31896181  1
  H  H48  1  0.11566270  0.05534772  0.60452550  1
  H  H49  1  0.12618648  0.38811183  0.60745914  1
  H  H50  1  0.12857600  0.72217014  0.60770710  1
  H  H51  1  0.61428440  0.05930600  0.59703242  1
  H  H52  1  0.62677340  0.38465465  0.61478593  1
  H  H53  1  0.62470349  0.71648712  0.62097291  1
  H  H54  1  0.37338018  0.28105964  0.11825354  1
  H  H55  1  0.38979895  0.60760316  0.09112200  1
  H  H56  1  0.37094500  0.94180507  0.10564039  1
  H  H57  1  0.87707579  0.27772747  0.09765401  1
  H  H58  1  0.88382030  0.61235344  0.10097416  1
  H  H59  1  0.87028246  0.94876880  0.11874512  1
  H  H60  1  0.37161152  0.05085884  0.87732220  1
  H  H61  1  0.36827428  0.38164262  0.87824809  1
  H  H62  1  0.37024400  0.71999306  0.88092076  1
  H  H63  1  0.87135389  0.05880629  0.89414808  1
  H  H64  1  0.87011163  0.38532014  0.89450879  1
  H  H65  1  0.87544110  0.72334314  0.90341653  1
  H  H66  1  0.12140965  0.27787718  0.39588640  1
  H  H67  1  0.12687197  0.61290228  0.39159249  1
  H  H68  1  0.11559121  0.94213163  0.40304507  1
  H  H69  1  0.62974366  0.28306925  0.38077899  1
  H  H70  1  0.62747752  0.61344199  0.38670155  1
  H  H71  1  0.62154102  0.94581724  0.39205972  1
  H  H72  1  0.37247206  0.22062060  0.60423818  1
  H  H73  1  0.37380998  0.55076685  0.62751838  1
  H  H74  1  0.38069484  0.88241640  0.61606083  1
  H  H75  1  0.87478381  0.21676565  0.61819836  1
  H  H76  1  0.86154454  0.55754784  0.58950993  1
  H  H77  1  0.88130273  0.88975551  0.61377663  1
  H  H78  1  0.13023085  0.11571471  0.11752344  1
  H  H79  1  0.13378831  0.44390014  0.10500296  1
  H  H80  1  0.12425025  0.78344483  0.12325791  1
  H  H81  1  0.63553130  0.10970160  0.08970123  1
  H  H82  1  0.63673875  0.43927590  0.09549825  1
  H  H83  1  0.63434243  0.77772994  0.10106902  1
  H  H84  1  0.12864850  0.22285887  0.89371432  1
  H  H85  1  0.11686979  0.54897727  0.87529303  1
  H  H86  1  0.13107860  0.88645820  0.89917749  1
  H  H87  1  0.62693460  0.22170494  0.89246682  1
  H  H88  1  0.62059819  0.55420370  0.88710689  1
  H  H89  1  0.62779660  0.88509607  0.88771499  1
  H  H90  1  0.38328830  0.11495694  0.38141146  1
  H  H91  1  0.37162088  0.44481508  0.39432847  1
  H  H92  1  0.37753975  0.78260928  0.37683904  1
  H  H93  1  0.88233650  0.11415824  0.38186900  1
  H  H94  1  0.86577432  0.44049426  0.41150664  1
  H  H95  1  0.86986409  0.77611283  0.40495241  1
  H  H96  1  0.38139139  0.27789613  0.39727296  1
  H  H97  1  0.37996815  0.61085821  0.40228385  1
  H  H98  1  0.37300833  0.94518296  0.39406478  1
  H  H99  1  0.87327642  0.28123037  0.39037215  1
  H  H100  1  0.87856803  0.61157512  0.38734849  1
  H  H101  1  0.86930728  0.95266311  0.38019752  1
  H  H102  1  0.11939905  0.05121231  0.89391952  1
  H  H103  1  0.11904846  0.38569880  0.88787749  1
  H  H104  1  0.12242067  0.71700570  0.88168253  1
  H  H105  1  0.61675095  0.05965123  0.90503855  1
  H  H106  1  0.61407595  0.39024245  0.90544780  1
  H  H107  1  0.61810243  0.72542576  0.90112767  1
  H  H108  1  0.12544571  0.28019445  0.11280740  1
  H  H109  1  0.13190319  0.61674025  0.11732144  1
  H  H110  1  0.11850607  0.94255337  0.10332337  1
  H  H111  1  0.62010142  0.27399502  0.09386316  1
  H  H112  1  0.63393254  0.61652733  0.12826229  1
  H  H113  1  0.61962903  0.94671066  0.11208164  1
  H  H114  1  0.36755851  0.05100403  0.61584428  1
  H  H115  1  0.37832998  0.38974078  0.60244918  1
  H  H116  1  0.37879316  0.72445789  0.59349930  1
  H  H117  1  0.86742440  0.05364112  0.61851371  1
  H  H118  1  0.87766709  0.38776543  0.60677356  1
  H  H119  1  0.88009125  0.71975271  0.61283650  1
  H  H120  1  0.13478245  0.11186965  0.39432915  1
  H  H121  1  0.12324984  0.44747382  0.38802598  1
  H  H122  1  0.13024791  0.77840917  0.40020532  1
  H  H123  1  0.63564375  0.11079485  0.40383290  1
  H  H124  1  0.62263931  0.45109914  0.37381270  1
  H  H125  1  0.62454590  0.78344896  0.37212754  1
  H  H126  1  0.37743587  0.22075838  0.88872510  1
  H  H127  1  0.36277376  0.56079826  0.90451706  1
  H  H128  1  0.37836668  0.88144527  0.87520423  1
  H  H129  1  0.87543483  0.22216866  0.89625423  1
  H  H130  1  0.86795264  0.55640861  0.90006172  1
  H  H131  1  0.87639890  0.88883997  0.90066749  1
  H  H132  1  0.37819299  0.11099637  0.10277819  1
  H  H133  1  0.38158841  0.44416248  0.11368252  1
  H  H134  1  0.36935429  0.77455210  0.09263540  1
  H  H135  1  0.87881909  0.11742128  0.12382502  1
  H  H136  1  0.88331975  0.44917690  0.11974701  1
  H  H137  1  0.88281237  0.78317836  0.11860776  1
  H  H138  1  0.12435420  0.21675375  0.62438558  1
  H  H139  1  0.12790687  0.55588095  0.59587351  1
  H  H140  1  0.13250787  0.89019422  0.60221529  1
  H  H141  1  0.62839922  0.22765215  0.59548358  1
  H  H142  1  0.61875125  0.54696153  0.63111838  1
  H  H143  1  0.63317663  0.88854369  0.60379343  1
  H  H144  1  0.19658575  0.91027832  1.00767912  1
  H  H145  1  0.07603700  0.41448956  0.50315331  1
  H  H146  1  0.39904531  0.25115570  0.00945994  1
  H  H147  1  0.71566785  0.08529103  -0.00830283  1
  H  H148  1  0.63367726  0.42022479  0.48893687  1
  H  H149  1  0.79231153  0.74886417  0.50709121  1
  H  H150  1  0.13548099  0.58326970  0.98795682  1
  H  H151  1  0.10073682  0.74943263  0.99570641  1
  H  H152  1  0.60413010  0.74794235  0.50632228  1
  H  H153  1  0.04311103  0.92804790  0.50530626  1
  H  H154  1  0.56931565  0.91307870  0.49572781  1
  H  H155  1  0.05755865  0.91479650  -0.00655829  1
  H  H156  1  0.15017879  0.24414042  0.51084817  1
  H  H157  1  0.31679618  0.08162997  -0.00230130  1
  H  H158  1  0.19606586  0.75342175  0.50875288  1
  H  H159  1  0.05756017  0.08472918  0.49459298  1
  H  H160  1  0.35882939  0.58054421  0.51357660  1
  H  H161  1  0.07109465  0.73057744  0.50159445  1
  H  H162  1  0.29066302  0.58611802  1.00434794  1
  H  H163  1  0.93157030  0.56271266  0.48218055  1
  H  H164  1  0.89600810  0.91701572  0.48567397  1
  H  H165  1  0.91720644  0.25260819  0.49514115  1
  H  H166  1  0.07113516  0.09186364  0.99253048  1
  H  H167  1  0.44251726  0.24874883  0.50634311  1
  H  H168  1  0.08921966  0.25264264  0.00514393  1
  H  H169  1  0.91883235  0.07783893  0.99910334  1
  H  H170  1  0.54055813  0.08527954  1.00434579  1
  H  H171  1  0.69556070  0.74997938  -0.00790902  1
  H  H172  1  0.70744011  0.08516906  0.50501732  1
  H  H173  1  0.19269487  0.08494231  0.50511851  1
  H  H174  1  0.53926413  0.40735846  1.00610583  1
  H  H175  1  0.59778499  0.58063277  0.49555096  1
  H  H176  1  0.07781932  0.41736439  1.00034856  1
  H  H177  1  0.70804018  0.41113177  -0.00517588  1
  H  H178  1  0.35756389  0.90862548  0.98967069  1
  H  H179  1  0.54437772  0.08509341  0.49580971  1
  H  H180  1  0.19892156  0.57989971  0.48961178  1
  H  H181  1  0.66500995  0.91544797  0.99460902  1
  H  H182  1  0.46934961  0.58254305  -0.00724675  1
  H  H183  1  0.31356962  0.41695658  0.49800434  1
  H  H184  1  0.31121350  0.24488963  0.49554096  1
  H  H185  1  0.19720218  0.91753236  0.49563117  1
  H  H186  1  0.55005302  0.75372302  1.00321686  1
  H  H187  1  0.78195194  0.58247184  0.48650670  1
  H  H188  1  0.93005655  0.76335474  0.51433748  1
  H  H189  1  0.06810850  0.60442618  0.49820545  1
  H  H190  1  0.39283213  0.41777285  0.98405123  1
  H  H191  1  0.65707220  0.58097954  0.99495036  1
  Pb  Pb192  1  0.24733903  0.04536042  0.74976935  1
  Pb  Pb193  1  0.24440422  0.38287219  0.74193660  1
  Pb  Pb194  1  0.24906488  0.71295114  0.74329361  1
  Pb  Pb195  1  0.74126673  0.05113415  0.75070775  1
  Pb  Pb196  1  0.74808319  0.37960004  0.75674863  1
  Pb  Pb197  1  0.74936779  0.71275226  0.75280009  1
  Pb  Pb198  1  0.25102263  0.28580605  0.25475977  1
  Pb  Pb199  1  0.25841753  0.61811455  0.24714699  1
  Pb  Pb200  1  0.25445113  0.94983600  0.25173801  1
  Pb  Pb201  1  0.75725933  0.28541532  0.24352529  1
  Pb  Pb202  1  0.75612069  0.61753809  0.24857078  1
  Pb  Pb203  1  0.74905395  0.95323720  0.24714715  1
  Pb  Pb204  1  -0.00120318  0.21372141  0.75473991  1
  Pb  Pb205  1  -0.00710978  0.54828602  0.73857645  1
  Pb  Pb206  1  -0.00076190  0.88168108  0.74986762  1
  Pb  Pb207  1  0.49380437  0.21638105  0.74858039  1
  Pb  Pb208  1  0.49785830  0.54767229  0.75998354  1
  Pb  Pb209  1  0.50121938  0.87862110  0.74529967  1
  Pb  Pb210  1  0.00637146  0.11707426  0.24767758  1
  Pb  Pb211  1  0.00386951  0.45368062  0.25528561  1
  Pb  Pb212  1  0.00157439  0.78565456  0.26528885  1
  Pb  Pb213  1  0.50481592  0.11992446  0.24722192  1
  Pb  Pb214  1  0.50624798  0.45014159  0.24421566  1
  Pb  Pb215  1  0.50612039  0.78504549  0.23569596  1
  C  C216  1  -0.00556714  0.04714436  0.63248305  1
  C  C217  1  0.00202279  0.37881379  0.63074623  1
  C  C218  1  0.00531637  0.71376018  0.63286761  1
  C  C219  1  0.49484043  0.04517825  0.62971103  1
  C  C220  1  0.50020598  0.37828181  0.63180268  1
  C  C221  1  0.49798360  0.71313883  0.62828953  1
  C  C222  1  -0.00102518  0.28773520  0.12757015  1
  C  C223  1  0.00482313  0.62332914  0.13248935  1
  C  C224  1  -0.00210754  0.95280811  0.13211134  1
  C  C225  1  0.50080946  0.28611349  0.12788872  1
  C  C226  1  0.50503343  0.62042365  0.13135214  1
  C  C227  1  0.49391733  0.95311724  0.13174599  1
  C  C228  1  -0.00517073  0.04630723  0.87139120  1
  C  C229  1  -0.00547377  0.37853239  0.86958500  1
  C  C230  1  -0.00396622  0.71259171  0.87177949  1
  C  C231  1  0.49973749  0.04561083  0.86780178  1
  C  C232  1  0.49611160  0.37756719  0.86963041  1
  C  C233  1  0.49806955  0.71347599  0.86891781  1
  C  C234  1  -0.00161863  0.28813992  0.36939012  1
  C  C235  1  0.00331545  0.61963597  0.36707465  1
  C  C236  1  -0.00321387  0.95583170  0.36948958  1
  C  C237  1  0.50195905  0.28745087  0.36778876  1
  C  C238  1  0.50134883  0.62109857  0.37284952  1
  C  C239  1  0.49708993  0.95391005  0.36888754  1
  C  C240  1  0.25157669  0.21188344  0.63530240  1
  C  C241  1  0.24589692  0.54698819  0.63238577  1
  C  C242  1  0.25353942  0.87818877  0.63282190  1
  C  C243  1  0.74723820  0.21309156  0.62893341  1
  C  C244  1  0.74762166  0.54546146  0.63023881  1
  C  C245  1  0.75553056  0.88054294  0.63370104  1
  C  C246  1  0.25698464  0.12154383  0.13353122  1
  C  C247  1  0.25617710  0.45284310  0.13385910  1
  C  C248  1  0.25224246  0.78626160  0.12837234  1
  C  C249  1  0.75079547  0.12280078  0.12980271  1
  C  C250  1  0.75524055  0.45468189  0.12920359  1
  C  C251  1  0.75483922  0.78753950  0.13101424  1
  C  C252  1  0.25209952  0.21317644  0.86848329  1
  C  C253  1  0.24543962  0.54429045  0.86897244  1
  C  C254  1  0.25078755  0.87745751  0.86657212  1
  C  C255  1  0.75176036  0.21509453  0.87393876  1
  C  C256  1  0.74624133  0.54672908  0.86961400  1
  C  C257  1  0.75413259  0.87931804  0.87185536  1
  C  C258  1  0.25608212  0.12011071  0.36657057  1
  C  C259  1  0.24885005  0.45406123  0.36725942  1
  C  C260  1  0.24927941  0.78665907  0.36716549  1
  C  C261  1  0.75483569  0.12257346  0.36976075  1
  C  C262  1  0.74975842  0.45266459  0.37193017  1
  C  C263  1  0.75337286  0.78775970  0.36569519  1
  C  C264  1  0.52420204  0.25394012  0.03203273  1
  C  C265  1  0.28271328  0.09333710  0.03885217  1
  C  C266  1  0.02442056  0.92680804  0.03510094  1
  C  C267  1  0.76422776  0.42537372  0.46946774  1
  C  C268  1  0.47545804  0.74134008  0.53186093  1
  C  C269  1  0.22922266  0.90599453  0.53792352  1
  C  C270  1  0.29348830  0.24187182  0.96030370  1
  C  C271  1  0.76614602  0.76008904  0.46223134  1
  C  C272  1  0.81498832  0.42365971  0.04286992  1
  C  C273  1  0.47567163  0.26007551  0.46450222  1
  C  C274  1  0.94325093  0.92973262  0.04206697  1
  C  C275  1  0.22760726  0.57188343  0.53407850  1
  C  C276  1  0.70881403  0.24054193  0.96579645  1
  C  C277  1  0.72731886  0.24687312  0.53507902  1
  C  C278  1  0.96758444  0.25774065  0.03238237  1
  C  C279  1  0.78984180  0.24064583  0.96705445  1
  C  C280  1  0.27808164  0.23607597  0.53797621  1
  C  C281  1  0.22727158  0.09518945  0.46360670  1
  C  C282  1  0.72889516  0.76129943  0.03384898  1
  C  C283  1  0.30853583  0.57148873  0.54551759  1
  C  C284  1  0.55664659  0.26216120  0.45711050  1
  C  C285  1  0.22724081  0.76241639  0.46542081  1
  C  C286  1  0.44191450  0.74430829  0.95666384  1
  C  C287  1  0.94182533  0.07211646  0.54227206  1
  C  C288  1  0.80992820  0.76403575  0.04131583  1
  C  C289  1  0.75572451  0.57107408  0.53123473  1
  C  C290  1  0.30797516  0.76381162  0.45573103  1
  C  C291  1  0.47145420  0.58945735  0.46788820  1
  C  C292  1  0.68441737  0.42847946  0.45799660  1
  C  C293  1  0.02300683  0.07359079  0.53584053  1
  C  C294  1  0.30831399  0.09700628  0.45722504  1
  C  C295  1  0.03688090  0.40600520  0.96292567  1
  C  C296  1  0.18402883  0.57432509  0.95368984  1
  C  C297  1  0.05334239  0.59513474  0.04317919  1
  C  C298  1  0.95519064  0.40500027  0.96358475  1
  C  C299  1  0.55627880  0.73895821  0.53977464  1
  C  C300  1  0.96970572  0.74136827  0.96726667  1
  C  C301  1  0.22768101  0.90152993  0.96436784  1
  C  C302  1  0.57215194  0.59334626  0.04742793  1
  C  C303  1  0.30911556  0.90027040  0.95564318  1
  C  C304  1  0.47162967  0.40963095  0.53819033  1
  C  C305  1  0.78656852  0.90912280  0.96695281  1
  C  C306  1  0.19023363  0.76096160  0.04258506  1
  C  C307  1  0.26941357  0.75753405  0.03259417  1
  C  C308  1  0.19655520  0.23517887  0.54520155  1
  C  C309  1  0.46173604  0.92313948  0.03823568  1
  C  C310  1  0.67667960  0.56711446  0.54670073  1
  C  C311  1  0.05085042  0.73972666  0.96148140  1
  N  N312  1  0.01797204  0.92205244  0.46220353  1
  N  N313  1  0.80441619  0.24283839  0.54092257  1
  N  N314  1  0.96092855  0.40746513  0.53820677  1
  N  N315  1  0.96185151  0.73352440  0.54049166  1
  N  N316  1  0.20137809  0.42838786  0.45891346  1
  N  N317  1  0.43843367  0.07350891  0.54195116  1
  N  N318  1  0.03498233  0.06604119  0.96480815  1
  N  N319  1  0.43799313  0.07390047  0.95317540  1
  N  N320  1  0.49449155  0.59038647  0.03598785  1
  N  N321  1  0.04633792  0.25969639  0.03826415  1
  N  N322  1  0.21542346  0.24303717  0.96293070  1
  N  N323  1  0.04131668  0.58966317  0.45819340  1
  N  N324  1  0.77779815  0.57422151  0.96444105  1
  N  N325  1  0.26270550  0.57909033  0.96213355  1
  N  N326  1  0.51532307  0.41204572  0.96219954  1
  N  N327  1  0.96011253  0.59648524  0.45900276  1
  N  N328  1  0.81582271  0.09355358  0.04621346  1
  N  N329  1  0.95688426  0.07936521  0.96117762  1
  N  N330  1  0.95743087  0.25983149  0.45932360  1
  N  N331  1  0.69999518  0.57315000  0.95874668  1
  N  N332  1  0.27972798  0.42757575  0.45983612  1
  N  N333  1  0.04187566  0.74304768  0.54133685  1
  N  N334  1  0.45598556  0.92574335  0.46148840  1
  N  N335  1  0.22415535  0.42779338  0.03826523  1
  N  N336  1  0.81179246  0.09144684  0.45615499  1
  N  N337  1  0.94022151  0.93451630  0.45697855  1
  N  N338  1  0.55011553  0.59032753  0.46117720  1
  N  N339  1  0.54885923  0.40792452  0.54158803  1
  N  N340  1  0.30804378  0.90372075  0.54271201  1
  N  N341  1  0.52040769  0.74490654  0.96241773  1
  N  N342  1  0.03908925  0.40808546  0.54049915  1
  N  N343  1  0.73418127  0.09026801  0.46219116  1
  N  N344  1  0.20358760  0.09471294  0.04321785  1
  N  N345  1  0.97639550  0.59289247  0.03662844  1
  N  N346  1  0.30077349  0.42918518  0.04085068  1
  N  N347  1  0.73663771  0.42129419  0.03587728  1
  N  N348  1  0.80055657  0.90568816  0.54128731  1
  N  N349  1  0.51608022  0.07617747  0.53706041  1
  N  N350  1  0.73898864  0.09150942  0.03591300  1
  N  N351  1  0.72400231  0.90631405  0.53818808  1
  N  N352  1  0.53383009  0.92669752  0.45975479  1
  N  N353  1  0.44601451  0.25768692  0.04109764  1
  N  N354  1  0.68845375  0.76158552  0.45084161  1
  N  N355  1  0.53970742  0.92491680  0.03913176  1
  N  N356  1  0.51521404  0.07685747  0.96128234  1
  N  N357  1  0.03592766  0.25952093  0.46277517  1
  N  N358  1  0.70775329  0.90762144  0.96137538  1
  N  N359  1  0.43758522  0.40000707  0.95594592  1
  N  N360  1  0.05478243  0.05772157  0.59330043  1
  N  N361  1  0.06579906  0.38904996  0.59575414  1
  N  N362  1  0.06789344  0.71957645  0.59549777  1
  N  N363  1  0.55227165  0.05704274  0.58920018  1
  N  N364  1  0.56720403  0.38836781  0.60048783  1
  N  N365  1  0.56885392  0.72142378  0.60068953  1
  N  N366  1  0.43110636  0.27793062  0.10005985  1
  N  N367  1  0.45253283  0.60937336  0.08706321  1
  N  N368  1  0.43163499  0.94003585  0.09413220  1
  N  N369  1  0.93801463  0.27470188  0.08770435  1
  N  N370  1  0.94601902  0.61116004  0.09353781  1
  N  N371  1  0.92797047  0.94500769  0.10079119  1
  N  N372  1  0.42904571  0.05587988  0.89461236  1
  N  N373  1  0.42577138  0.38854370  0.89580772  1
  N  N374  1  0.42780367  0.72526473  0.89867440  1
  N  N375  1  0.93128243  0.05650177  0.90690124  1
  N  N376  1  0.93003824  0.38848089  0.90705114  1
  N  N377  1  0.93652333  0.72509122  0.91317024  1
  N  N378  1  0.06049450  0.27577058  0.40612604  1
  N  N379  1  0.06613519  0.61478261  0.40439699  1
  N  N380  1  0.05353540  0.94575839  0.41135423  1
  N  N381  1  0.57194259  0.27850558  0.39869546  1
  N  N382  1  0.56879923  0.60967191  0.40256818  1
  N  N383  1  0.56084340  0.94252881  0.40338945  1
  N  N384  1  0.31111512  0.22180368  0.59457782  1
  N  N385  1  0.31792926  0.55627065  0.60666707  1
  N  N386  1  0.32146787  0.88634652  0.60176090  1
  N  N387  1  0.81669448  0.22129889  0.60081691  1
  N  N388  1  0.79940114  0.55725438  0.58469339  1
  N  N389  1  0.82132904  0.89033344  0.60072218  1
  N  N390  1  0.18958809  0.11179014  0.10266639  1
  N  N391  1  0.19549186  0.44250876  0.09553603  1
  N  N392  1  0.17979399  0.77811337  0.10170181  1
  N  N393  1  0.69804610  0.11149117  0.08555706  1
  N  N394  1  0.69863345  0.44225052  0.08816423  1
  N  N395  1  0.69544869  0.77624138  0.09103988  1
  N  N396  1  0.18990395  0.22468103  0.90437880  1
  N  N397  1  0.17327170  0.55428964  0.89531526  1
  N  N398  1  0.19258360  0.88734563  0.90856036  1
  N  N399  1  0.68565850  0.22528449  0.90889450  1
  N  N400  1  0.67945956  0.55597943  0.90134625  1
  N  N401  1  0.68710433  0.88944737  0.90273732  1
  N  N402  1  0.32533308  0.11177291  0.39863682  1
  N  N403  1  0.31007472  0.44302728  0.40456207  1
  N  N404  1  0.32056043  0.77815384  0.39641427  1
  N  N405  1  0.82402475  0.10979842  0.39781429  1
  N  N406  1  0.80391755  0.43997906  0.41771226  1
  N  N407  1  0.80761290  0.77587459  0.41012476  1
  N  N408  1  0.44236212  0.27593725  0.40753634  1
  N  N409  1  0.44079675  0.60822137  0.41298973  1
  N  N410  1  0.43343052  0.94342929  0.40489874  1
  N  N411  1  0.93362158  0.27899401  0.40345718  1
  N  N412  1  0.93873356  0.60451315  0.39911043  1
  N  N413  1  0.92703716  0.94571973  0.39695511  1
  N  N414  1  0.05907074  0.05717330  0.90562936  1
  N  N415  1  0.06003456  0.38941703  0.90336536  1
  N  N416  1  0.06550397  0.72189306  0.90068236  1
  N  N417  1  0.55443650  0.05761795  0.91049295  1
  N  N418  1  0.55175839  0.38757556  0.91231127  1
  N  N419  1  0.55622679  0.72412140  0.90925465  1
  N  N420  1  0.06639011  0.27902376  0.09670459  1
  N  N421  1  0.07370611  0.61285204  0.10149613  1
  N  N422  1  0.05756724  0.94159470  0.09233697  1
  N  N423  1  0.55843280  0.27158130  0.08571819  1
  N  N424  1  0.57883402  0.61074997  0.10695008  1
  N  N425  1  0.55944315  0.94383227  0.09876554  1
  N  N426  1  0.42581379  0.05552199  0.60041307  1
  N  N427  1  0.43955800  0.39156379  0.59272507  1
  N  N428  1  0.44039214  0.72576159  0.58526155  1
  N  N429  1  0.92492515  0.05647834  0.60052460  1
  N  N430  1  0.93839932  0.39066100  0.59527638  1
  N  N431  1  0.94023472  0.72712105  0.60058760  1
  N  N432  1  0.19556592  0.10971727  0.40573573  1
  N  N433  1  0.18314652  0.44454421  0.40092336  1
  N  N434  1  0.19143039  0.77663461  0.40888948  1
  N  N435  1  0.69786879  0.11183519  0.41105446  1
  N  N436  1  0.67686727  0.44549920  0.39644226  1
  N  N437  1  0.68202098  0.77865592  0.39087256  1
  N  N438  1  0.31782304  0.22414101  0.90292967  1
  N  N439  1  0.30062947  0.55745191  0.91096360  1
  N  N440  1  0.32165569  0.88566748  0.89462036  1
  N  N441  1  0.81598411  0.22548668  0.91084846  1
  N  N442  1  0.80630091  0.55804389  0.90880949  1
  N  N443  1  0.81559763  0.89185394  0.91140658  1
  N  N444  1  0.31701628  0.10944603  0.09391592  1
  N  N445  1  0.32190347  0.44434295  0.10036827  1
  N  N446  1  0.30789060  0.77290154  0.08500942  1
  N  N447  1  0.82238308  0.11178578  0.10499080  1
  N  N448  1  0.82672373  0.44373513  0.10086767  1
  N  N449  1  0.82497792  0.77960200  0.09996141  1
  N  N450  1  0.18169696  0.22035489  0.60577013  1
  N  N451  1  0.18972469  0.55671446  0.58873515  1
  N  N452  1  0.19405147  0.89060409  0.59288253  1
  N  N453  1  0.68995567  0.22889370  0.58766388  1
  N  N454  1  0.67245090  0.55190877  0.60698812  1
  N  N455  1  0.69501890  0.89078916  0.59523446  1
  Cl  Cl456  1  0.24057966  0.05248193  0.61662189  1
  Cl  Cl457  1  0.25527027  0.39193141  0.60512790  1
  Cl  Cl458  1  0.25159649  0.72407967  0.60780891  1
  Cl  Cl459  1  0.73422646  0.06247939  0.61019561  1
  Cl  Cl460  1  0.75456558  0.38500889  0.62455686  1
  Cl  Cl461  1  0.75954125  0.72011038  0.61755629  1
  Cl  Cl462  1  0.24900746  0.27858291  0.12281269  1
  Cl  Cl463  1  0.26716054  0.60716926  0.10342594  1
  Cl  Cl464  1  0.24557635  0.94249719  0.11797494  1
  Cl  Cl465  1  0.74745043  0.28046430  0.10912300  1
  Cl  Cl466  1  0.76110200  0.61296070  0.11680925  1
  Cl  Cl467  1  0.74315983  0.94564174  0.11186648  1
  Cl  Cl468  1  0.24278618  0.05238382  0.88325999  1
  Cl  Cl469  1  0.24574775  0.38237591  0.87279305  1
  Cl  Cl470  1  0.24786702  0.71399963  0.87113964  1
  Cl  Cl471  1  0.73988449  0.06122795  0.89690884  1
  Cl  Cl472  1  0.73576723  0.39232065  0.89731788  1
  Cl  Cl473  1  0.74304495  0.72361659  0.88794494  1
  Cl  Cl474  1  0.24993676  0.27826446  0.39019824  1
  Cl  Cl475  1  0.25042577  0.60997538  0.38292590  1
  Cl  Cl476  1  0.23802610  0.94195128  0.38786795  1
  Cl  Cl477  1  0.75450962  0.28201779  0.37703343  1
  Cl  Cl478  1  0.75528271  0.61418794  0.38424729  1
  Cl  Cl479  1  0.74437532  0.95031587  0.37956036  1
  Cl  Cl480  1  -0.00189000  0.21927543  0.62285303  1
  Cl  Cl481  1  -0.00374662  0.56081662  0.59817324  1
  Cl  Cl482  1  0.00777792  0.89255710  0.60595388  1
  Cl  Cl483  1  0.49994823  0.22235577  0.61427408  1
  Cl  Cl484  1  0.49517792  0.54766838  0.63020005  1
  Cl  Cl485  1  0.51133241  0.88775987  0.60961031  1
  Cl  Cl486  1  0.00544647  0.11406384  0.11083144  1
  Cl  Cl487  1  0.01151947  0.44649134  0.12210973  1
  Cl  Cl488  1  0.00109071  0.78229297  0.13572065  1
  Cl  Cl489  1  0.51333197  0.10798322  0.10221067  1
  Cl  Cl490  1  0.51257792  0.43713142  0.10297183  1
  Cl  Cl491  1  0.50569222  0.77395612  0.09917640  1
  Cl  Cl492  1  0.00427997  0.22148730  0.89077886  1
  Cl  Cl493  1  -0.01099423  0.55207125  0.87037763  1
  Cl  Cl494  1  0.00425647  0.88867942  0.88287179  1
  Cl  Cl495  1  0.50052820  0.22224942  0.88414520  1
  Cl  Cl496  1  0.48720285  0.55995493  0.89964133  1
  Cl  Cl497  1  0.50557871  0.88120301  0.87678411  1
  Cl  Cl498  1  0.00880100  0.11301590  0.38075081  1
  Cl  Cl499  1  -0.00224769  0.44644945  0.39144539  1
  Cl  Cl500  1  -0.00308970  0.77460778  0.40354155  1
  Cl  Cl501  1  0.51565080  0.10835064  0.38878617  1
  Cl  Cl502  1  0.48924938  0.44879618  0.37613540  1
  Cl  Cl503  1  0.50085453  0.78508510  0.36663517  1
  Cl  Cl504  1  0.35904008  0.14644815  0.75262250  1
  Cl  Cl505  1  0.36358717  0.47874982  0.75229788  1
  Cl  Cl506  1  0.36126334  0.81363044  0.74992933  1
  Cl  Cl507  1  0.86299105  0.14552340  0.75070101  1
  Cl  Cl508  1  0.85420740  0.48401727  0.75025696  1
  Cl  Cl509  1  0.86374924  0.81251402  0.75014650  1
  Cl  Cl510  1  0.14192645  0.18388843  0.24489458  1
  Cl  Cl511  1  0.14145453  0.52002001  0.25487192  1
  Cl  Cl512  1  0.13701919  0.85252604  0.25252436  1
  Cl  Cl513  1  0.63849511  0.18805357  0.24964223  1
  Cl  Cl514  1  0.63610706  0.52102750  0.25179780  1
  Cl  Cl515  1  0.63936083  0.85177660  0.25157567  1
  Cl  Cl516  1  0.13614373  0.14686942  0.74972836  1
  Cl  Cl517  1  0.14270879  0.48054230  0.74978512  1
  Cl  Cl518  1  0.13850137  0.81448493  0.74623105  1
  Cl  Cl519  1  0.64354941  0.14737233  0.75479365  1
  Cl  Cl520  1  0.63379173  0.47962754  0.75306102  1
  Cl  Cl521  1  0.64347943  0.81622745  0.74945952  1
  Cl  Cl522  1  0.36587290  0.18624242  0.25370395  1
  Cl  Cl523  1  0.35904617  0.52211478  0.24699331  1
  Cl  Cl524  1  0.35692923  0.85344024  0.24937953  1
  Cl  Cl525  1  0.85819278  0.18727990  0.24633175  1
  Cl  Cl526  1  0.85742429  0.51699475  0.25434121  1
  Cl  Cl527  1  0.86259572  0.85409641  0.25176079  1
  Cl  Cl528  1  0.10924770  0.31490062  0.74489878  1
  Cl  Cl529  1  0.11110766  0.64575648  0.74581889  1
  Cl  Cl530  1  0.10750621  0.98209808  0.75196370  1
  Cl  Cl531  1  0.60979068  0.31467982  0.75172320  1
  Cl  Cl532  1  0.61113500  0.64652020  0.74401656  1
  Cl  Cl533  1  0.60918003  0.98238435  0.75069881  1
  Cl  Cl534  1  0.39042839  0.02059187  0.25292327  1
  Cl  Cl535  1  0.38644901  0.35385728  0.24119807  1
  Cl  Cl536  1  0.39258445  0.68510555  0.25130969  1
  Cl  Cl537  1  0.88499411  0.02181158  0.24788183  1
  Cl  Cl538  1  0.89377608  0.35204631  0.24650972  1
  Cl  Cl539  1  0.88987750  0.68533751  0.25534560  1
  Cl  Cl540  1  0.39099908  0.31203007  0.75104405  1
  Cl  Cl541  1  0.39009347  0.64916478  0.74965581  1
  Cl  Cl542  1  0.38873627  0.97966945  0.75103841  1
  Cl  Cl543  1  0.88966782  0.31603993  0.75290036  1
  Cl  Cl544  1  0.89340500  0.64902313  0.74665437  1
  Cl  Cl545  1  0.88848585  0.98003625  0.74492519  1
  Cl  Cl546  1  0.10417317  0.01797228  0.24984498  1
  Cl  Cl547  1  0.11190643  0.35146645  0.25401817  1
  Cl  Cl548  1  0.10764439  0.68577356  0.25393001  1
  Cl  Cl549  1  0.60949614  0.01839229  0.24514495  1
  Cl  Cl550  1  0.60703422  0.35386062  0.25239222  1
  Cl  Cl551  1  0.61026595  0.68812204  0.24767846  1
