# generated using pymatgen
data_H8PbC4(N3Cl2)2
_symmetry_space_group_name_H-M   'P 1'
_cell_length_a   16.62066523
_cell_length_b   22.50549642
_cell_length_c   21.58852483
_cell_angle_alpha   89.99956331
_cell_angle_beta   89.99547165
_cell_angle_gamma   89.99633415
_symmetry_Int_Tables_number   1
_chemical_formula_structural   H8PbC4(N3Cl2)2
_chemical_formula_sum   'H192 Pb24 C96 N144 Cl96'
_cell_volume   8075.32414963
_cell_formula_units_Z   24
loop_
 _symmetry_equiv_pos_site_id
 _symmetry_equiv_pos_as_xyz
  1  'x, y, z'
loop_
 _atom_site_type_symbol
 _atom_site_label
 _atom_site_symmetry_multiplicity
 _atom_site_fract_x
 _atom_site_fract_y
 _atom_site_fract_z
 _atom_site_occupancy
  H  H0  1  -0.00826359  0.03265184  0.67937496  1
  H  H1  1  -0.00102133  0.36322438  0.67929176  1
  H  H2  1  -0.00349934  0.69766228  0.67820126  1
  H  H3  1  0.50339099  0.03104033  0.67947010  1
  H  H4  1  0.50261154  0.36264712  0.67770150  1
  H  H5  1  0.50298998  0.69730767  0.67782120  1
  H  H6  1  -0.00925732  0.30096934  0.18213831  1
  H  H7  1  -0.00131503  0.63573959  0.17859398  1
  H  H8  1  -0.00279464  0.96741819  0.17963660  1
  H  H9  1  0.50612969  0.30083226  0.18112128  1
  H  H10  1  0.49393660  0.63675728  0.18123790  1
  H  H11  1  0.49930133  0.96802009  0.17987901  1
  H  H12  1  -0.01100663  0.03290039  0.81837556  1
  H  H13  1  -0.01275757  0.36392828  0.81951772  1
  H  H14  1  0.00344124  0.69855305  0.82151928  1
  H  H15  1  0.50256293  0.02887123  0.82046187  1
  H  H16  1  0.51297300  0.36841465  0.82005931  1
  H  H17  1  0.49162727  0.69757171  0.81723921  1
  H  H18  1  -0.00743542  0.30221756  0.32256641  1
  H  H19  1  -0.00206622  0.63624785  0.32108338  1
  H  H20  1  0.00193222  0.96728120  0.32035676  1
  H  H21  1  0.49750470  0.30300139  0.32004009  1
  H  H22  1  0.49393067  0.63457922  0.32190633  1
  H  H23  1  0.49154829  0.96869098  0.32257805  1
  H  H24  1  0.25275873  0.19835761  0.67579077  1
  H  H25  1  0.24824691  0.53053118  0.67806873  1
  H  H26  1  0.25581797  0.86505575  0.67670336  1
  H  H27  1  0.75826499  0.19967608  0.67691146  1
  H  H28  1  0.75837291  0.53343476  0.68190770  1
  H  H29  1  0.74954742  0.86568788  0.67708144  1
  H  H30  1  0.24849371  0.13523217  0.17911737  1
  H  H31  1  0.25727537  0.47006576  0.18107789  1
  H  H32  1  0.24171722  0.80333423  0.18186559  1
  H  H33  1  0.75578985  0.13357038  0.18058422  1
  H  H34  1  0.74878612  0.47612205  0.17839978  1
  H  H35  1  0.75533770  0.80151748  0.17970350  1
  H  H36  1  0.25968619  0.19786389  0.82122544  1
  H  H37  1  0.25172879  0.53004341  0.82110792  1
  H  H38  1  0.25770572  0.86601094  0.82222275  1
  H  H39  1  0.74319567  0.19624740  0.81812863  1
  H  H40  1  0.74815109  0.53144410  0.82207602  1
  H  H41  1  0.74841519  0.86536176  0.82004107  1
  H  H42  1  0.25098653  0.13612824  0.32357389  1
  H  H43  1  0.25633009  0.47114692  0.32134827  1
  H  H44  1  0.25483746  0.80130123  0.32144504  1
  H  H45  1  0.75762768  0.13616551  0.32315754  1
  H  H46  1  0.74236072  0.46806187  0.32038653  1
  H  H47  1  0.75574201  0.80195315  0.31998324  1
  H  H48  1  0.13371979  0.04773881  0.62802295  1
  H  H49  1  0.12118808  0.38729044  0.60690343  1
  H  H50  1  0.13052436  0.71821202  0.61613996  1
  H  H51  1  0.63303827  0.05562801  0.61291870  1
  H  H52  1  0.61936791  0.38941615  0.60117494  1
  H  H53  1  0.62636402  0.72185613  0.60595954  1
  H  H54  1  0.37683139  0.28156828  0.11435189  1
  H  H55  1  0.37769702  0.61138022  0.10453647  1
  H  H56  1  0.38209163  0.94430460  0.10268768  1
  H  H57  1  0.88011079  0.27562485  0.10099225  1
  H  H58  1  0.87838700  0.61234039  0.10512908  1
  H  H59  1  0.88474152  0.94280725  0.10170565  1
  H  H60  1  0.37701587  0.05349808  0.88825859  1
  H  H61  1  0.37426816  0.38306751  0.87783526  1
  H  H62  1  0.37249007  0.72110057  0.89275222  1
  H  H63  1  0.88420326  0.05556178  0.90286605  1
  H  H64  1  0.87841217  0.39399976  0.90195667  1
  H  H65  1  0.86953116  0.71966901  0.88273002  1
  H  H66  1  0.12804982  0.28177947  0.38267337  1
  H  H67  1  0.13006801  0.61443504  0.38489203  1
  H  H68  1  0.13073624  0.94649569  0.38689235  1
  H  H69  1  0.62958839  0.28041412  0.38298933  1
  H  H70  1  0.62622879  0.61522999  0.38180550  1
  H  H71  1  0.62802562  0.94810069  0.38151469  1
  H  H72  1  0.36940444  0.22363017  0.60046134  1
  H  H73  1  0.37174817  0.55336196  0.60719641  1
  H  H74  1  0.36908262  0.89003904  0.59777646  1
  H  H75  1  0.86728153  0.22286774  0.59639391  1
  H  H76  1  0.86487593  0.55781482  0.59911773  1
  H  H77  1  0.87171943  0.88572091  0.60396512  1
  H  H78  1  0.12369337  0.11171303  0.11037910  1
  H  H79  1  0.12718792  0.44638686  0.11439646  1
  H  H80  1  0.13117267  0.77725732  0.10094167  1
  H  H81  1  0.62123248  0.11407989  0.12076831  1
  H  H82  1  0.62517104  0.44381474  0.11090313  1
  H  H83  1  0.62980041  0.78125675  0.11228870  1
  H  H84  1  0.12296606  0.21864364  0.87809601  1
  H  H85  1  0.12034314  0.55311679  0.88326032  1
  H  H86  1  0.12018849  0.88482266  0.88111125  1
  H  H87  1  0.62355617  0.22395898  0.89273002  1
  H  H88  1  0.62272474  0.55493292  0.89229651  1
  H  H89  1  0.62140307  0.88669529  0.88598336  1
  H  H90  1  0.36441749  0.10864274  0.40111705  1
  H  H91  1  0.37404279  0.44522518  0.39842824  1
  H  H92  1  0.36740551  0.77690953  0.39975268  1
  H  H93  1  0.86353647  0.10995841  0.40735410  1
  H  H94  1  0.87917682  0.44770103  0.37892534  1
  H  H95  1  0.87296386  0.77709194  0.39750364  1
  H  H96  1  0.38140775  0.27748475  0.39849305  1
  H  H97  1  0.37850000  0.61137567  0.39912102  1
  H  H98  1  0.38115509  0.94126275  0.40319995  1
  H  H99  1  0.88069058  0.27437581  0.40177554  1
  H  H100  1  0.88202603  0.61078448  0.39994948  1
  H  H101  1  0.88210254  0.94470538  0.39622209  1
  H  H102  1  0.12975864  0.04915694  0.87092095  1
  H  H103  1  0.12489998  0.38259026  0.87519219  1
  H  H104  1  0.11803064  0.72425054  0.90015784  1
  H  H105  1  0.62574788  0.05396694  0.89270067  1
  H  H106  1  0.61970156  0.39509083  0.90562666  1
  H  H107  1  0.62126987  0.71962766  0.88380459  1
  H  H108  1  0.12739222  0.28045410  0.12176133  1
  H  H109  1  0.12808512  0.61256107  0.11200563  1
  H  H110  1  0.13311506  0.95021724  0.12037476  1
  H  H111  1  0.62460097  0.27632358  0.10639742  1
  H  H112  1  0.62612079  0.61408397  0.11717965  1
  H  H113  1  0.63056086  0.94675253  0.11561786  1
  H  H114  1  0.38349485  0.05374519  0.60554404  1
  H  H115  1  0.37052951  0.38542791  0.61473066  1
  H  H116  1  0.37727681  0.71981621  0.60922188  1
  H  H117  1  0.88827504  0.05852879  0.59526018  1
  H  H118  1  0.87213887  0.38539819  0.61012413  1
  H  H119  1  0.88362245  0.72401514  0.59808204  1
  H  H120  1  0.11694635  0.11455716  0.38432069  1
  H  H121  1  0.12604041  0.44761236  0.38437341  1
  H  H122  1  0.11926087  0.78220773  0.38020930  1
  H  H123  1  0.61817897  0.11536306  0.37644911  1
  H  H124  1  0.63122857  0.44410608  0.40117248  1
  H  H125  1  0.62499881  0.78077495  0.38547682  1
  H  H126  1  0.36949429  0.22396151  0.90364174  1
  H  H127  1  0.36810153  0.55536198  0.89875921  1
  H  H128  1  0.36618113  0.89266782  0.90531143  1
  H  H129  1  0.87308629  0.21901358  0.88257597  1
  H  H130  1  0.87184097  0.55708466  0.89092626  1
  H  H131  1  0.87070088  0.88593295  0.89278902  1
  H  H132  1  0.37322126  0.11231860  0.10818684  1
  H  H133  1  0.37487534  0.44352019  0.10340645  1
  H  H134  1  0.37874796  0.78360927  0.12216593  1
  H  H135  1  0.86983807  0.10922338  0.10081208  1
  H  H136  1  0.87365663  0.44685901  0.11088409  1
  H  H137  1  0.87913727  0.77969055  0.10774078  1
  H  H138  1  0.12087015  0.21971964  0.61208043  1
  H  H139  1  0.12291309  0.55517382  0.60786384  1
  H  H140  1  0.12123705  0.88557017  0.61600161  1
  H  H141  1  0.62096921  0.21751147  0.62173883  1
  H  H142  1  0.61783639  0.54922709  0.62727228  1
  H  H143  1  0.62321441  0.88944571  0.60903552  1
  H  H144  1  0.43787150  0.58122156  -0.00153790  1
  H  H145  1  0.10217175  0.74709436  0.50855746  1
  H  H146  1  0.42753239  0.28395993  0.00577621  1
  H  H147  1  0.80990067  0.74942988  0.50001275  1
  H  H148  1  0.05228915  0.75202216  1.00304386  1
  H  H149  1  0.10319236  0.41396559  0.98759871  1
  H  H150  1  0.55874123  0.22988247  0.01379823  1
  H  H151  1  0.30834723  0.74583459  0.50572130  1
  H  H152  1  0.55627102  0.41894955  0.49806566  1
  H  H153  1  0.78974861  0.08678631  0.50819267  1
  H  H154  1  0.59994418  0.58416484  0.49596859  1
  H  H155  1  0.15179095  0.91611831  0.50835602  1
  H  H156  1  0.59537302  0.08246061  0.50602555  1
  H  H157  1  0.79429535  0.58419650  0.49258655  1
  H  H158  1  0.16269323  0.08057821  0.00030596  1
  H  H159  1  0.32588326  0.08164455  0.00438131  1
  H  H160  1  0.14520016  0.08248998  0.49372991  1
  H  H161  1  0.95661835  0.08078256  1.00850589  1
  H  H162  1  0.43623981  0.08433364  0.49690608  1
  H  H163  1  0.65866487  0.91502628  0.99887187  1
  H  H164  1  0.66977825  0.58579479  0.99623990  1
  H  H165  1  0.69696938  0.41543975  0.50741268  1
  H  H166  1  0.07144020  0.41738165  0.49936118  1
  H  H167  1  0.59807297  0.25022449  0.49462115  1
  H  H168  1  0.81438953  0.43402517  0.00393627  1
  H  H169  1  0.64998789  0.08276497  0.00880913  1
  H  H170  1  0.92886012  0.58503996  -0.00388478  1
  H  H171  1  0.14379082  0.91561102  0.98932970  1
  H  H172  1  0.68147454  0.24451540  0.99830891  1
  H  H173  1  0.54283571  0.41708836  1.00496784  1
  H  H174  1  0.96190456  0.08506152  0.49029489  1
  H  H175  1  0.94491070  0.91430606  -0.00561858  1
  H  H176  1  0.42858797  0.75173613  0.99915286  1
  H  H177  1  0.29797930  0.24705203  1.00553968  1
  H  H178  1  0.95039786  0.24885215  -0.00503643  1
  H  H179  1  0.85153432  0.41747561  0.48654579  1
  H  H180  1  0.83374533  0.24631874  0.99563767  1
  H  H181  1  0.81733290  0.92816664  0.50737763  1
  H  H182  1  0.15752030  0.24948347  0.50552284  1
  H  H183  1  0.94876183  0.58684261  0.50282821  1
  H  H184  1  0.57592979  0.74929791  0.50157479  1
  H  H185  1  0.67197694  0.75336165  -0.00081550  1
  H  H186  1  0.66652639  0.90743021  0.50310152  1
  H  H187  1  0.94941584  0.41099429  1.00415810  1
  H  H188  1  0.80532932  0.07722688  0.00021817  1
  H  H189  1  0.20012938  0.74967707  -0.00420281  1
  H  H190  1  0.08947723  0.58587383  0.00554218  1
  H  H191  1  0.68399144  0.42617274  0.00384987  1
  Pb  Pb192  1  0.25345414  0.04592513  0.74966463  1
  Pb  Pb193  1  0.24680215  0.37790122  0.74615850  1
  Pb  Pb194  1  0.25282591  0.71489919  0.75449922  1
  Pb  Pb195  1  0.74836102  0.04843155  0.75226309  1
  Pb  Pb196  1  0.74907118  0.38328225  0.74945531  1
  Pb  Pb197  1  0.74972605  0.71203573  0.74352348  1
  Pb  Pb198  1  0.24701488  0.28527886  0.25123718  1
  Pb  Pb199  1  0.25162624  0.62198970  0.24848795  1
  Pb  Pb200  1  0.25158319  0.95376352  0.25490083  1
  Pb  Pb201  1  0.75010719  0.28635514  0.24549597  1
  Pb  Pb202  1  0.74828477  0.61849193  0.24889448  1
  Pb  Pb203  1  0.75053571  0.95416498  0.25386350  1
  Pb  Pb204  1  -0.00130823  0.21182519  0.74788239  1
  Pb  Pb205  1  0.00339638  0.54860215  0.74661357  1
  Pb  Pb206  1  -0.00175311  0.87996945  0.74901153  1
  Pb  Pb207  1  0.49461579  0.21541044  0.75774750  1
  Pb  Pb208  1  0.49431172  0.54650098  0.75468545  1
  Pb  Pb209  1  0.50027922  0.87862496  0.74881646  1
  Pb  Pb210  1  -0.00488473  0.11888069  0.24997908  1
  Pb  Pb211  1  0.00191437  0.45368712  0.24452896  1
  Pb  Pb212  1  -0.00160141  0.78605707  0.24524044  1
  Pb  Pb213  1  0.49804231  0.12018317  0.25343408  1
  Pb  Pb214  1  0.49629098  0.45134527  0.25409411  1
  Pb  Pb215  1  0.50129452  0.78787531  0.25503465  1
  C  C216  1  0.00467784  0.04615701  0.63209881  1
  C  C217  1  -0.00273704  0.37897049  0.63181875  1
  C  C218  1  0.00384956  0.71292054  0.63085625  1
  C  C219  1  0.50723150  0.04658569  0.63182398  1
  C  C220  1  0.49784239  0.37861759  0.63056564  1
  C  C221  1  0.50269260  0.71273096  0.63032919  1
  C  C222  1  -0.00027673  0.28638071  0.13476676  1
  C  C223  1  0.00217662  0.61963013  0.13112883  1
  C  C224  1  0.00473846  0.95326769  0.13198631  1
  C  C225  1  0.50233582  0.28626029  0.13321964  1
  C  C226  1  0.49958300  0.62069950  0.13402092  1
  C  C227  1  0.50388378  0.95327900  0.13240684  1
  C  C228  1  0.00095037  0.04559417  0.86593556  1
  C  C229  1  -0.00360043  0.37923356  0.86680352  1
  C  C230  1  -0.00275737  0.71353576  0.86894016  1
  C  C231  1  0.50212102  0.04529365  0.86741928  1
  C  C232  1  0.50279437  0.38181806  0.86766960  1
  C  C233  1  0.49518692  0.71277789  0.86484436  1
  C  C234  1  0.00075819  0.28661486  0.36945379  1
  C  C235  1  0.00288013  0.62123610  0.36862632  1
  C  C236  1  0.00476519  0.95298355  0.36806615  1
  C  C237  1  0.50273696  0.28716631  0.36729793  1
  C  C238  1  0.50030837  0.62012795  0.36952747  1
  C  C239  1  0.50068671  0.95296025  0.36933870  1
  C  C240  1  0.24725190  0.21357795  0.62836103  1
  C  C241  1  0.24733144  0.54624248  0.63078962  1
  C  C242  1  0.24825071  0.88041793  0.62947072  1
  C  C243  1  0.74849796  0.21335032  0.62947347  1
  C  C244  1  0.74729545  0.54671523  0.63436140  1
  C  C245  1  0.74818840  0.88069901  0.62926055  1
  C  C246  1  0.24880515  0.11912327  0.13165617  1
  C  C247  1  0.25313996  0.45415491  0.13370867  1
  C  C248  1  0.25086712  0.78847484  0.13453660  1
  C  C249  1  0.74916217  0.11855241  0.13294078  1
  C  C250  1  0.74919326  0.45723643  0.13205298  1
  C  C251  1  0.75433285  0.78727850  0.13179656  1
  C  C252  1  0.25101414  0.21228855  0.86855832  1
  C  C253  1  0.24679984  0.54594516  0.86818894  1
  C  C254  1  0.24760535  0.88113601  0.86934060  1
  C  C255  1  0.74604958  0.21221333  0.86565882  1
  C  C256  1  0.74711093  0.54765258  0.86929012  1
  C  C257  1  0.74635214  0.87976628  0.86789401  1
  C  C258  1  0.24348670  0.12021972  0.37058953  1
  C  C259  1  0.25242169  0.45478623  0.36830343  1
  C  C260  1  0.24751477  0.78665875  0.36895377  1
  C  C261  1  0.74666939  0.12151098  0.37035418  1
  C  C262  1  0.75162156  0.45309437  0.36782314  1
  C  C263  1  0.75148206  0.78682386  0.36751741  1
  C  C264  1  0.78424601  0.90482381  0.96220660  1
  C  C265  1  0.68369287  0.09541028  0.45659648  1
  C  C266  1  0.79432724  0.76285180  0.03751206  1
  C  C267  1  0.94256242  0.74148051  0.95837743  1
  C  C268  1  0.20597774  0.42550613  0.45813856  1
  C  C269  1  0.79395521  0.23961592  0.95628039  1
  C  C270  1  0.05629274  0.40562378  0.95344546  1
  C  C271  1  0.47230919  0.07374256  0.53759873  1
  C  C272  1  0.97938537  0.25990934  0.03867132  1
  C  C273  1  0.28403096  0.57503610  0.53853477  1
  C  C274  1  0.96674211  0.59389778  0.03646436  1
  C  C275  1  0.55218109  0.59407578  0.46059876  1
  C  C276  1  0.47926856  0.92054932  0.46365069  1
  C  C277  1  0.27611571  0.91006142  0.53343719  1
  C  C278  1  0.47235645  0.59265343  0.03963505  1
  C  C279  1  0.27958398  0.24340190  0.53336138  1
  C  C280  1  0.47091541  0.59320267  0.46496950  1
  C  C281  1  0.72746012  0.42625404  0.46422657  1
  C  C282  1  0.71271218  0.76275597  0.03736216  1
  C  C283  1  0.06120375  0.92941424  0.04286323  1
  C  C284  1  0.20630826  0.09170674  0.03884727  1
  C  C285  1  0.07079550  0.06877427  0.54640429  1
  C  C286  1  0.19101851  0.76073565  0.45757086  1
  C  C287  1  0.04895549  0.92763745  0.46018502  1
  C  C288  1  0.76435680  0.57276601  0.53588231  1
  C  C289  1  0.23056430  0.76099632  0.03891732  1
  C  C290  1  0.55024792  0.26027435  0.45747770  1
  C  C291  1  0.03184632  0.40659983  0.53855401  1
  C  C292  1  0.98025626  0.92616742  0.03496703  1
  C  C293  1  0.98617945  0.07007687  0.96494447  1
  C  C294  1  0.19896474  0.57451171  0.95803159  1
  C  C295  1  0.76959853  0.23982582  0.53358625  1
  C  C296  1  0.97775030  0.25575404  0.46418317  1
  C  C297  1  0.70262504  0.90532579  0.96158647  1
  C  C298  1  0.99081967  0.07281752  0.53382554  1
  C  C299  1  0.68426056  0.56958520  0.54769897  1
  C  C300  1  0.44566365  0.40915386  0.54124948  1
  C  C301  1  0.68974258  0.23788180  0.54193579  1
  C  C302  1  0.45875366  0.74048353  0.53729973  1
  C  C303  1  0.19129458  0.24066208  0.95593037  1
  C  C304  1  0.27205814  0.75827081  0.46565573  1
  C  C305  1  0.27132935  0.08906868  0.46591531  1
  C  C306  1  0.69465314  0.09308394  0.04401650  1
  C  C307  1  0.78895992  0.57739211  0.96226502  1
  C  C308  1  0.46484522  0.74034769  0.95888761  1
  C  C309  1  0.06624470  0.06729688  0.95228079  1
  C  C310  1  0.46154394  0.07417622  0.95934259  1
  C  C311  1  0.55025666  0.92661560  0.04168094  1
  N  N312  1  0.70977573  0.41545095  0.04590262  1
  N  N313  1  0.77834313  0.75979029  0.46057121  1
  N  N314  1  0.71436555  0.24245425  0.95835597  1
  N  N315  1  0.76178305  0.09344335  0.46615834  1
  N  N316  1  0.55182214  0.07440462  0.54155813  1
  N  N317  1  0.19764960  0.90807428  0.54091975  1
  N  N318  1  0.27641292  0.57587504  0.96408235  1
  N  N319  1  0.20727737  0.42581035  0.04253731  1
  N  N320  1  0.54416464  0.74001505  0.95636902  1
  N  N321  1  0.05600850  0.59517248  0.45814079  1
  N  N322  1  0.77391181  0.09301368  0.03770413  1
  N  N323  1  0.53736050  0.26605090  0.03782339  1
  N  N324  1  0.47288901  0.92542210  0.03621177  1
  N  N325  1  0.28322871  0.42416793  0.46366420  1
  N  N326  1  0.70013026  0.76150731  0.45808461  1
  N  N327  1  0.70575600  0.91218264  0.54002628  1
  N  N328  1  0.97636773  0.74041294  0.53501223  1
  N  N329  1  0.53947620  0.07491447  0.96161759  1
  N  N330  1  0.80626387  0.42763370  0.45547371  1
  N  N331  1  0.04648390  0.59313350  0.04021463  1
  N  N332  1  0.55171234  0.59364112  0.04330519  1
  N  N333  1  0.28332363  0.42498275  0.03898056  1
  N  N334  1  0.97124503  0.92703698  0.46450408  1
  N  N335  1  0.05799751  0.26170581  0.04582794  1
  N  N336  1  0.02130418  0.74227235  0.96320040  1
  N  N337  1  0.26953962  0.24077550  0.96383507  1
  N  N338  1  0.47126396  0.25896956  0.46315960  1
  N  N339  1  0.97828064  0.59366678  0.46180887  1
  N  N340  1  0.19296529  0.09175835  0.45915939  1
  N  N341  1  0.45454640  0.26235598  0.04221226  1
  N  N342  1  0.52428805  0.40953546  0.53742345  1
  N  N343  1  0.70970193  0.57599526  0.96145517  1
  N  N344  1  0.51777972  0.40535362  0.96333651  1
  N  N345  1  0.95231148  0.40568324  0.53869091  1
  N  N346  1  0.05499726  0.25863890  0.45902215  1
  N  N347  1  0.27016849  0.90934787  0.96558279  1
  N  N348  1  0.20665729  0.57595076  0.53756019  1
  N  N349  1  0.97731414  0.40933757  0.96170909  1
  N  N350  1  0.19307221  0.90678596  0.95596236  1
  N  N351  1  0.05413895  0.73835037  0.54258051  1
  N  N352  1  0.79139470  0.41816659  0.04513923  1
  N  N353  1  0.53786743  0.74052501  0.53768088  1
  N  N354  1  0.55641101  0.92280714  0.45804028  1
  N  N355  1  0.20085310  0.24117492  0.53866275  1
  N  N356  1  0.78457790  0.89981580  0.53466283  1
  N  N357  1  0.44055084  0.40182237  0.95556766  1
  N  N358  1  0.30933878  0.76277291  0.04585894  1
  N  N359  1  0.28621510  0.09229457  0.03930783  1
  N  N360  1  0.07855138  0.05287834  0.60632707  1
  N  N361  1  0.06044102  0.39080112  0.59538791  1
  N  N362  1  0.07180480  0.72173543  0.60051319  1
  N  N363  1  0.57306922  0.05685069  0.59930299  1
  N  N364  1  0.55783063  0.38930108  0.59186260  1
  N  N365  1  0.56580703  0.72278476  0.59467694  1
  N  N366  1  0.43641094  0.28421657  0.09914907  1
  N  N367  1  0.43904730  0.60869642  0.09487700  1
  N  N368  1  0.44385857  0.94249727  0.09404191  1
  N  N369  1  0.94172744  0.27506237  0.09293071  1
  N  N370  1  0.93910355  0.60957916  0.09320751  1
  N  N371  1  0.94601028  0.94140681  0.09187651  1
  N  N372  1  0.43677860  0.05673964  0.90228387  1
  N  N373  1  0.43182903  0.38781931  0.89562720  1
  N  N374  1  0.43331676  0.72368008  0.90307622  1
  N  N375  1  0.94629898  0.05602061  0.90975153  1
  N  N376  1  0.94018660  0.38941506  0.90896743  1
  N  N377  1  0.92752796  0.72402813  0.89989280  1
  N  N378  1  0.06934147  0.27803532  0.39876961  1
  N  N379  1  0.07082744  0.61089486  0.39948351  1
  N  N380  1  0.07158797  0.94317267  0.40154367  1
  N  N381  1  0.57076614  0.27697661  0.39874113  1
  N  N382  1  0.56899154  0.61089272  0.39983420  1
  N  N383  1  0.56976319  0.94349547  0.39777288  1
  N  N384  1  0.30872619  0.22613794  0.58882378  1
  N  N385  1  0.31175088  0.55732476  0.59463545  1
  N  N386  1  0.30783671  0.89280317  0.58823894  1
  N  N387  1  0.80586181  0.22490265  0.58689619  1
  N  N388  1  0.80282514  0.55808271  0.59140472  1
  N  N389  1  0.81106098  0.89228097  0.59377175  1
  N  N390  1  0.18327335  0.10839443  0.09651732  1
  N  N391  1  0.18696756  0.44389221  0.10123703  1
  N  N392  1  0.19322109  0.77657337  0.09290447  1
  N  N393  1  0.67901623  0.10947729  0.10296183  1
  N  N394  1  0.68565422  0.44377769  0.09788020  1
  N  N395  1  0.68902824  0.77790874  0.09716827  1
  N  N396  1  0.17963059  0.22320263  0.89706981  1
  N  N397  1  0.17853612  0.55677228  0.89969188  1
  N  N398  1  0.17825624  0.89003156  0.89758537  1
  N  N399  1  0.68476025  0.22208565  0.90332755  1
  N  N400  1  0.68320768  0.55742046  0.90413449  1
  N  N401  1  0.68037932  0.88964520  0.90144143  1
  N  N402  1  0.30304444  0.10669454  0.41117939  1
  N  N403  1  0.31249046  0.44300523  0.40644854  1
  N  N404  1  0.30613513  0.77495158  0.40911947  1
  N  N405  1  0.80131221  0.11175226  0.41345357  1
  N  N406  1  0.82083815  0.44363553  0.39603979  1
  N  N407  1  0.81126450  0.77584224  0.40627002  1
  N  N408  1  0.44336277  0.27590767  0.40648630  1
  N  N409  1  0.43961849  0.60876496  0.41016983  1
  N  N410  1  0.44285953  0.93887280  0.41083663  1
  N  N411  1  0.94223343  0.27275671  0.41041367  1
  N  N412  1  0.94393824  0.61136889  0.40841261  1
  N  N413  1  0.94375387  0.94317441  0.40577267  1
  N  N414  1  0.07432684  0.05277968  0.89234992  1
  N  N415  1  0.06803633  0.38893255  0.89420697  1
  N  N416  1  0.05618390  0.72389104  0.90866936  1
  N  N417  1  0.56475850  0.05666163  0.90307414  1
  N  N418  1  0.55759391  0.39292712  0.91056383  1
  N  N419  1  0.56114969  0.72301649  0.89747001  1
  N  N420  1  0.06887559  0.27799243  0.10554260  1
  N  N421  1  0.06783320  0.60921608  0.09847906  1
  N  N422  1  0.07544425  0.94557012  0.10193614  1
  N  N423  1  0.56340746  0.27095624  0.09745707  1
  N  N424  1  0.56665200  0.61098902  0.10264089  1
  N  N425  1  0.57180559  0.94335498  0.10000716  1
  N  N426  1  0.44437697  0.05698230  0.59372846  1
  N  N427  1  0.42899712  0.39038448  0.59892706  1
  N  N428  1  0.43683121  0.72357048  0.59476101  1
  N  N429  1  0.95043539  0.05827294  0.58844381  1
  N  N430  1  0.93242161  0.38827206  0.59766161  1
  N  N431  1  0.94560469  0.72478232  0.59038334  1
  N  N432  1  0.17537155  0.11098886  0.40040861  1
  N  N433  1  0.18454898  0.44355066  0.40043408  1
  N  N434  1  0.17681562  0.77772871  0.39873778  1
  N  N435  1  0.67412461  0.11161599  0.39685564  1
  N  N436  1  0.69313527  0.44225740  0.40986499  1
  N  N437  1  0.68436682  0.77756789  0.39960248  1
  N  N438  1  0.30763440  0.22153088  0.91049130  1
  N  N439  1  0.30629858  0.55756302  0.90676610  1
  N  N440  1  0.30395491  0.89347489  0.91136987  1
  N  N441  1  0.81386538  0.22293335  0.89826576  1
  N  N442  1  0.81214701  0.55998841  0.90523295  1
  N  N443  1  0.81036092  0.88965678  0.90567041  1
  N  N444  1  0.31229986  0.10857024  0.09656946  1
  N  N445  1  0.31332285  0.44261783  0.09523805  1
  N  N446  1  0.32006948  0.77976533  0.10555861  1
  N  N447  1  0.80761824  0.10734147  0.09305431  1
  N  N448  1  0.81344958  0.44683595  0.09763312  1
  N  N449  1  0.81905642  0.77750295  0.09473913  1
  N  N450  1  0.18020992  0.22238187  0.59702368  1
  N  N451  1  0.18347676  0.55759500  0.59632482  1
  N  N452  1  0.17989965  0.89000050  0.60009548  1
  N  N453  1  0.67708262  0.22201242  0.60126336  1
  N  N454  1  0.67434930  0.55410338  0.60720948  1
  N  N455  1  0.68316231  0.88948865  0.59507707  1
  Cl  Cl456  1  0.26135722  0.05174470  0.61766578  1
  Cl  Cl457  1  0.24518164  0.38206101  0.61536834  1
  Cl  Cl458  1  0.25410619  0.71915761  0.62103044  1
  Cl  Cl459  1  0.76158942  0.05830076  0.60697463  1
  Cl  Cl460  1  0.74374487  0.38891244  0.61326775  1
  Cl  Cl461  1  0.75876384  0.72534411  0.60605896  1
  Cl  Cl462  1  0.25681576  0.27031035  0.11203477  1
  Cl  Cl463  1  0.25131787  0.61505495  0.11633193  1
  Cl  Cl464  1  0.25766027  0.94991292  0.12300885  1
  Cl  Cl465  1  0.74881587  0.27273359  0.10252942  1
  Cl  Cl466  1  0.75284647  0.60934210  0.11349975  1
  Cl  Cl467  1  0.75653725  0.94795794  0.12192184  1
  Cl  Cl468  1  0.25645420  0.05608214  0.88542868  1
  Cl  Cl469  1  0.24953720  0.37869457  0.87712942  1
  Cl  Cl470  1  0.24162705  0.72315278  0.88991143  1
  Cl  Cl471  1  0.75672637  0.05744858  0.89426060  1
  Cl  Cl472  1  0.74747749  0.40071352  0.90439545  1
  Cl  Cl473  1  0.74531612  0.71686929  0.87615871  1
  Cl  Cl474  1  0.25453393  0.27759485  0.38484519  1
  Cl  Cl475  1  0.25522864  0.61450176  0.37996082  1
  Cl  Cl476  1  0.25563442  0.94585168  0.39073162  1
  Cl  Cl477  1  0.75623231  0.28121613  0.37703617  1
  Cl  Cl478  1  0.76095058  0.61231677  0.38369910  1
  Cl  Cl479  1  0.75727410  0.94616267  0.39187029  1
  Cl  Cl480  1  -0.00448829  0.22038316  0.61637400  1
  Cl  Cl481  1  -0.00958066  0.55876830  0.60915648  1
  Cl  Cl482  1  -0.00451038  0.88451634  0.61727046  1
  Cl  Cl483  1  0.49216004  0.21869501  0.62671754  1
  Cl  Cl484  1  0.49340156  0.54864852  0.62258749  1
  Cl  Cl485  1  0.49795656  0.88576960  0.61349089  1
  Cl  Cl486  1  -0.00735157  0.11141545  0.11548977  1
  Cl  Cl487  1  -0.00349292  0.44127315  0.10530331  1
  Cl  Cl488  1  0.00853854  0.77445907  0.10639824  1
  Cl  Cl489  1  0.49527945  0.11917582  0.12107070  1
  Cl  Cl490  1  0.50319166  0.44017889  0.10909703  1
  Cl  Cl491  1  0.50351930  0.78227548  0.12376936  1
  Cl  Cl492  1  -0.00529145  0.22031007  0.88312069  1
  Cl  Cl493  1  -0.00489896  0.55592871  0.88352952  1
  Cl  Cl494  1  -0.00408448  0.88287848  0.88360673  1
  Cl  Cl495  1  0.49720322  0.22675581  0.89946780  1
  Cl  Cl496  1  0.49562584  0.55345240  0.88993227  1
  Cl  Cl497  1  0.49113509  0.88795948  0.87945485  1
  Cl  Cl498  1  -0.01288887  0.11254614  0.38554672  1
  Cl  Cl499  1  0.00242069  0.44746415  0.37714745  1
  Cl  Cl500  1  -0.00608321  0.78075659  0.37759566  1
  Cl  Cl501  1  0.48897408  0.10867661  0.38895278  1
  Cl  Cl502  1  0.50702423  0.44304045  0.39193967  1
  Cl  Cl503  1  0.49919378  0.77719930  0.39113277  1
  Cl  Cl504  1  0.35872380  0.14866687  0.75160170  1
  Cl  Cl505  1  0.35928378  0.47791443  0.75212607  1
  Cl  Cl506  1  0.35411236  0.81368717  0.74956890  1
  Cl  Cl507  1  0.85899494  0.14807708  0.75124884  1
  Cl  Cl508  1  0.85611815  0.47784327  0.75481008  1
  Cl  Cl509  1  0.86018377  0.81328588  0.74925311  1
  Cl  Cl510  1  0.14277102  0.18982401  0.25119434  1
  Cl  Cl511  1  0.13684224  0.52236527  0.24673230  1
  Cl  Cl512  1  0.14016685  0.85457139  0.25298365  1
  Cl  Cl513  1  0.63576288  0.18779512  0.24912418  1
  Cl  Cl514  1  0.64583051  0.52027128  0.24902974  1
  Cl  Cl515  1  0.64038438  0.85392481  0.25541689  1
  Cl  Cl516  1  0.13698279  0.14406724  0.75070677  1
  Cl  Cl517  1  0.13617222  0.47857909  0.75078108  1
  Cl  Cl518  1  0.13448202  0.81170812  0.74988714  1
  Cl  Cl519  1  0.64138605  0.14399297  0.74734945  1
  Cl  Cl520  1  0.63919044  0.47679911  0.74975862  1
  Cl  Cl521  1  0.63863934  0.81275529  0.74654957  1
  Cl  Cl522  1  0.36295398  0.18728719  0.24962404  1
  Cl  Cl523  1  0.36220267  0.51934321  0.25062697  1
  Cl  Cl524  1  0.36375323  0.85381985  0.24921804  1
  Cl  Cl525  1  0.85832073  0.18449743  0.24660005  1
  Cl  Cl526  1  0.86599694  0.52083818  0.24938005  1
  Cl  Cl527  1  0.86156257  0.85305654  0.25021847  1
  Cl  Cl528  1  0.11053274  0.31154712  0.75296006  1
  Cl  Cl529  1  0.10648658  0.64361226  0.74892694  1
  Cl  Cl530  1  0.11461375  0.97843465  0.74971735  1
  Cl  Cl531  1  0.61332770  0.31175082  0.75492893  1
  Cl  Cl532  1  0.61311376  0.64311992  0.74791366  1
  Cl  Cl533  1  0.61465132  0.97843610  0.74664780  1
  Cl  Cl534  1  0.38895895  0.02009006  0.25044922  1
  Cl  Cl535  1  0.39573097  0.35523763  0.24868502  1
  Cl  Cl536  1  0.39171806  0.68674404  0.25006213  1
  Cl  Cl537  1  0.89000246  0.02144999  0.25135983  1
  Cl  Cl538  1  0.88799127  0.35407379  0.24686378  1
  Cl  Cl539  1  0.89511011  0.68884598  0.24449189  1
  Cl  Cl540  1  0.39150618  0.31248968  0.75414811  1
  Cl  Cl541  1  0.39014158  0.64768286  0.75038497  1
  Cl  Cl542  1  0.39065790  0.98059941  0.74766455  1
  Cl  Cl543  1  0.88804637  0.31339933  0.75196237  1
  Cl  Cl544  1  0.88656947  0.64646727  0.75194455  1
  Cl  Cl545  1  0.88952210  0.98191712  0.74930355  1
  Cl  Cl546  1  0.11440067  0.02210791  0.24811968  1
  Cl  Cl547  1  0.11272284  0.35254136  0.24811075  1
  Cl  Cl548  1  0.11310854  0.68717913  0.25231704  1
  Cl  Cl549  1  0.61418954  0.02179916  0.25517647  1
  Cl  Cl550  1  0.61422985  0.35415317  0.24373727  1
  Cl  Cl551  1  0.61310213  0.68638888  0.25253197  1
