# generated using pymatgen
data_H8PbC4(N3Cl2)2
_symmetry_space_group_name_H-M   'P 1'
_cell_length_a   16.62549112
_cell_length_b   22.50848000
_cell_length_c   21.59157907
_cell_angle_alpha   90.00025224
_cell_angle_beta   89.98386509
_cell_angle_gamma   89.99469974
_symmetry_Int_Tables_number   1
_chemical_formula_structural   H8PbC4(N3Cl2)2
_chemical_formula_sum   'H192 Pb24 C96 N144 Cl96'
_cell_volume   8079.88235245
_cell_formula_units_Z   24
loop_
 _symmetry_equiv_pos_site_id
 _symmetry_equiv_pos_as_xyz
  1  'x, y, z'
loop_
 _atom_site_type_symbol
 _atom_site_label
 _atom_site_symmetry_multiplicity
 _atom_site_fract_x
 _atom_site_fract_y
 _atom_site_fract_z
 _atom_site_occupancy
  H  H0  1  -0.00033668  0.02996424  0.68090752  1
  H  H1  1  -0.00069702  0.36300322  0.68182718  1
  H  H2  1  0.00739104  0.69844254  0.67719877  1
  H  H3  1  0.50002246  0.03101667  0.67702088  1
  H  H4  1  0.50034033  0.36341351  0.68039062  1
  H  H5  1  0.49743129  0.69950349  0.68289860  1
  H  H6  1  0.00598724  0.30475720  0.17910323  1
  H  H7  1  0.00770833  0.63442775  0.17859134  1
  H  H8  1  -0.00786886  0.96972032  0.18126727  1
  H  H9  1  0.48769755  0.29952385  0.17560000  1
  H  H10  1  0.50313175  0.63433248  0.17920916  1
  H  H11  1  0.48931768  0.96968201  0.18042297  1
  H  H12  1  -0.00805275  0.03390658  0.82050347  1
  H  H13  1  0.01043640  0.36560141  0.82243026  1
  H  H14  1  0.00194290  0.69650966  0.81708970  1
  H  H15  1  0.51590642  0.03135404  0.82029284  1
  H  H16  1  0.50549555  0.36179014  0.82275679  1
  H  H17  1  0.50206973  0.69593021  0.81836373  1
  H  H18  1  -0.00465635  0.30097472  0.31891854  1
  H  H19  1  0.00942280  0.63632882  0.32167749  1
  H  H20  1  -0.00466517  0.97064583  0.32129799  1
  H  H21  1  0.49974903  0.30235493  0.32042721  1
  H  H22  1  0.49664967  0.63543154  0.31960479  1
  H  H23  1  0.50909882  0.96905953  0.31766978  1
  H  H24  1  0.25167219  0.19738832  0.68130339  1
  H  H25  1  0.25415630  0.52926296  0.68188216  1
  H  H26  1  0.26098276  0.86438867  0.68169948  1
  H  H27  1  0.75069188  0.19679111  0.67871102  1
  H  H28  1  0.74100525  0.53066750  0.68156854  1
  H  H29  1  0.73993415  0.86342781  0.67970820  1
  H  H30  1  0.24723742  0.13586129  0.17871490  1
  H  H31  1  0.25104572  0.47198485  0.17505046  1
  H  H32  1  0.24533116  0.80192405  0.17818880  1
  H  H33  1  0.75227491  0.13883045  0.18138319  1
  H  H34  1  0.73957148  0.47279354  0.17968163  1
  H  H35  1  0.74104506  0.80058520  0.18163524  1
  H  H36  1  0.25609105  0.19583533  0.82181493  1
  H  H37  1  0.24503694  0.52872590  0.81961133  1
  H  H38  1  0.25343128  0.86051387  0.82031169  1
  H  H39  1  0.76212453  0.19766808  0.82129592  1
  H  H40  1  0.74060698  0.53210892  0.82386241  1
  H  H41  1  0.75078991  0.86451888  0.81684306  1
  H  H42  1  0.24892956  0.13726325  0.31951220  1
  H  H43  1  0.24550374  0.46700699  0.31695610  1
  H  H44  1  0.25076495  0.80291245  0.31889480  1
  H  H45  1  0.75792717  0.13743572  0.32311943  1
  H  H46  1  0.75989640  0.46795834  0.31791493  1
  H  H47  1  0.75111278  0.80237217  0.32226096  1
  H  H48  1  0.12550659  0.05295210  0.61091889  1
  H  H49  1  0.12354713  0.38649030  0.61096883  1
  H  H50  1  0.12460400  0.72380389  0.60180725  1
  H  H51  1  0.62654347  0.05598605  0.61031790  1
  H  H52  1  0.62338646  0.38657754  0.60966521  1
  H  H53  1  0.62502066  0.72055282  0.61306062  1
  H  H54  1  0.38138606  0.27506561  0.09232716  1
  H  H55  1  0.37548438  0.61459207  0.11378752  1
  H  H56  1  0.38378150  0.94165058  0.09485541  1
  H  H57  1  0.88205632  0.27990255  0.10709606  1
  H  H58  1  0.87473603  0.61585443  0.11932129  1
  H  H59  1  0.88266031  0.94285438  0.09834093  1
  H  H60  1  0.37648795  0.05100867  0.87536187  1
  H  H61  1  0.36644025  0.38148348  0.87822807  1
  H  H62  1  0.36934118  0.71974764  0.88226960  1
  H  H63  1  0.88107500  0.05782927  0.89999612  1
  H  H64  1  0.87369736  0.38305650  0.87607763  1
  H  H65  1  0.86999145  0.71536112  0.87986134  1
  H  H66  1  0.12869220  0.28125210  0.38045099  1
  H  H67  1  0.11943013  0.60890153  0.40347309  1
  H  H68  1  0.12186305  0.94708544  0.38846984  1
  H  H69  1  0.63067537  0.27920255  0.38581285  1
  H  H70  1  0.62201805  0.61320017  0.38859762  1
  H  H71  1  0.61978209  0.94246050  0.39796998  1
  H  H72  1  0.36966684  0.21991505  0.60640991  1
  H  H73  1  0.37741506  0.55465990  0.60902315  1
  H  H74  1  0.37528396  0.88916612  0.60523993  1
  H  H75  1  0.86793681  0.22286936  0.60224315  1
  H  H76  1  0.87736654  0.55291299  0.62193145  1
  H  H77  1  0.87860901  0.88321566  0.62282903  1
  H  H78  1  0.12241824  0.11254185  0.10911104  1
  H  H79  1  0.13141335  0.44545470  0.10216693  1
  H  H80  1  0.13109450  0.77491660  0.10010306  1
  H  H81  1  0.62603158  0.11459897  0.11361408  1
  H  H82  1  0.63311977  0.44415380  0.09471031  1
  H  H83  1  0.63192520  0.77434574  0.09825062  1
  H  H84  1  0.12240449  0.21751477  0.88437174  1
  H  H85  1  0.12783445  0.55423249  0.89778669  1
  H  H86  1  0.11976728  0.88651164  0.87876941  1
  H  H87  1  0.62505958  0.21812404  0.88062926  1
  H  H88  1  0.63173392  0.55754117  0.90369442  1
  H  H89  1  0.61981640  0.88615357  0.87935359  1
  H  H90  1  0.37673132  0.11347907  0.38551150  1
  H  H91  1  0.37625416  0.44624494  0.38374267  1
  H  H92  1  0.37512892  0.78010965  0.38955330  1
  H  H93  1  0.87063314  0.11079517  0.40302621  1
  H  H94  1  0.87497609  0.44416246  0.39837000  1
  H  H95  1  0.87547220  0.77757850  0.39122844  1
  H  H96  1  0.38239440  0.27581332  0.39649324  1
  H  H97  1  0.37412901  0.61377322  0.39232297  1
  H  H98  1  0.37246447  0.94980827  0.37782931  1
  H  H99  1  0.88013360  0.27855640  0.39529407  1
  H  H100  1  0.87288111  0.61562988  0.37916235  1
  H  H101  1  0.87246084  0.94400444  0.39270785  1
  H  H102  1  0.12852148  0.05137515  0.87837285  1
  H  H103  1  0.11879648  0.38975879  0.90503043  1
  H  H104  1  0.11873379  0.72007077  0.89274966  1
  H  H105  1  0.62107934  0.06045205  0.90572274  1
  H  H106  1  0.61096332  0.39270245  0.90756960  1
  H  H107  1  0.61782838  0.71912285  0.89641358  1
  H  H108  1  0.13157304  0.28124736  0.10877455  1
  H  H109  1  0.12223468  0.61129641  0.10094453  1
  H  H110  1  0.12796318  0.95072560  0.12215752  1
  H  H111  1  0.62626394  0.28387034  0.12335188  1
  H  H112  1  0.62472545  0.61167275  0.10662176  1
  H  H113  1  0.62796713  0.94904875  0.12531806  1
  H  H114  1  0.37727523  0.05507489  0.60513973  1
  H  H115  1  0.37365644  0.38802967  0.61224707  1
  H  H116  1  0.37660888  0.72241400  0.60750824  1
  H  H117  1  0.87623842  0.05621593  0.60964647  1
  H  H118  1  0.87415463  0.38545550  0.61048880  1
  H  H119  1  0.87641244  0.71785897  0.61585857  1
  H  H120  1  0.12828906  0.11240876  0.39431151  1
  H  H121  1  0.12842497  0.44434177  0.39572232  1
  H  H122  1  0.12593820  0.77898318  0.39097945  1
  H  H123  1  0.62371007  0.11440378  0.38425578  1
  H  H124  1  0.62745577  0.44693276  0.38304883  1
  H  H125  1  0.62607298  0.77836800  0.39228554  1
  H  H126  1  0.37043573  0.22270732  0.89936297  1
  H  H127  1  0.37623598  0.55298558  0.88484803  1
  H  H128  1  0.36781258  0.89069242  0.89786384  1
  H  H129  1  0.87280561  0.22599408  0.90160703  1
  H  H130  1  0.87778312  0.54892667  0.87934327  1
  H  H131  1  0.86849922  0.88805023  0.89181060  1
  H  H132  1  0.37149396  0.11547241  0.10968443  1
  H  H133  1  0.37995036  0.44498842  0.11002467  1
  H  H134  1  0.37914317  0.77871331  0.11798047  1
  H  H135  1  0.87574272  0.11212646  0.11049413  1
  H  H136  1  0.87793045  0.45230709  0.12357311  1
  H  H137  1  0.87772266  0.78260820  0.12224940  1
  H  H138  1  0.12092254  0.21844559  0.61841413  1
  H  H139  1  0.12835108  0.55546439  0.61530288  1
  H  H140  1  0.12696334  0.88275716  0.62053520  1
  H  H141  1  0.61963575  0.21941673  0.61583178  1
  H  H142  1  0.63029352  0.55658272  0.60026437  1
  H  H143  1  0.63218594  0.89176125  0.59817785  1
  H  H144  1  0.53319055  0.41671946  1.00674634  1
  H  H145  1  0.07369110  0.41370626  0.50164375  1
  H  H146  1  0.93696797  0.25078841  0.50421696  1
  H  H147  1  0.70533158  0.74223265  0.00040488  1
  H  H148  1  0.59218398  0.25263379  0.49219026  1
  H  H149  1  0.60965058  0.25355625  1.00772796  1
  H  H150  1  0.94683133  0.08316267  1.00913414  1
  H  H151  1  0.31636308  0.24917517  0.49785858  1
  H  H152  1  0.32752656  0.08647902  -0.00227459  1
  H  H153  1  0.89890808  0.58398572  0.00533389  1
  H  H154  1  0.41418398  0.58531008  0.00056676  1
  H  H155  1  0.41797081  0.41192580  0.50560331  1
  H  H156  1  0.04818119  0.58502388  0.50542602  1
  H  H157  1  0.55137840  0.91448542  0.50333802  1
  H  H158  1  0.32584437  0.75332935  0.49921520  1
  H  H159  1  0.70019333  0.58359075  0.49491321  1
  H  H160  1  0.32272958  0.56269605  0.50128040  1
  H  H161  1  0.15069218  0.24789409  0.50598143  1
  H  H162  1  0.95606172  0.91784495  -0.00245803  1
  H  H163  1  0.43340933  0.61709983  0.49844142  1
  H  H164  1  0.55537844  0.74565955  1.00359514  1
  H  H165  1  0.82340945  0.09363949  0.00302890  1
  H  H166  1  0.31757733  0.91769025  0.49690412  1
  H  H167  1  0.67475100  0.74894144  0.49713446  1
  H  H168  1  0.07819839  0.08481171  0.50321244  1
  H  H169  1  0.14943871  0.92014246  0.98979131  1
  H  H170  1  0.90115947  0.74347858  0.99228139  1
  H  H171  1  0.81386921  0.91288040  1.00176478  1
  H  H172  1  0.92128986  0.91687576  0.49703245  1
  H  H173  1  0.65183776  0.91321033  0.99200510  1
  H  H174  1  0.67075819  0.08730994  0.00187824  1
  H  H175  1  0.33892663  0.41399536  0.00444206  1
  H  H176  1  0.90718799  0.74842060  0.50198265  1
  H  H177  1  0.70368339  0.91914022  0.49374728  1
  H  H178  1  0.70988321  0.42143422  -0.00542020  1
  H  H179  1  0.17134236  0.58132384  0.50306349  1
  H  H180  1  0.56807910  0.56950269  0.48574392  1
  H  H181  1  0.19736319  0.74589357  -0.00243201  1
  H  H182  1  0.65634617  0.08665972  0.49104158  1
  H  H183  1  0.89282693  0.41346858  -0.00855689  1
  H  H184  1  0.08393154  0.25047915  0.00089850  1
  H  H185  1  0.42721905  0.08409422  0.50130948  1
  H  H186  1  0.30370220  0.91448019  1.00103497  1
  H  H187  1  0.06284177  0.74407841  1.00285131  1
  H  H188  1  0.08272882  0.91486654  0.49812699  1
  H  H189  1  0.54205398  0.08405351  1.00474948  1
  H  H190  1  0.57634145  0.41601714  0.50004900  1
  H  H191  1  0.46149704  0.91870963  -0.00456188  1
  Pb  Pb192  1  0.24783140  0.04602991  0.74499352  1
  Pb  Pb193  1  0.24331819  0.38068976  0.75490417  1
  Pb  Pb194  1  0.24457769  0.71488579  0.75130287  1
  Pb  Pb195  1  0.74375881  0.04995183  0.75677714  1
  Pb  Pb196  1  0.74645550  0.37976801  0.75681489  1
  Pb  Pb197  1  0.74697746  0.71243966  0.75263134  1
  Pb  Pb198  1  0.25342372  0.28791292  0.24667262  1
  Pb  Pb199  1  0.25587677  0.61813161  0.25642968  1
  Pb  Pb200  1  0.25253556  0.95467642  0.24308370  1
  Pb  Pb201  1  0.75722172  0.28553423  0.24892855  1
  Pb  Pb202  1  0.74992898  0.62102635  0.25229035  1
  Pb  Pb203  1  0.75596332  0.95156993  0.25015622  1
  Pb  Pb204  1  -0.00374904  0.21295021  0.75334021  1
  Pb  Pb205  1  -0.00144985  0.54541501  0.74658553  1
  Pb  Pb206  1  -0.00629036  0.88245589  0.75377826  1
  Pb  Pb207  1  0.49304100  0.21544129  0.74851546  1
  Pb  Pb208  1  0.49847595  0.54679782  0.74590771  1
  Pb  Pb209  1  0.49671255  0.88101191  0.74906839  1
  Pb  Pb210  1  0.00273170  0.12107282  0.25385057  1
  Pb  Pb211  1  0.00322833  0.45504877  0.25437243  1
  Pb  Pb212  1  0.00658357  0.78353548  0.24943121  1
  Pb  Pb213  1  0.50227409  0.12038691  0.24720794  1
  Pb  Pb214  1  0.50720115  0.44988364  0.24676872  1
  Pb  Pb215  1  0.50202723  0.78783569  0.24757444  1
  C  C216  1  0.00046976  0.04618826  0.63365245  1
  C  C217  1  -0.00103594  0.37845900  0.63430066  1
  C  C218  1  0.00205765  0.71340347  0.62974232  1
  C  C219  1  0.50085587  0.04714992  0.62974698  1
  C  C220  1  0.49863072  0.37915549  0.63280169  1
  C  C221  1  0.49968275  0.71380804  0.63493368  1
  C  C222  1  0.00659279  0.28859936  0.13177081  1
  C  C223  1  0.00084981  0.62026524  0.13087906  1
  C  C224  1  0.00072532  0.95482008  0.13391692  1
  C  C225  1  0.49949916  0.28577228  0.12836850  1
  C  C226  1  0.50045774  0.61951970  0.13152663  1
  C  C227  1  0.50012497  0.95456348  0.13342576  1
  C  C228  1  0.00040663  0.04727851  0.86825915  1
  C  C229  1  -0.00004318  0.37955328  0.86973790  1
  C  C230  1  -0.00343097  0.71091209  0.86496999  1
  C  C231  1  0.50510552  0.04649288  0.86726282  1
  C  C232  1  0.49445933  0.37724699  0.86961123  1
  C  C233  1  0.49603758  0.71147888  0.86570773  1
  C  C234  1  0.00109950  0.28693820  0.36667823  1
  C  C235  1  0.00090851  0.62151421  0.36891605  1
  C  C236  1  -0.00390019  0.95421179  0.36867043  1
  C  C237  1  0.50461073  0.28641490  0.36770217  1
  C  C238  1  0.49747140  0.62039796  0.36742819  1
  C  C239  1  0.50008346  0.95409966  0.36493963  1
  C  C240  1  0.24722175  0.21237682  0.63355609  1
  C  C241  1  0.25415763  0.54527302  0.63439190  1
  C  C242  1  0.25471869  0.87863876  0.63400499  1
  C  C243  1  0.74618667  0.21273354  0.63162406  1
  C  C244  1  0.74981966  0.54592041  0.63440107  1
  C  C245  1  0.75068071  0.87893170  0.63280728  1
  C  C246  1  0.24756903  0.12124446  0.13096752  1
  C  C247  1  0.25467499  0.45474300  0.12837659  1
  C  C248  1  0.25171274  0.78603121  0.13116991  1
  C  C249  1  0.75183252  0.12284677  0.13384628  1
  C  C250  1  0.74983035  0.45774928  0.13262649  1
  C  C251  1  0.75002107  0.78574971  0.13430509  1
  C  C252  1  0.24927373  0.21176123  0.86874049  1
  C  C253  1  0.24972903  0.54468941  0.86687739  1
  C  C254  1  0.24710816  0.87764585  0.86718127  1
  C  C255  1  0.75300091  0.21376682  0.86787803  1
  C  C256  1  0.75032962  0.54628296  0.87111626  1
  C  C257  1  0.74605546  0.87943631  0.86455785  1
  C  C258  1  0.25104736  0.12132512  0.36666534  1
  C  C259  1  0.25016449  0.45257993  0.36482467  1
  C  C260  1  0.25039052  0.78732788  0.36639999  1
  C  C261  1  0.75038422  0.12127473  0.37006795  1
  C  C262  1  0.75410071  0.45329514  0.36558204  1
  C  C263  1  0.75043487  0.78666754  0.36968165  1
  C  C264  1  0.28194333  0.90597345  0.53735348  1
  C  C265  1  0.05868102  0.07047931  0.95695052  1
  C  C266  1  0.80901570  0.57132974  0.95845155  1
  C  C267  1  0.27928228  0.23865587  0.53786964  1
  C  C268  1  0.77457799  0.24555806  0.96228535  1
  C  C269  1  0.19721881  0.23783237  0.54197354  1
  C  C270  1  0.04428393  0.26100937  0.03941691  1
  C  C271  1  0.69914967  0.24143466  0.54175950  1
  C  C272  1  0.94563996  0.73415564  0.95657327  1
  C  C273  1  0.30666644  0.75497589  0.04294367  1
  C  C274  1  0.52226410  0.73665228  0.96108470  1
  C  C275  1  0.28731234  0.09587599  0.03627230  1
  C  C276  1  0.29430864  0.09302313  0.45800455  1
  C  C277  1  0.05455080  0.26226907  0.45684712  1
  C  C278  1  0.94781452  0.59409021  0.04028449  1
  C  C279  1  0.02141995  0.40659961  0.96645027  1
  C  C280  1  0.53782604  0.59285819  0.03746103  1
  C  C281  1  0.03386696  0.74168589  0.53500721  1
  C  C282  1  0.03846769  0.07371600  0.54147732  1
  C  C283  1  0.20567781  0.09509715  0.03764769  1
  C  C284  1  0.56068283  0.26154394  0.04057209  1
  C  C285  1  0.19353964  0.90903130  0.95434467  1
  C  C286  1  0.03990153  0.92580322  0.46046823  1
  C  C287  1  0.77793266  0.90386944  0.96078049  1
  C  C288  1  0.53772736  0.40630433  0.53944446  1
  C  C289  1  0.27524461  0.24272193  0.96277230  1
  C  C290  1  0.20090280  0.90310921  0.54426230  1
  C  C291  1  0.97779478  0.07268464  0.96606950  1
  C  C292  1  0.02746899  0.73513630  0.96147921  1
  C  C293  1  0.45623433  0.59402829  0.03811920  1
  C  C294  1  0.54578324  0.07612711  0.53751921  1
  C  C295  1  0.03519352  0.40405226  0.54109676  1
  C  C296  1  0.28732545  0.76217074  0.45963475  1
  C  C297  1  0.48019151  0.25842539  0.03138313  1
  C  C298  1  0.02910977  0.59313741  0.03542176  1
  C  C299  1  0.73316861  0.90771872  0.53721262  1
  C  C300  1  0.70886782  0.09518432  0.04200968  1
  C  C301  1  0.69600752  0.90352430  0.95617635  1
  C  C302  1  0.72975308  0.57289706  0.53849397  1
  C  C303  1  0.94158104  0.59273358  0.45632615  1
  C  C304  1  0.97314691  0.26107148  0.46359454  1
  C  C305  1  0.94072824  0.40433476  0.95821777  1
  C  C306  1  0.72917670  0.57438419  0.96655000  1
  C  C307  1  0.21022992  0.57151003  0.54227416  1
  C  C308  1  0.95237070  0.73945177  0.53809784  1
  C  C309  1  0.52081662  0.92636051  0.46044127  1
  C  C310  1  0.79276137  0.75750621  0.46247581  1
  C  C311  1  0.21873365  0.42222945  0.03519749  1
  N  N312  1  0.46635213  0.07557846  0.53712354  1
  N  N313  1  0.22026257  0.42699134  0.46071407  1
  N  N314  1  0.96506294  0.26009836  0.03850271  1
  N  N315  1  0.54067224  0.60267108  0.46091081  1
  N  N316  1  0.80825371  0.57256062  0.54598654  1
  N  N317  1  0.56303584  0.92882230  0.04781368  1
  N  N318  1  0.22810740  0.75493455  0.03764018  1
  N  N319  1  0.54944162  0.25981034  0.45702012  1
  N  N320  1  0.45791603  0.40769762  0.54164792  1
  N  N321  1  0.27282063  0.91047838  0.95992872  1
  N  N322  1  0.77837956  0.09245828  0.46542744  1
  N  N323  1  0.81113566  0.43080459  0.04710049  1
  N  N324  1  0.69771949  0.24234821  0.95633034  1
  N  N325  1  0.78852941  0.09340106  0.04203843  1
  N  N326  1  0.78151557  0.42656952  0.46159598  1
  N  N327  1  0.81172481  0.90513082  0.54530263  1
  N  N328  1  0.71360837  0.75850700  0.46177344  1
  N  N329  1  0.73438320  0.42831648  0.03842942  1
  N  N330  1  0.95601148  0.40418986  0.54057606  1
  N  N331  1  0.47114605  0.25890367  0.46234184  1
  N  N332  1  0.44323306  0.73745838  0.95630442  1
  N  N333  1  0.44133235  0.07267482  0.95229274  1
  N  N334  1  0.73190400  0.76086608  0.03890723  1
  N  N335  1  0.46556531  0.73805067  0.53962169  1
  N  N336  1  0.50840823  0.40856997  0.96328661  1
  N  N337  1  0.70527181  0.42756955  0.45679090  1
  N  N338  1  0.77664615  0.24269688  0.53600679  1
  N  N339  1  0.29012024  0.57045005  0.54071402  1
  N  N340  1  0.19799101  0.24091045  0.95901127  1
  N  N341  1  0.22050540  0.57447314  0.96144561  1
  N  N342  1  0.43145605  0.40383841  0.95493058  1
  N  N343  1  0.51833640  0.07667077  0.96127198  1
  N  N344  1  0.01979233  0.59213957  0.46383050  1
  N  N345  1  0.44205516  0.92903065  0.45390043  1
  N  N346  1  0.80931761  0.76300105  0.04622222  1
  N  N347  1  0.48605882  0.92535281  0.03901809  1
  N  N348  1  0.29706041  0.42795633  0.45689495  1
  N  N349  1  0.20799032  0.76101202  0.46013119  1
  N  N350  1  0.45831680  0.59611916  0.46071267  1
  N  N351  1  0.98273565  0.92852860  0.03904660  1
  N  N352  1  0.29759943  0.42314320  0.03907931  1
  N  N353  1  0.54269628  0.73739427  0.54158320  1
  N  N354  1  0.05999376  0.93163935  0.04584719  1
  N  N355  1  0.21668204  0.09242744  0.46187460  1
  N  N356  1  0.96010516  0.92479976  0.46076357  1
  N  N357  1  0.29653455  0.57400052  0.95728963  1
  N  N358  1  0.95922578  0.07468857  0.54025386  1
  N  N359  1  0.70063486  0.09348151  0.45741080  1
  N  N360  1  0.06543302  0.05634058  0.59844109  1
  N  N361  1  0.06330082  0.38880767  0.59841715  1
  N  N362  1  0.06385567  0.72600412  0.59018317  1
  N  N363  1  0.56710482  0.05902688  0.59510097  1
  N  N364  1  0.56308867  0.39000408  0.59647974  1
  N  N365  1  0.56456606  0.72246612  0.60048047  1
  N  N366  1  0.44329248  0.27311197  0.08426457  1
  N  N367  1  0.43422340  0.61031400  0.09805338  1
  N  N368  1  0.44628277  0.94375713  0.08990613  1
  N  N369  1  0.94337874  0.27737490  0.09621793  1
  N  N370  1  0.93196111  0.61118741  0.10099596  1
  N  N371  1  0.94501345  0.94330598  0.09202646  1
  N  N372  1  0.43384966  0.05616108  0.89331197  1
  N  N373  1  0.42336748  0.38632411  0.89611470  1
  N  N374  1  0.42875136  0.72179159  0.89682262  1
  N  N375  1  0.94223126  0.05801978  0.90955525  1
  N  N376  1  0.92878114  0.38764212  0.89700397  1
  N  N377  1  0.92801240  0.71932390  0.89645696  1
  N  N378  1  0.07080738  0.27771971  0.39809744  1
  N  N379  1  0.05768492  0.61188425  0.41065275  1
  N  N380  1  0.06218661  0.94343275  0.40299166  1
  N  N381  1  0.57086587  0.27753472  0.40019710  1
  N  N382  1  0.56169011  0.60630161  0.40032535  1
  N  N383  1  0.55792392  0.94169961  0.40626082  1
  N  N384  1  0.30892089  0.22290717  0.59519763  1
  N  N385  1  0.31686364  0.55078867  0.59721767  1
  N  N386  1  0.31446672  0.89043497  0.59461642  1
  N  N387  1  0.80601526  0.22407216  0.59329074  1
  N  N388  1  0.81899512  0.55575700  0.60561467  1
  N  N389  1  0.82069330  0.88712675  0.60513409  1
  N  N390  1  0.18213023  0.11030096  0.09491121  1
  N  N391  1  0.19191610  0.44168543  0.09040862  1
  N  N392  1  0.19294664  0.77548532  0.09144531  1
  N  N393  1  0.68584494  0.11161291  0.09943028  1
  N  N394  1  0.69532569  0.44717664  0.08926623  1
  N  N395  1  0.69437438  0.77224397  0.09295688  1
  N  N396  1  0.18169929  0.22132123  0.89915287  1
  N  N397  1  0.18984217  0.55592031  0.90576174  1
  N  N398  1  0.17745697  0.89009649  0.89638446  1
  N  N399  1  0.68381691  0.22285923  0.89647814  1
  N  N400  1  0.69294636  0.55922438  0.91332152  1
  N  N401  1  0.67783931  0.88849543  0.89626746  1
  N  N402  1  0.31755868  0.11017270  0.40036161  1
  N  N403  1  0.31646701  0.44345257  0.39736985  1
  N  N404  1  0.31497188  0.77762133  0.40229062  1
  N  N405  1  0.80893605  0.10905520  0.41033704  1
  N  N406  1  0.81316884  0.44219970  0.40522245  1
  N  N407  1  0.81570318  0.77458921  0.40543211  1
  N  N408  1  0.44402244  0.27449590  0.40609814  1
  N  N409  1  0.43441335  0.61725186  0.40460701  1
  N  N410  1  0.43107942  0.94603518  0.39426492  1
  N  N411  1  0.94111301  0.27666205  0.40612106  1
  N  N412  1  0.92966445  0.61039486  0.39753733  1
  N  N413  1  0.93325007  0.94332489  0.40442753  1
  N  N414  1  0.07155792  0.05542383  0.89785603  1
  N  N415  1  0.05691669  0.39152748  0.91318888  1
  N  N416  1  0.05772875  0.72082795  0.90397910  1
  N  N417  1  0.55896735  0.05774326  0.91077702  1
  N  N418  1  0.54821533  0.38965245  0.91278682  1
  N  N419  1  0.55625918  0.72136300  0.90573690  1
  N  N420  1  0.07134231  0.27792826  0.09654184  1
  N  N421  1  0.06118823  0.60878870  0.08988564  1
  N  N422  1  0.07064065  0.94698076  0.10511593  1
  N  N423  1  0.57119358  0.27828439  0.10193002  1
  N  N424  1  0.56423630  0.60818282  0.09375111  1
  N  N425  1  0.57123724  0.94476286  0.10707791  1
  N  N426  1  0.43824380  0.05716759  0.59383391  1
  N  N427  1  0.43402819  0.38891947  0.59867408  1
  N  N428  1  0.43799158  0.72385118  0.59753527  1
  N  N429  1  0.93716908  0.05775921  0.59824182  1
  N  N430  1  0.93503061  0.38826727  0.59901448  1
  N  N431  1  0.93410843  0.72199537  0.59836077  1
  N  N432  1  0.18964180  0.11046143  0.40381133  1
  N  N433  1  0.19024613  0.44213527  0.40383260  1
  N  N434  1  0.18687467  0.77678283  0.40186779  1
  N  N435  1  0.68246191  0.11163650  0.40003109  1
  N  N436  1  0.68704411  0.44416660  0.39722193  1
  N  N437  1  0.68669348  0.77722386  0.40473747  1
  N  N438  1  0.30908658  0.22518895  0.90870265  1
  N  N439  1  0.31618364  0.55596399  0.89855141  1
  N  N440  1  0.30583958  0.88806711  0.90708415  1
  N  N441  1  0.81093347  0.22809726  0.90917818  1
  N  N442  1  0.82172964  0.55440124  0.89952088  1
  N  N443  1  0.80762503  0.88907743  0.90324750  1
  N  N444  1  0.31215935  0.11211461  0.09556509  1
  N  N445  1  0.32050943  0.44380065  0.09623485  1
  N  N446  1  0.32161527  0.77405582  0.10085027  1
  N  N447  1  0.81488079  0.11372710  0.09780641  1
  N  N448  1  0.82055070  0.44772357  0.10584075  1
  N  N449  1  0.81995151  0.77975666  0.10499450  1
  N  N450  1  0.17921514  0.22158597  0.60178232  1
  N  N451  1  0.18803041  0.55784573  0.60054546  1
  N  N452  1  0.18488562  0.88678504  0.60268373  1
  N  N453  1  0.67817267  0.22362595  0.59994472  1
  N  N454  1  0.69205446  0.55696577  0.59249337  1
  N  N455  1  0.69432218  0.89202469  0.59052251  1
  Cl  Cl456  1  0.25351951  0.05306455  0.61410788  1
  Cl  Cl457  1  0.25040195  0.38756334  0.62361565  1
  Cl  Cl458  1  0.25258614  0.71973838  0.61820133  1
  Cl  Cl459  1  0.74886815  0.05441572  0.62407267  1
  Cl  Cl460  1  0.74745171  0.38265904  0.62602180  1
  Cl  Cl461  1  0.74662432  0.72261719  0.61857812  1
  Cl  Cl462  1  0.25930985  0.28144222  0.11320891  1
  Cl  Cl463  1  0.24657018  0.61833446  0.12578507  1
  Cl  Cl464  1  0.26281440  0.93883186  0.10297116  1
  Cl  Cl465  1  0.75816735  0.28062158  0.11681084  1
  Cl  Cl466  1  0.74632214  0.61742903  0.12191448  1
  Cl  Cl467  1  0.76115532  0.94561001  0.11521971  1
  Cl  Cl468  1  0.25309187  0.04996484  0.87735807  1
  Cl  Cl469  1  0.24098220  0.38813607  0.89079147  1
  Cl  Cl470  1  0.24121603  0.72660153  0.88930094  1
  Cl  Cl471  1  0.74856811  0.06336745  0.89815219  1
  Cl  Cl472  1  0.72826598  0.39667022  0.89960655  1
  Cl  Cl473  1  0.73945484  0.72113950  0.89054362  1
  Cl  Cl474  1  0.25928386  0.27726652  0.38122704  1
  Cl  Cl475  1  0.24878426  0.60400976  0.39826954  1
  Cl  Cl476  1  0.24566159  0.94853436  0.37456411  1
  Cl  Cl477  1  0.75271798  0.27790667  0.38091743  1
  Cl  Cl478  1  0.74311901  0.61709412  0.38837286  1
  Cl  Cl479  1  0.74463117  0.94242965  0.38696809  1
  Cl  Cl480  1  -0.00849687  0.22172252  0.62004427  1
  Cl  Cl481  1  0.00678820  0.55940566  0.60990419  1
  Cl  Cl482  1  0.00272070  0.88689612  0.62008539  1
  Cl  Cl483  1  0.49596846  0.21828677  0.61478172  1
  Cl  Cl484  1  0.50289889  0.55980406  0.60247185  1
  Cl  Cl485  1  0.50843263  0.89194349  0.61485988  1
  Cl  Cl486  1  -0.00355116  0.10962025  0.11839859  1
  Cl  Cl487  1  0.00757630  0.44975133  0.12247097  1
  Cl  Cl488  1  0.00794263  0.77802281  0.11371252  1
  Cl  Cl489  1  0.50317886  0.10919215  0.10973736  1
  Cl  Cl490  1  0.51185907  0.43915607  0.10196055  1
  Cl  Cl491  1  0.51077544  0.77738959  0.11125784  1
  Cl  Cl492  1  -0.00438936  0.22044489  0.88573005  1
  Cl  Cl493  1  0.00724682  0.55191996  0.87763577  1
  Cl  Cl494  1  -0.00837901  0.89302931  0.89144405  1
  Cl  Cl495  1  0.49458786  0.21871423  0.88144881  1
  Cl  Cl496  1  0.50184375  0.55205827  0.87840753  1
  Cl  Cl497  1  0.48873929  0.89612829  0.89355003  1
  Cl  Cl498  1  0.00014373  0.11142226  0.38619557  1
  Cl  Cl499  1  0.00368851  0.44802019  0.39007728  1
  Cl  Cl500  1  -0.00052664  0.78018119  0.38252071  1
  Cl  Cl501  1  0.50034645  0.11206753  0.38299981  1
  Cl  Cl502  1  0.50092567  0.44650929  0.38490788  1
  Cl  Cl503  1  0.50272773  0.77948820  0.37889085  1
  Cl  Cl504  1  0.35910709  0.14566961  0.74906096  1
  Cl  Cl505  1  0.36616787  0.47512833  0.75032434  1
  Cl  Cl506  1  0.36122776  0.81253621  0.75345749  1
  Cl  Cl507  1  0.85987208  0.14664407  0.75247618  1
  Cl  Cl508  1  0.86049936  0.47962923  0.75235515  1
  Cl  Cl509  1  0.86069964  0.81240404  0.74790786  1
  Cl  Cl510  1  0.14142805  0.18648306  0.25063653  1
  Cl  Cl511  1  0.14107337  0.52028064  0.24973639  1
  Cl  Cl512  1  0.14041801  0.85405394  0.24650194  1
  Cl  Cl513  1  0.63687498  0.18940719  0.25213158  1
  Cl  Cl514  1  0.63862101  0.51964914  0.25296179  1
  Cl  Cl515  1  0.64083178  0.85350420  0.24815328  1
  Cl  Cl516  1  0.13677364  0.14588803  0.75342793  1
  Cl  Cl517  1  0.14343738  0.48196943  0.74679422  1
  Cl  Cl518  1  0.14003652  0.81248748  0.74978715  1
  Cl  Cl519  1  0.63986361  0.14448433  0.75348272  1
  Cl  Cl520  1  0.63791515  0.48172281  0.74910268  1
  Cl  Cl521  1  0.63825809  0.81507596  0.75371423  1
  Cl  Cl522  1  0.36427312  0.18637743  0.24967238  1
  Cl  Cl523  1  0.36077697  0.52209324  0.25213455  1
  Cl  Cl524  1  0.36202205  0.85260026  0.24624938  1
  Cl  Cl525  1  0.85731468  0.18420846  0.25068402  1
  Cl  Cl526  1  0.86128657  0.52037541  0.24760229  1
  Cl  Cl527  1  0.86081676  0.85425044  0.24818801  1
  Cl  Cl528  1  0.10695504  0.31415726  0.75204400  1
  Cl  Cl529  1  0.10830192  0.64753060  0.74580758  1
  Cl  Cl530  1  0.11311263  0.97762622  0.75426078  1
  Cl  Cl531  1  0.60914639  0.31329888  0.75245329  1
  Cl  Cl532  1  0.60889443  0.64782960  0.74546380  1
  Cl  Cl533  1  0.61072941  0.97977123  0.75169255  1
  Cl  Cl534  1  0.39136624  0.01922726  0.25345520  1
  Cl  Cl535  1  0.39221607  0.35257769  0.25017203  1
  Cl  Cl536  1  0.39079526  0.68666488  0.25208339  1
  Cl  Cl537  1  0.89228599  0.01899932  0.25258671  1
  Cl  Cl538  1  0.89313220  0.35305103  0.24694953  1
  Cl  Cl539  1  0.88590529  0.68837146  0.25115755  1
  Cl  Cl540  1  0.39080741  0.31172050  0.75054902  1
  Cl  Cl541  1  0.38640512  0.64561205  0.75082640  1
  Cl  Cl542  1  0.38921548  0.97938825  0.75249945  1
  Cl  Cl543  1  0.88566309  0.31474408  0.75816504  1
  Cl  Cl544  1  0.88664939  0.64624946  0.74875668  1
  Cl  Cl545  1  0.89281021  0.98001626  0.74932798  1
  Cl  Cl546  1  0.11302915  0.01939091  0.24477257  1
  Cl  Cl547  1  0.11399144  0.35352129  0.25639845  1
  Cl  Cl548  1  0.10621084  0.68635222  0.25269314  1
  Cl  Cl549  1  0.61405796  0.02005089  0.24434533  1
  Cl  Cl550  1  0.60979637  0.35622706  0.24560177  1
  Cl  Cl551  1  0.61057356  0.68565877  0.25154398  1
