# generated using pymatgen
data_H8PbC4(N3Cl2)2
_symmetry_space_group_name_H-M   'P 1'
_cell_length_a   16.62526748
_cell_length_b   22.50393473
_cell_length_c   21.58832658
_cell_angle_alpha   89.99928915
_cell_angle_beta   89.98460800
_cell_angle_gamma   90.00040985
_symmetry_Int_Tables_number   1
_chemical_formula_structural   H8PbC4(N3Cl2)2
_chemical_formula_sum   'H192 Pb24 C96 N144 Cl96'
_cell_volume   8076.92526910
_cell_formula_units_Z   24
loop_
 _symmetry_equiv_pos_site_id
 _symmetry_equiv_pos_as_xyz
  1  'x, y, z'
loop_
 _atom_site_type_symbol
 _atom_site_label
 _atom_site_symmetry_multiplicity
 _atom_site_fract_x
 _atom_site_fract_y
 _atom_site_fract_z
 _atom_site_occupancy
  H  H0  1  -0.00869273  0.02992561  0.67996888  1
  H  H1  1  0.01069637  0.36613519  0.67761671  1
  H  H2  1  0.00767588  0.70067124  0.67840650  1
  H  H3  1  0.49556994  0.03277328  0.67684198  1
  H  H4  1  0.49276472  0.36311785  0.67952946  1
  H  H5  1  0.50155324  0.69869510  0.67770849  1
  H  H6  1  -0.00276288  0.30047492  0.17889966  1
  H  H7  1  -0.00727207  0.63832890  0.18169289  1
  H  H8  1  -0.00126134  0.96860662  0.18194907  1
  H  H9  1  0.49443784  0.30160686  0.18008958  1
  H  H10  1  0.50744776  0.63615833  0.17902873  1
  H  H11  1  0.50508599  0.97025033  0.18129249  1
  H  H12  1  0.00347833  0.03192096  0.82238303  1
  H  H13  1  0.00438385  0.36612195  0.82008621  1
  H  H14  1  0.01122591  0.69986326  0.82369592  1
  H  H15  1  0.50285091  0.03245262  0.82091346  1
  H  H16  1  0.50155549  0.36267177  0.82125048  1
  H  H17  1  0.48910928  0.69991271  0.81751480  1
  H  H18  1  0.00486092  0.30291192  0.32235246  1
  H  H19  1  -0.00643006  0.63782849  0.31896791  1
  H  H20  1  -0.00748288  0.96745840  0.32306818  1
  H  H21  1  0.49473010  0.30068638  0.32032174  1
  H  H22  1  0.50878905  0.63751955  0.31908876  1
  H  H23  1  0.50263426  0.96825980  0.31696715  1
  H  H24  1  0.24431610  0.19741078  0.67787007  1
  H  H25  1  0.23879496  0.53124861  0.68145072  1
  H  H26  1  0.25930847  0.86512163  0.67909825  1
  H  H27  1  0.76103090  0.19880805  0.68035643  1
  H  H28  1  0.75615612  0.52989027  0.68178681  1
  H  H29  1  0.74171440  0.86677536  0.68113147  1
  H  H30  1  0.24413412  0.13617431  0.17970202  1
  H  H31  1  0.25008044  0.46799783  0.17850899  1
  H  H32  1  0.25747120  0.80198368  0.18198393  1
  H  H33  1  0.74226452  0.13329672  0.18067054  1
  H  H34  1  0.74545691  0.46638669  0.17967296  1
  H  H35  1  0.74655584  0.80099626  0.18003080  1
  H  H36  1  0.24660033  0.19696907  0.82137374  1
  H  H37  1  0.24179633  0.53134542  0.81984797  1
  H  H38  1  0.25514845  0.86442686  0.81723599  1
  H  H39  1  0.75524118  0.19663828  0.81951653  1
  H  H40  1  0.75459015  0.53272295  0.81959892  1
  H  H41  1  0.75811191  0.86595342  0.82028382  1
  H  H42  1  0.24549992  0.13518969  0.31865141  1
  H  H43  1  0.25465255  0.46776938  0.32102550  1
  H  H44  1  0.24378409  0.80235848  0.31955273  1
  H  H45  1  0.75840219  0.13595835  0.32242192  1
  H  H46  1  0.75132181  0.46745028  0.31822491  1
  H  H47  1  0.74815792  0.80177775  0.32350582  1
  H  H48  1  0.12787894  0.05188121  0.62169783  1
  H  H49  1  0.12518721  0.38943609  0.60123791  1
  H  H50  1  0.11930832  0.72507980  0.59797120  1
  H  H51  1  0.62924782  0.05372541  0.61514301  1
  H  H52  1  0.63009969  0.38238259  0.62357968  1
  H  H53  1  0.62003581  0.72493961  0.60310518  1
  H  H54  1  0.38052816  0.27729091  0.09995271  1
  H  H55  1  0.37163864  0.61287820  0.12151997  1
  H  H56  1  0.37720604  0.94848631  0.11245188  1
  H  H57  1  0.88197450  0.27548129  0.10056489  1
  H  H58  1  0.87100442  0.61328085  0.11007237  1
  H  H59  1  0.87544761  0.94439943  0.10943443  1
  H  H60  1  0.37589396  0.05386078  0.88655985  1
  H  H61  1  0.36974827  0.38498934  0.88527321  1
  H  H62  1  0.38036842  0.72169199  0.89903488  1
  H  H63  1  0.87295672  0.05191390  0.88737654  1
  H  H64  1  0.86677710  0.38537106  0.87820969  1
  H  H65  1  0.87347676  0.71844099  0.88002117  1
  H  H66  1  0.11828207  0.27739632  0.40223915  1
  H  H67  1  0.12231978  0.61441101  0.38357089  1
  H  H68  1  0.12635557  0.94685834  0.38489603  1
  H  H69  1  0.62168487  0.28062345  0.38620426  1
  H  H70  1  0.62106009  0.60985399  0.39917776  1
  H  H71  1  0.62608166  0.94653458  0.38743965  1
  H  H72  1  0.37889733  0.21804026  0.61782341  1
  H  H73  1  0.37527360  0.55301162  0.62383160  1
  H  H74  1  0.36856470  0.88928339  0.59736425  1
  H  H75  1  0.87666309  0.22551954  0.60327491  1
  H  H76  1  0.87789552  0.55288638  0.60887244  1
  H  H77  1  0.87770750  0.88405642  0.62243971  1
  H  H78  1  0.12766630  0.11126034  0.10315063  1
  H  H79  1  0.13402490  0.44150783  0.10134872  1
  H  H80  1  0.12443575  0.78036599  0.11804662  1
  H  H81  1  0.62938186  0.10831570  0.09942926  1
  H  H82  1  0.63792771  0.44336664  0.09757245  1
  H  H83  1  0.62938304  0.77855080  0.10533992  1
  H  H84  1  0.12313428  0.22060797  0.89274747  1
  H  H85  1  0.13252354  0.55919544  0.90295112  1
  H  H86  1  0.12658786  0.88590343  0.88641178  1
  H  H87  1  0.61921219  0.21672401  0.88004122  1
  H  H88  1  0.62883682  0.55455217  0.88935807  1
  H  H89  1  0.62465728  0.88541278  0.88351466  1
  H  H90  1  0.37096382  0.11370236  0.39067102  1
  H  H91  1  0.36730792  0.44068898  0.40202791  1
  H  H92  1  0.37761551  0.78014152  0.38357762  1
  H  H93  1  0.86370334  0.10767428  0.40679735  1
  H  H94  1  0.86984727  0.44484368  0.39187907  1
  H  H95  1  0.87949087  0.78148384  0.38841666  1
  H  H96  1  0.37272008  0.27735922  0.39302746  1
  H  H97  1  0.37373638  0.61505414  0.37666603  1
  H  H98  1  0.37629906  0.94755256  0.38466537  1
  H  H99  1  0.87027186  0.28156282  0.38233692  1
  H  H100  1  0.87328162  0.61042890  0.39310837  1
  H  H101  1  0.87857932  0.94162661  0.40167743  1
  H  H102  1  0.12161873  0.05802815  0.89672809  1
  H  H103  1  0.11422463  0.38973534  0.90197764  1
  H  H104  1  0.11962611  0.72652198  0.90576423  1
  H  H105  1  0.62490736  0.05367343  0.89331181  1
  H  H106  1  0.61697025  0.38921085  0.89966015  1
  H  H107  1  0.62727222  0.71754520  0.87304974  1
  H  H108  1  0.13062968  0.27998911  0.11666217  1
  H  H109  1  0.12067993  0.61145732  0.11479394  1
  H  H110  1  0.12472617  0.94749792  0.11183368  1
  H  H111  1  0.62789693  0.28010677  0.11555789  1
  H  H112  1  0.61855473  0.60933413  0.09780461  1
  H  H113  1  0.62638007  0.94593391  0.10812100  1
  H  H114  1  0.38170353  0.05827808  0.59845633  1
  H  H115  1  0.38329375  0.39007524  0.59693519  1
  H  H116  1  0.37106707  0.71996431  0.61256757  1
  H  H117  1  0.88200905  0.05682698  0.59676728  1
  H  H118  1  0.87779596  0.38345462  0.61695347  1
  H  H119  1  0.87219876  0.72058912  0.61820156  1
  H  H120  1  0.12178027  0.11135718  0.39020723  1
  H  H121  1  0.11995905  0.44781910  0.38258009  1
  H  H122  1  0.13002985  0.77676446  0.39998439  1
  H  H123  1  0.61814394  0.11758172  0.37535295  1
  H  H124  1  0.62076472  0.44626469  0.38311334  1
  H  H125  1  0.63073409  0.77571218  0.39879530  1
  H  H126  1  0.37210280  0.21976689  0.89134421  1
  H  H127  1  0.37816069  0.55093333  0.87907216  1
  H  H128  1  0.37571024  0.88835141  0.89048251  1
  H  H129  1  0.86779024  0.22119641  0.89899427  1
  H  H130  1  0.87714488  0.55551874  0.89146955  1
  H  H131  1  0.87286589  0.88924113  0.89917163  1
  H  H132  1  0.37608299  0.11451053  0.11503770  1
  H  H133  1  0.38228554  0.44751233  0.11577027  1
  H  H134  1  0.37303135  0.77690307  0.10433011  1
  H  H135  1  0.87690091  0.11408866  0.11652191  1
  H  H136  1  0.88447250  0.44852310  0.12545832  1
  H  H137  1  0.87811761  0.78157261  0.11646436  1
  H  H138  1  0.13095359  0.22585747  0.59912090  1
  H  H139  1  0.13034248  0.55676198  0.59750301  1
  H  H140  1  0.12116924  0.88349498  0.62152523  1
  H  H141  1  0.62842034  0.21794703  0.61570408  1
  H  H142  1  0.62803139  0.55630054  0.61493445  1
  H  H143  1  0.63012473  0.88753721  0.60138541  1
  H  H144  1  0.30942127  0.75031197  -0.00316296  1
  H  H145  1  0.59881300  0.08285956  0.50625069  1
  H  H146  1  0.29705249  0.41596305  0.50356061  1
  H  H147  1  0.19851617  0.25215468  0.49629738  1
  H  H148  1  0.91159284  0.08122221  0.99406021  1
  H  H149  1  0.88817689  0.41414809  0.98958584  1
  H  H150  1  0.80402184  0.24751591  1.00637398  1
  H  H151  1  0.19785020  0.41242122  -0.00157169  1
  H  H152  1  0.78866403  0.08061973  0.50599305  1
  H  H153  1  0.82311320  0.56916556  0.49565729  1
  H  H154  1  0.04610545  0.41589394  1.00816350  1
  H  H155  1  0.07510896  0.59331054  0.00621963  1
  H  H156  1  0.08276888  0.58702353  0.49664918  1
  H  H157  1  0.30005812  0.91434499  0.49034756  1
  H  H158  1  0.61140438  0.41304709  0.51070054  1
  H  H159  1  0.05076600  0.25415495  0.50564807  1
  H  H160  1  0.57341682  0.91805264  0.00010213  1
  H  H161  1  0.58276267  0.25078697  0.49895456  1
  H  H162  1  0.93152962  0.59549393  0.50036383  1
  H  H163  1  0.20663194  0.58278961  1.00387350  1
  H  H164  1  0.92387948  0.59586924  -0.00268922  1
  H  H165  1  0.57836511  0.92084176  0.49965266  1
  H  H166  1  0.32190035  0.91831872  0.99816816  1
  H  H167  1  0.68301896  0.59825769  0.98622049  1
  H  H168  1  0.20468625  0.57885153  0.49643174  1
  H  H169  1  0.70747858  0.41635110  -0.00923196  1
  H  H170  1  0.55281580  0.59225489  0.50308988  1
  H  H171  1  0.95516656  0.08269100  0.49658753  1
  H  H172  1  0.55097102  0.41494890  1.00213506  1
  H  H173  1  0.89504116  0.75082051  0.98876662  1
  H  H174  1  0.41462708  0.08427122  0.99883164  1
  H  H175  1  0.41065852  0.75028028  0.50626647  1
  H  H176  1  0.64908427  0.24370187  0.98770145  1
  H  H177  1  0.54814803  0.58410375  -0.00415378  1
  H  H178  1  0.69470670  0.91297816  0.49203384  1
  H  H179  1  0.45368025  0.41011849  0.49510268  1
  H  H180  1  0.68045894  0.75194525  -0.00421068  1
  H  H181  1  0.94665566  0.24793889  -0.00255117  1
  H  H182  1  0.84172451  0.75317349  0.49521909  1
  H  H183  1  0.81947083  0.55567586  0.99836499  1
  H  H184  1  0.07766494  0.91773048  0.00298706  1
  H  H185  1  0.44811318  0.74948009  1.00641112  1
  H  H186  1  0.41882786  0.92244016  0.49789727  1
  H  H187  1  0.14639063  0.91097243  0.51305148  1
  H  H188  1  0.81932794  0.41355223  0.50056147  1
  H  H189  1  0.40006250  0.58491822  0.48949839  1
  H  H190  1  0.17165504  0.08280180  0.49861778  1
  H  H191  1  0.67349909  0.57223888  0.50590208  1
  Pb  Pb192  1  0.24901848  0.04643211  0.75006401  1
  Pb  Pb193  1  0.25074655  0.37904307  0.75021368  1
  Pb  Pb194  1  0.24863450  0.71462657  0.75324913  1
  Pb  Pb195  1  0.75122085  0.04513649  0.74437635  1
  Pb  Pb196  1  0.74854792  0.37866619  0.75240064  1
  Pb  Pb197  1  0.74918449  0.71585263  0.74428182  1
  Pb  Pb198  1  0.24743006  0.28331045  0.25477049  1
  Pb  Pb199  1  0.24751537  0.62080859  0.24936983  1
  Pb  Pb200  1  0.24983513  0.95515136  0.24983222  1
  Pb  Pb201  1  0.75008915  0.28852469  0.24478221  1
  Pb  Pb202  1  0.74873780  0.61723637  0.24812550  1
  Pb  Pb203  1  0.74612762  0.95161303  0.25135962  1
  Pb  Pb204  1  -0.00041668  0.21334969  0.75035883  1
  Pb  Pb205  1  0.00171607  0.54914233  0.74848304  1
  Pb  Pb206  1  0.00070865  0.87859166  0.75548034  1
  Pb  Pb207  1  0.49943149  0.21108093  0.74895249  1
  Pb  Pb208  1  0.50239293  0.54825855  0.74968697  1
  Pb  Pb209  1  0.49582959  0.88166049  0.74526050  1
  Pb  Pb210  1  -0.00595567  0.11841042  0.25292257  1
  Pb  Pb211  1  0.00451189  0.45191902  0.24694244  1
  Pb  Pb212  1  0.00028581  0.78830584  0.25184125  1
  Pb  Pb213  1  0.49983706  0.12174178  0.24820989  1
  Pb  Pb214  1  0.49499540  0.45157005  0.24910781  1
  Pb  Pb215  1  0.49839347  0.78652497  0.25117281  1
  C  C216  1  0.00016153  0.04553023  0.63292701  1
  C  C217  1  0.00448081  0.37993875  0.62989141  1
  C  C218  1  -0.00065799  0.71495070  0.63108990  1
  C  C219  1  0.50284162  0.04775906  0.62952309  1
  C  C220  1  0.50192514  0.37805786  0.63209834  1
  C  C221  1  0.49708247  0.71423468  0.63036731  1
  C  C222  1  0.00299560  0.28571921  0.13137952  1
  C  C223  1  -0.00454190  0.62160112  0.13450257  1
  C  C224  1  -0.00033753  0.95350196  0.13428359  1
  C  C225  1  0.50107476  0.28693166  0.13242380  1
  C  C226  1  0.49944369  0.62095416  0.13185433  1
  C  C227  1  0.50271944  0.95479692  0.13376327  1
  C  C228  1  -0.00105780  0.04718402  0.86984138  1
  C  C229  1  -0.00581711  0.38072405  0.86753779  1
  C  C230  1  0.00099288  0.71491833  0.87080635  1
  C  C231  1  0.50065999  0.04688464  0.86871518  1
  C  C232  1  0.49627670  0.37844593  0.86855433  1
  C  C233  1  0.49883957  0.71326098  0.86516352  1
  C  C234  1  -0.00187523  0.28840811  0.36989655  1
  C  C235  1  -0.00425295  0.62193404  0.36650021  1
  C  C236  1  -0.00047885  0.95239247  0.37027333  1
  C  C237  1  0.49695136  0.28615953  0.36808177  1
  C  C238  1  0.50142795  0.62197494  0.36645663  1
  C  C239  1  0.50164289  0.95358596  0.36490788  1
  C  C240  1  0.25114886  0.21298052  0.63071062  1
  C  C241  1  0.24788186  0.54587415  0.63401708  1
  C  C242  1  0.24911580  0.87974084  0.63171859  1
  C  C243  1  0.75505543  0.21365908  0.63300056  1
  C  C244  1  0.75348753  0.54599190  0.63429307  1
  C  C245  1  0.74972015  0.87997666  0.63327495  1
  C  C246  1  0.24960876  0.12092462  0.13241877  1
  C  C247  1  0.25522398  0.45285372  0.13114631  1
  C  C248  1  0.25136831  0.78671839  0.13457511  1
  C  C249  1  0.74962383  0.11914441  0.13289607  1
  C  C250  1  0.75605005  0.45284621  0.13206926  1
  C  C251  1  0.75098194  0.78706333  0.13211317  1
  C  C252  1  0.24735035  0.21255394  0.86866109  1
  C  C253  1  0.25058424  0.54612283  0.86721506  1
  C  C254  1  0.25217427  0.87961716  0.86489194  1
  C  C255  1  0.74677794  0.21161840  0.86695878  1
  C  C256  1  0.75363958  0.54739256  0.86762984  1
  C  C257  1  0.75157414  0.88002260  0.86789755  1
  C  C258  1  0.24607165  0.12033731  0.36644469  1
  C  C259  1  0.24768239  0.45268217  0.36842627  1
  C  C260  1  0.25060880  0.78694149  0.36696082  1
  C  C261  1  0.74693739  0.12070987  0.36930538  1
  C  C262  1  0.74768665  0.45296132  0.36602978  1
  C  C263  1  0.75331870  0.78646746  0.37089816  1
  C  C264  1  0.55939792  0.73704625  0.95256748  1
  C  C265  1  0.02217568  0.74387699  0.53564539  1
  C  C266  1  0.28483442  0.90692025  0.95844914  1
  C  C267  1  0.53152319  0.74450928  0.53586256  1
  C  C268  1  0.04307063  0.59498774  0.45742321  1
  C  C269  1  0.69837179  0.42741840  0.45728627  1
  C  C270  1  0.21126583  0.24130575  0.96111603  1
  C  C271  1  0.21019278  0.09363244  0.45959740  1
  C  C272  1  0.79049527  0.56925681  0.53942216  1
  C  C273  1  0.81875751  0.42918961  0.04448074  1
  C  C274  1  0.95221330  0.40420052  0.54009246  1
  C  C275  1  0.56168691  0.40420173  0.54506748  1
  C  C276  1  0.30836201  0.42447710  0.04130080  1
  C  C277  1  0.95780871  0.59685436  0.04028569  1
  C  C278  1  0.80182781  0.76347863  0.04077748  1
  C  C279  1  0.54065986  0.26060242  0.46164289  1
  C  C280  1  0.77277612  0.23806142  0.96322313  1
  C  C281  1  0.45902494  0.25980600  0.46228023  1
  C  C282  1  0.80695730  0.90339671  0.54438469  1
  C  C283  1  0.72637766  0.90417436  0.53519651  1
  C  C284  1  0.54052480  0.92993130  0.45970821  1
  C  C285  1  0.77978560  0.42568862  0.46195476  1
  C  C286  1  0.30730714  0.24211348  0.54229626  1
  C  C287  1  0.68310843  0.09485029  0.45507394  1
  C  C288  1  0.01623615  0.40630365  0.96439124  1
  C  C289  1  0.72021225  0.76191409  0.03539112  1
  C  C290  1  0.22107236  0.09215486  0.03822201  1
  C  C291  1  0.45692060  0.07370154  0.96195532  1
  C  C292  1  0.44506069  0.59399907  0.45400727  1
  C  C293  1  0.02260604  0.74567312  0.96733786  1
  C  C294  1  0.05682009  0.25779524  0.04159448  1
  C  C295  1  0.27121926  0.90557131  0.53465434  1
  C  C296  1  0.73803720  0.42719351  0.03398757  1
  C  C297  1  0.94222738  0.26039456  0.45875972  1
  C  C298  1  0.78265460  0.24301585  0.53862974  1
  C  C299  1  0.47890689  0.73876625  0.96329512  1
  C  C300  1  0.77770233  0.90736654  0.96295771  1
  C  C301  1  0.97400477  0.92210232  0.46480734  1
  C  C302  1  0.53583223  0.92842328  0.03997775  1
  C  C303  1  0.45859013  0.93074355  0.45885604  1
  C  C304  1  0.27697817  0.76039738  0.03939106  1
  C  C305  1  0.53841867  0.07345591  0.96263175  1
  C  C306  1  0.03322686  0.40640566  0.53483152  1
  C  C307  1  0.44103864  0.59172071  0.04423444  1
  C  C308  1  0.72010315  0.75703871  0.46598939  1
  C  C309  1  0.03282496  0.07704719  0.96447628  1
  C  C310  1  0.03804348  0.92795582  0.04158220  1
  C  C311  1  0.47431540  0.07751923  0.53370460  1
  N  N312  1  0.19798153  0.76102504  0.04408215  1
  N  N313  1  0.55062092  0.26016537  0.04192279  1
  N  N314  1  0.96338926  0.59327703  0.45979149  1
  N  N315  1  0.51931725  0.59179594  0.03707494  1
  N  N316  1  0.71152143  0.56574783  0.96111581  1
  N  N317  1  0.23043858  0.57376578  0.53952611  1
  N  N318  1  0.05914905  0.07332358  0.54616274  1
  N  N319  1  0.23258892  0.57345352  0.96167034  1
  N  N320  1  0.28857916  0.24140739  0.96195493  1
  N  N321  1  0.52438460  0.59184107  0.46082004  1
  N  N322  1  0.26897088  0.42581330  0.46247965  1
  N  N323  1  0.55264873  0.07455817  0.54020955  1
  N  N324  1  0.30785235  0.57090676  0.54681769  1
  N  N325  1  0.97805022  0.25732849  0.03711733  1
  N  N326  1  0.70032410  0.90579363  0.95946394  1
  N  N327  1  0.02083215  0.25990604  0.46446098  1
  N  N328  1  0.79883657  0.75973331  0.46124791  1
  N  N329  1  0.69384377  0.23745115  0.95509793  1
  N  N330  1  0.94466709  0.74200605  0.95768044  1
  N  N331  1  0.29842137  0.09326533  0.04071107  1
  N  N332  1  0.30990157  0.57051032  0.95498429  1
  N  N333  1  0.22441452  0.75848075  0.46256824  1
  N  N334  1  0.72439647  0.09212579  0.03669721  1
  N  N335  1  0.44347195  0.40636886  0.95776957  1
  N  N336  1  0.45265739  0.74167076  0.53994075  1
  N  N337  1  0.93741821  0.40519869  0.95527982  1
  N  N338  1  0.76102776  0.09100906  0.46457719  1
  N  N339  1  0.45640133  0.92870354  0.04107153  1
  N  N340  1  0.48259306  0.40726825  0.53713364  1
  N  N341  1  0.79290964  0.57417267  0.95991612  1
  N  N342  1  0.22870668  0.24357215  0.53680876  1
  N  N343  1  0.52124195  0.40768418  0.96130310  1
  N  N344  1  0.19136802  0.42838470  0.45741659  1
  N  N345  1  0.19272434  0.90460906  0.54456819  1
  N  N346  1  0.71109815  0.57349385  0.54328776  1
  N  N347  1  0.95878679  0.92701165  0.04021015  1
  N  N348  1  0.98164117  0.07554249  0.53931103  1
  N  N349  1  0.22967731  0.42325300  0.03743152  1
  N  N350  1  0.94494988  0.74173348  0.54109251  1
  N  N351  1  0.30065103  0.76025187  0.45737454  1
  N  N352  1  0.03731949  0.59341443  0.04363899  1
  N  N353  1  0.05131079  0.92436377  0.46071453  1
  N  N354  1  0.47450743  0.25938136  0.03663237  1
  N  N355  1  0.80050256  0.09419620  0.04222771  1
  N  N356  1  0.28942937  0.09446670  0.46004490  1
  N  N357  1  0.20550430  0.90631133  0.95730870  1
  N  N358  1  0.95394558  0.07385000  0.96032412  1
  N  N359  1  0.70525614  0.24069334  0.54135736  1
  N  N360  1  0.06992872  0.05664712  0.60513899  1
  N  N361  1  0.06476937  0.39170896  0.58971143  1
  N  N362  1  0.05778545  0.72726467  0.58951098  1
  N  N363  1  0.57083770  0.05567155  0.59920873  1
  N  N364  1  0.57324767  0.38786233  0.60452190  1
  N  N365  1  0.55924634  0.72740255  0.59178612  1
  N  N366  1  0.44237817  0.27573105  0.09250131  1
  N  N367  1  0.42854825  0.60925206  0.10300688  1
  N  N368  1  0.43770503  0.94506569  0.09983686  1
  N  N369  1  0.94369444  0.27551775  0.09192479  1
  N  N370  1  0.93130236  0.61165531  0.09736075  1
  N  N371  1  0.93663854  0.94273063  0.09836751  1
  N  N372  1  0.43464073  0.05693236  0.90225958  1
  N  N373  1  0.42847790  0.38921092  0.89931953  1
  N  N374  1  0.44196414  0.72364746  0.90747116  1
  N  N375  1  0.93243047  0.05522769  0.90209244  1
  N  N376  1  0.92458389  0.38968488  0.89549199  1
  N  N377  1  0.93100458  0.72323672  0.89818045  1
  N  N378  1  0.05639106  0.27933128  0.41051508  1
  N  N379  1  0.06328697  0.61096328  0.39931608  1
  N  N380  1  0.06735567  0.94353865  0.40048543  1
  N  N381  1  0.56287933  0.27698512  0.40193399  1
  N  N382  1  0.55909685  0.61294403  0.40754399  1
  N  N383  1  0.56613840  0.94380891  0.40095886  1
  N  N384  1  0.32132728  0.22373608  0.60055660  1
  N  N385  1  0.31796615  0.55583352  0.60635119  1
  N  N386  1  0.30679860  0.89073272  0.58893133  1
  N  N387  1  0.81566218  0.22666470  0.59353674  1
  N  N388  1  0.81740211  0.55456977  0.59644294  1
  N  N389  1  0.82052828  0.88888105  0.60351007  1
  N  N390  1  0.18859636  0.10866217  0.09316153  1
  N  N391  1  0.19570262  0.44148096  0.09240156  1
  N  N392  1  0.18399719  0.77737400  0.10335621  1
  N  N393  1  0.69151916  0.10772887  0.09247584  1
  N  N394  1  0.69992491  0.44220843  0.08950154  1
  N  N395  1  0.68988917  0.77668303  0.09376960  1
  N  N396  1  0.18301483  0.22410347  0.90481764  1
  N  N397  1  0.19453793  0.55713309  0.90918337  1
  N  N398  1  0.18703822  0.88943556  0.89870734  1
  N  N399  1  0.67813718  0.22055968  0.89610332  1
  N  N400  1  0.68941961  0.56045107  0.90100750  1
  N  N401  1  0.68400415  0.88841288  0.89872138  1
  N  N402  1  0.30986263  0.11107826  0.40194893  1
  N  N403  1  0.30512602  0.44162682  0.40917786  1
  N  N404  1  0.31804820  0.77766852  0.39796684  1
  N  N405  1  0.80113653  0.10832958  0.41194374  1
  N  N406  1  0.80929128  0.44212475  0.40368604  1
  N  N407  1  0.81998735  0.77819569  0.40281286  1
  N  N408  1  0.43284075  0.27518485  0.40572242  1
  N  N409  1  0.43093412  0.61066428  0.39506158  1
  N  N410  1  0.43568744  0.94527193  0.39961969  1
  N  N411  1  0.92808302  0.27727097  0.40001094  1
  N  N412  1  0.93419903  0.61352524  0.40429404  1
  N  N413  1  0.93992107  0.93919953  0.41059523  1
  N  N414  1  0.06087924  0.06052339  0.90850904  1
  N  N415  1  0.05200203  0.39148579  0.91003695  1
  N  N416  1  0.05802447  0.72836756  0.91376435  1
  N  N417  1  0.56478305  0.05735030  0.90651102  1
  N  N418  1  0.55521839  0.38949217  0.90796331  1
  N  N419  1  0.57083816  0.72187204  0.89326330  1
  N  N420  1  0.07242212  0.27524207  0.09998126  1
  N  N421  1  0.06044832  0.61199184  0.10088932  1
  N  N422  1  0.06474208  0.94411462  0.09899006  1
  N  N423  1  0.56846873  0.27761479  0.10133854  1
  N  N424  1  0.55665813  0.61157175  0.09038839  1
  N  N425  1  0.56559913  0.94382795  0.09664311  1
  N  N426  1  0.44303574  0.06063533  0.58875883  1
  N  N427  1  0.44578619  0.38819689  0.58998373  1
  N  N428  1  0.43069117  0.72284141  0.59813708  1
  N  N429  1  0.94427653  0.05621801  0.59084174  1
  N  N430  1  0.93533821  0.38843321  0.59852981  1
  N  N431  1  0.93071513  0.72361866  0.60185973  1
  N  N432  1  0.18189744  0.10943324  0.40236700  1
  N  N433  1  0.17862091  0.44376874  0.39829715  1
  N  N434  1  0.19214220  0.77492619  0.40686187  1
  N  N435  1  0.67408873  0.11229384  0.39573115  1
  N  N436  1  0.67938250  0.44363359  0.39907125  1
  N  N437  1  0.69149179  0.77350163  0.40998436  1
  N  N438  1  0.31140479  0.22325594  0.90313522  1
  N  N439  1  0.32058299  0.55457054  0.89574871  1
  N  N440  1  0.31495282  0.89068000  0.90213716  1
  N  N441  1  0.80602971  0.22289116  0.90825288  1
  N  N442  1  0.81715773  0.55177748  0.90438422  1
  N  N443  1  0.81167227  0.89172835  0.90825943  1
  N  N444  1  0.31644900  0.11171789  0.10083937  1
  N  N445  1  0.32453042  0.44267340  0.09925931  1
  N  N446  1  0.31148099  0.77560488  0.09465528  1
  N  N447  1  0.81737777  0.11087880  0.10202085  1
  N  N448  1  0.82878738  0.44455992  0.10461927  1
  N  N449  1  0.81950678  0.77827863  0.09958973  1
  N  N450  1  0.19283495  0.22405008  0.59068084  1
  N  N451  1  0.19237368  0.55540242  0.59136434  1
  N  N452  1  0.17942082  0.88862266  0.60416029  1
  N  N453  1  0.68804610  0.22220024  0.60153592  1
  N  N454  1  0.68831111  0.55593537  0.60100387  1
  N  N455  1  0.69126929  0.88973877  0.59201560  1
  Cl  Cl456  1  0.25600257  0.05283919  0.61526123  1
  Cl  Cl457  1  0.26078629  0.38985236  0.60836001  1
  Cl  Cl458  1  0.24569996  0.71830989  0.62065518  1
  Cl  Cl459  1  0.76093322  0.05847616  0.60262755  1
  Cl  Cl460  1  0.75371131  0.38433152  0.62212784  1
  Cl  Cl461  1  0.74470636  0.72128347  0.61021753  1
  Cl  Cl462  1  0.25588712  0.28457772  0.12291646  1
  Cl  Cl463  1  0.24257458  0.60640419  0.11053327  1
  Cl  Cl464  1  0.25216933  0.94900604  0.11819818  1
  Cl  Cl465  1  0.75690344  0.27666701  0.10795994  1
  Cl  Cl466  1  0.74385999  0.60689002  0.10573209  1
  Cl  Cl467  1  0.75088766  0.94476405  0.11936167  1
  Cl  Cl468  1  0.24487175  0.05373467  0.87844894  1
  Cl  Cl469  1  0.23717788  0.38930778  0.88937611  1
  Cl  Cl470  1  0.25081835  0.72108202  0.88843708  1
  Cl  Cl471  1  0.75022599  0.04997558  0.87516227  1
  Cl  Cl472  1  0.73889306  0.38748861  0.88835206  1
  Cl  Cl473  1  0.75174373  0.71414931  0.87676060  1
  Cl  Cl474  1  0.24093113  0.27539467  0.39516859  1
  Cl  Cl475  1  0.24533086  0.60741385  0.38722468  1
  Cl  Cl476  1  0.25159518  0.94409205  0.38573802  1
  Cl  Cl477  1  0.74758447  0.28194171  0.37297103  1
  Cl  Cl478  1  0.74565659  0.60713408  0.39341019  1
  Cl  Cl479  1  0.75265587  0.94771570  0.38598924  1
  Cl  Cl480  1  0.00763244  0.22712682  0.60773750  1
  Cl  Cl481  1  0.00408764  0.55910927  0.60700521  1
  Cl  Cl482  1  0.00130202  0.88235604  0.62306230  1
  Cl  Cl483  1  0.50390504  0.21689031  0.61600815  1
  Cl  Cl484  1  0.50590320  0.56078440  0.60815056  1
  Cl  Cl485  1  0.49672180  0.88757395  0.60959273  1
  Cl  Cl486  1  0.00125579  0.11469786  0.11713352  1
  Cl  Cl487  1  0.01345973  0.44449783  0.11052508  1
  Cl  Cl488  1  0.00042598  0.77732604  0.11864135  1
  Cl  Cl489  1  0.50488450  0.11060212  0.11525737  1
  Cl  Cl490  1  0.51347076  0.44629148  0.11131184  1
  Cl  Cl491  1  0.49721405  0.77694890  0.11811243  1
  Cl  Cl492  1  -0.00904411  0.22174862  0.89064953  1
  Cl  Cl493  1  0.00690025  0.56164145  0.89526768  1
  Cl  Cl494  1  0.00026066  0.88533902  0.88792932  1
  Cl  Cl495  1  0.49595045  0.21760670  0.88019170  1
  Cl  Cl496  1  0.50882155  0.55615647  0.88960217  1
  Cl  Cl497  1  0.49994555  0.88673178  0.87850218  1
  Cl  Cl498  1  -0.01351292  0.10964719  0.39590946  1
  Cl  Cl499  1  -0.00428518  0.45077859  0.37721718  1
  Cl  Cl500  1  0.00524284  0.77996467  0.38557390  1
  Cl  Cl501  1  0.49408758  0.11332822  0.38271823  1
  Cl  Cl502  1  0.48880215  0.44047432  0.39287746  1
  Cl  Cl503  1  0.50309819  0.77572360  0.38670558  1
  Cl  Cl504  1  0.35996776  0.14674563  0.74733824  1
  Cl  Cl505  1  0.36408028  0.47934402  0.74975893  1
  Cl  Cl506  1  0.36026993  0.81219893  0.74707135  1
  Cl  Cl507  1  0.86192637  0.14714023  0.74906513  1
  Cl  Cl508  1  0.86127064  0.47829376  0.75653814  1
  Cl  Cl509  1  0.86364161  0.80983488  0.74582190  1
  Cl  Cl510  1  0.14088145  0.19051602  0.24954678  1
  Cl  Cl511  1  0.13925011  0.52063192  0.25136957  1
  Cl  Cl512  1  0.13990279  0.85382159  0.24673149  1
  Cl  Cl513  1  0.63865366  0.18755292  0.25214638  1
  Cl  Cl514  1  0.64185288  0.52268457  0.25506716  1
  Cl  Cl515  1  0.63976312  0.85447463  0.25446760  1
  Cl  Cl516  1  0.13489365  0.14560164  0.74740618  1
  Cl  Cl517  1  0.13989463  0.48083475  0.75128640  1
  Cl  Cl518  1  0.13792450  0.81127875  0.74982655  1
  Cl  Cl519  1  0.63877081  0.14521373  0.74897324  1
  Cl  Cl520  1  0.63909892  0.48035792  0.74932382  1
  Cl  Cl521  1  0.64133385  0.80951568  0.75370887  1
  Cl  Cl522  1  0.36201716  0.18908468  0.25182029  1
  Cl  Cl523  1  0.36276265  0.52155006  0.24701858  1
  Cl  Cl524  1  0.36317322  0.85528774  0.25400562  1
  Cl  Cl525  1  0.86321232  0.18819708  0.24752455  1
  Cl  Cl526  1  0.86169100  0.52375870  0.24397983  1
  Cl  Cl527  1  0.86275126  0.85392813  0.24964184  1
  Cl  Cl528  1  0.10937343  0.31546783  0.74938968  1
  Cl  Cl529  1  0.10432800  0.64534043  0.75184932  1
  Cl  Cl530  1  0.11269711  0.97860680  0.74686387  1
  Cl  Cl531  1  0.61110536  0.31191399  0.74818021  1
  Cl  Cl532  1  0.61292851  0.64388416  0.75038846  1
  Cl  Cl533  1  0.61383352  0.97892723  0.74520264  1
  Cl  Cl534  1  0.38829787  0.02112430  0.24886428  1
  Cl  Cl535  1  0.39273744  0.35684378  0.25261463  1
  Cl  Cl536  1  0.38717590  0.68630472  0.25171821  1
  Cl  Cl537  1  0.89303596  0.02300223  0.24896581  1
  Cl  Cl538  1  0.88751410  0.35555905  0.24718242  1
  Cl  Cl539  1  0.88773054  0.68774519  0.25040654  1
  Cl  Cl540  1  0.39026273  0.31397017  0.75042421  1
  Cl  Cl541  1  0.39182533  0.64430386  0.74758052  1
  Cl  Cl542  1  0.39058828  0.97806939  0.74850308  1
  Cl  Cl543  1  0.88606353  0.31257998  0.75338780  1
  Cl  Cl544  1  0.88517073  0.64140969  0.74998165  1
  Cl  Cl545  1  0.89044944  0.97945334  0.74913316  1
  Cl  Cl546  1  0.11285079  0.02170420  0.25510101  1
  Cl  Cl547  1  0.11034567  0.35551992  0.24953733  1
  Cl  Cl548  1  0.11091924  0.68633438  0.24779640  1
  Cl  Cl549  1  0.61205934  0.02126270  0.25505006  1
  Cl  Cl550  1  0.61422570  0.35565500  0.24995112  1
  Cl  Cl551  1  0.61179683  0.68656915  0.25054398  1
