# generated using pymatgen
data_H8PbC4(N3Cl2)2
_symmetry_space_group_name_H-M   'P 1'
_cell_length_a   16.62481962
_cell_length_b   22.51276094
_cell_length_c   21.59125415
_cell_angle_alpha   89.99976801
_cell_angle_beta   89.96701874
_cell_angle_gamma   89.99957220
_symmetry_Int_Tables_number   1
_chemical_formula_structural   H8PbC4(N3Cl2)2
_chemical_formula_sum   'H192 Pb24 C96 N144 Cl96'
_cell_volume   8080.97008509
_cell_formula_units_Z   24
loop_
 _symmetry_equiv_pos_site_id
 _symmetry_equiv_pos_as_xyz
  1  'x, y, z'
loop_
 _atom_site_type_symbol
 _atom_site_label
 _atom_site_symmetry_multiplicity
 _atom_site_fract_x
 _atom_site_fract_y
 _atom_site_fract_z
 _atom_site_occupancy
  H  H0  1  -0.00323712  0.02989861  0.67702774  1
  H  H1  1  0.00989413  0.36492415  0.68383286  1
  H  H2  1  0.00038767  0.69706900  0.67980810  1
  H  H3  1  0.48878772  0.03212142  0.67855337  1
  H  H4  1  0.48716131  0.36444354  0.67639125  1
  H  H5  1  0.50215556  0.69340949  0.68130058  1
  H  H6  1  0.00363694  0.30332115  0.17988520  1
  H  H7  1  -0.00182005  0.63494040  0.17847651  1
  H  H8  1  -0.00251793  0.96993325  0.18080804  1
  H  H9  1  0.48855962  0.30208888  0.17416661  1
  H  H10  1  0.50070643  0.63689321  0.17806387  1
  H  H11  1  0.49478556  0.97198265  0.17579926  1
  H  H12  1  0.00560693  0.03045046  0.81913465  1
  H  H13  1  0.00079888  0.36241248  0.82441446  1
  H  H14  1  0.00533906  0.69629491  0.81971372  1
  H  H15  1  0.51034055  0.03273564  0.82295950  1
  H  H16  1  0.50605621  0.36137647  0.82160206  1
  H  H17  1  0.48764476  0.69528142  0.81927168  1
  H  H18  1  0.01240729  0.29909263  0.31928721  1
  H  H19  1  -0.01295789  0.63789900  0.31813008  1
  H  H20  1  -0.00168318  0.97210981  0.31862750  1
  H  H21  1  0.50802011  0.30531888  0.32441837  1
  H  H22  1  0.51496637  0.63382320  0.32493554  1
  H  H23  1  0.49870281  0.97249547  0.32531279  1
  H  H24  1  0.26135070  0.19370309  0.67618657  1
  H  H25  1  0.24383767  0.52957787  0.67639545  1
  H  H26  1  0.23363051  0.86192380  0.67435049  1
  H  H27  1  0.73607010  0.19966594  0.67639616  1
  H  H28  1  0.75837792  0.53033584  0.67837920  1
  H  H29  1  0.76750694  0.86848778  0.68094419  1
  H  H30  1  0.23886934  0.13689917  0.18298944  1
  H  H31  1  0.24515266  0.46941152  0.17775923  1
  H  H32  1  0.23987307  0.80501060  0.17889636  1
  H  H33  1  0.74739974  0.13835473  0.17958116  1
  H  H34  1  0.74849769  0.47019088  0.17826680  1
  H  H35  1  0.74849293  0.80552320  0.17815082  1
  H  H36  1  0.24014639  0.19630578  0.82180202  1
  H  H37  1  0.25925249  0.53098771  0.82497392  1
  H  H38  1  0.24540785  0.86328700  0.81800786  1
  H  H39  1  0.76170650  0.19680507  0.82448352  1
  H  H40  1  0.73951965  0.52967807  0.82503796  1
  H  H41  1  0.75473607  0.86411375  0.82389283  1
  H  H42  1  0.25851776  0.13571636  0.32600731  1
  H  H43  1  0.24121145  0.46753397  0.31965478  1
  H  H44  1  0.26420844  0.80106472  0.32118613  1
  H  H45  1  0.75862359  0.14016135  0.32045329  1
  H  H46  1  0.76748315  0.47224051  0.32190649  1
  H  H47  1  0.73689812  0.80066727  0.31760123  1
  H  H48  1  0.13613148  0.05086834  0.62333751  1
  H  H49  1  0.13000960  0.38692089  0.61046130  1
  H  H50  1  0.12508380  0.72348727  0.60847824  1
  H  H51  1  0.62410559  0.05128486  0.62346133  1
  H  H52  1  0.62272054  0.38146960  0.62015606  1
  H  H53  1  0.62579958  0.71963179  0.61008985  1
  H  H54  1  0.38210175  0.27356065  0.08981400  1
  H  H55  1  0.37455358  0.61187220  0.10842052  1
  H  H56  1  0.38019224  0.94319329  0.09831733  1
  H  H57  1  0.87074164  0.28277013  0.11830304  1
  H  H58  1  0.87164179  0.60951352  0.11198006  1
  H  H59  1  0.87741727  0.94688709  0.10884027  1
  H  H60  1  0.37457864  0.05117147  0.87840405  1
  H  H61  1  0.36868568  0.38436025  0.87871006  1
  H  H62  1  0.37132443  0.71975365  0.89674301  1
  H  H63  1  0.86341492  0.04764943  0.87101398  1
  H  H64  1  0.86580932  0.38450754  0.88408479  1
  H  H65  1  0.86808738  0.71698956  0.87747734  1
  H  H66  1  0.12289011  0.27436260  0.40137278  1
  H  H67  1  0.12575021  0.61636796  0.37381835  1
  H  H68  1  0.12238949  0.94502268  0.38935109  1
  H  H69  1  0.61566022  0.27605281  0.40684006  1
  H  H70  1  0.62097759  0.60452348  0.40821147  1
  H  H71  1  0.62005243  0.94558350  0.39747126  1
  H  H72  1  0.38679463  0.21912536  0.60538582  1
  H  H73  1  0.37589384  0.55142928  0.61287272  1
  H  H74  1  0.37922206  0.88215482  0.63266060  1
  H  H75  1  0.87583626  0.21646392  0.62695577  1
  H  H76  1  0.86959786  0.55907361  0.59675923  1
  H  H77  1  0.87142220  0.89013686  0.59459545  1
  H  H78  1  0.12983724  0.10992227  0.10183876  1
  H  H79  1  0.13596327  0.44234696  0.09857501  1
  H  H80  1  0.13439327  0.77541898  0.09391838  1
  H  H81  1  0.63288215  0.10929676  0.10111017  1
  H  H82  1  0.63935674  0.44371963  0.09545727  1
  H  H83  1  0.62993977  0.77731194  0.10506409  1
  H  H84  1  0.12956771  0.22658338  0.90321640  1
  H  H85  1  0.12444611  0.55056764  0.88514719  1
  H  H86  1  0.12281841  0.88893811  0.88893196  1
  H  H87  1  0.62155118  0.21501280  0.87717334  1
  H  H88  1  0.63167783  0.55768225  0.90668872  1
  H  H89  1  0.62299376  0.88794617  0.88663604  1
  H  H90  1  0.36712357  0.10899453  0.40680218  1
  H  H91  1  0.37831059  0.45021331  0.37662304  1
  H  H92  1  0.36985326  0.77306054  0.40668717  1
  H  H93  1  0.86427268  0.11072064  0.40571968  1
  H  H94  1  0.86927511  0.44103814  0.40794842  1
  H  H95  1  0.87545643  0.78351559  0.37566752  1
  H  H96  1  0.36954557  0.28402732  0.37998759  1
  H  H97  1  0.37570364  0.61395015  0.37928028  1
  H  H98  1  0.37230895  0.94748709  0.39451450  1
  H  H99  1  0.87658308  0.28218682  0.38090388  1
  H  H100  1  0.87969136  0.61113720  0.40169413  1
  H  H101  1  0.87291617  0.94653225  0.38602368  1
  H  H102  1  0.10971974  0.05670664  0.90276152  1
  H  H103  1  0.11340098  0.39178805  0.90155178  1
  H  H104  1  0.11560927  0.72119273  0.90094884  1
  H  H105  1  0.62062220  0.05694724  0.90292794  1
  H  H106  1  0.61587175  0.39121377  0.90100835  1
  H  H107  1  0.61966177  0.71719704  0.88365159  1
  H  H108  1  0.11950353  0.27955946  0.10418388  1
  H  H109  1  0.12034078  0.61020519  0.10545381  1
  H  H110  1  0.12673893  0.94727659  0.11515359  1
  H  H111  1  0.62724430  0.28228050  0.11782000  1
  H  H112  1  0.62335168  0.60954056  0.10798670  1
  H  H113  1  0.62801085  0.94955683  0.11569198  1
  H  H114  1  0.37842100  0.05631615  0.59818761  1
  H  H115  1  0.37647209  0.38966312  0.59598177  1
  H  H116  1  0.37638485  0.72060507  0.61476252  1
  H  H117  1  0.88994310  0.06090342  0.59420166  1
  H  H118  1  0.88037426  0.38490632  0.61864340  1
  H  H119  1  0.87667253  0.72176230  0.60690345  1
  H  H120  1  0.12193759  0.11757632  0.37955109  1
  H  H121  1  0.13120395  0.44349682  0.39950357  1
  H  H122  1  0.12505609  0.78245654  0.37672349  1
  H  H123  1  0.61954256  0.12020396  0.37591326  1
  H  H124  1  0.62614783  0.45131637  0.37334086  1
  H  H125  1  0.62877131  0.77379263  0.40075682  1
  H  H126  1  0.37605007  0.21685353  0.88060570  1
  H  H127  1  0.37217121  0.55761077  0.90398056  1
  H  H128  1  0.37178872  0.88832781  0.88783613  1
  H  H129  1  0.86609636  0.22726766  0.90943709  1
  H  H130  1  0.87766911  0.54944680  0.88037971  1
  H  H131  1  0.87087393  0.89231807  0.89799332  1
  H  H132  1  0.37691727  0.11557467  0.12472614  1
  H  H133  1  0.38307246  0.45300925  0.12086010  1
  H  H134  1  0.37904764  0.78254770  0.12475192  1
  H  H135  1  0.88068439  0.11662141  0.11800652  1
  H  H136  1  0.88599027  0.44704045  0.12249918  1
  H  H137  1  0.87844837  0.78060698  0.11244353  1
  H  H138  1  0.13810001  0.22056223  0.60480930  1
  H  H139  1  0.12711163  0.55687338  0.60118693  1
  H  H140  1  0.13943155  0.89573195  0.58536020  1
  H  H141  1  0.63215137  0.22521464  0.59112262  1
  H  H142  1  0.62275398  0.54880353  0.61788036  1
  H  H143  1  0.62651239  0.88595955  0.62811895  1
  H  H144  1  0.79727724  0.58718840  0.49699480  1
  H  H145  1  0.29147055  0.75025972  0.50592870  1
  H  H146  1  0.07793479  0.41182678  0.49931269  1
  H  H147  1  0.95304114  0.58396528  0.50506336  1
  H  H148  1  0.65675192  0.91831658  0.99333099  1
  H  H149  1  0.96514449  0.08584680  0.49344571  1
  H  H150  1  0.18263346  0.58619345  0.49385586  1
  H  H151  1  0.89464284  0.41463735  0.99300086  1
  H  H152  1  0.13999292  0.08663553  0.49570236  1
  H  H153  1  0.85006634  0.08400860  0.00651327  1
  H  H154  1  0.41542131  0.92057220  0.50057507  1
  H  H155  1  0.86249505  0.24892993  0.51169011  1
  H  H156  1  0.57339975  0.73854634  0.50286097  1
  H  H157  1  0.60399751  0.25115401  0.00895595  1
  H  H158  1  0.05242524  0.24563316  0.50150075  1
  H  H159  1  0.60002785  0.41196601  0.50513509  1
  H  H160  1  0.33941879  0.24872262  0.50264700  1
  H  H161  1  0.20238062  0.41368068  -0.00867807  1
  H  H162  1  0.79706201  0.91086400  0.48909857  1
  H  H163  1  0.68583324  0.74419066  -0.00118048  1
  H  H164  1  0.89442857  0.74645916  0.98520719  1
  H  H165  1  0.20261698  0.25425646  1.00285070  1
  H  H166  1  0.03594863  0.08453051  1.00783874  1
  H  H167  1  0.44290550  0.91645332  -0.00384801  1
  H  H168  1  0.78697437  0.41764548  0.50617511  1
  H  H169  1  0.15649257  0.57964710  0.99308365  1
  H  H170  1  0.54892864  0.42392587  1.00531290  1
  H  H171  1  0.04908365  0.75072915  1.00613429  1
  H  H172  1  0.20002412  0.08001684  -0.00247644  1
  H  H173  1  0.91816914  0.91410266  0.49637703  1
  H  H174  1  0.06084181  0.24852166  -0.00491098  1
  H  H175  1  0.22730853  0.92011997  0.48994677  1
  H  H176  1  0.21220926  0.74826207  -0.00422890  1
  H  H177  1  0.39663694  0.08230010  -0.00669596  1
  H  H178  1  0.43115726  0.74801216  1.00280125  1
  H  H179  1  0.60181565  0.08321579  0.50844466  1
  H  H180  1  0.85444416  0.57988088  0.98941173  1
  H  H181  1  0.70187827  0.74726663  0.50482355  1
  H  H182  1  0.92720673  0.91906699  -0.00195071  1
  H  H183  1  0.39062510  0.41570883  0.98772630  1
  H  H184  1  0.19760030  0.41605716  0.50776644  1
  H  H185  1  0.78585931  0.08637748  0.50502575  1
  H  H186  1  0.42112331  0.74853495  0.50288271  1
  H  H187  1  0.91809698  0.40775191  0.50465881  1
  H  H188  1  0.17237822  0.91992705  0.99701850  1
  H  H189  1  0.64545735  0.91538179  0.51961274  1
  H  H190  1  0.34062851  0.57762371  0.50556275  1
  H  H191  1  0.07074357  0.92176029  0.49554449  1
  Pb  Pb192  1  0.24954990  0.04657176  0.75426395  1
  Pb  Pb193  1  0.25369341  0.38338110  0.74785898  1
  Pb  Pb194  1  0.24903492  0.71573678  0.75348031  1
  Pb  Pb195  1  0.75101146  0.05206578  0.74087502  1
  Pb  Pb196  1  0.74947286  0.38000739  0.74692604  1
  Pb  Pb197  1  0.74898749  0.71304908  0.74666364  1
  Pb  Pb198  1  0.25336665  0.28333247  0.24442010  1
  Pb  Pb199  1  0.24685156  0.61797745  0.24421774  1
  Pb  Pb200  1  0.25476411  0.95225927  0.25052889  1
  Pb  Pb201  1  0.74685992  0.28693502  0.25733249  1
  Pb  Pb202  1  0.75628999  0.61759679  0.25570438  1
  Pb  Pb203  1  0.74603293  0.95101921  0.25149760  1
  Pb  Pb204  1  0.00778179  0.21657595  0.75289669  1
  Pb  Pb205  1  -0.00050687  0.54712982  0.74372586  1
  Pb  Pb206  1  -0.00425058  0.88274307  0.74149815  1
  Pb  Pb207  1  0.49969855  0.21367980  0.74129733  1
  Pb  Pb208  1  0.50173778  0.54669231  0.75655689  1
  Pb  Pb209  1  0.50250432  0.88161292  0.75649676  1
  Pb  Pb210  1  -0.00172214  0.11814313  0.25396252  1
  Pb  Pb211  1  0.00486833  0.44921294  0.25597834  1
  Pb  Pb212  1  0.00226235  0.78827273  0.24111354  1
  Pb  Pb213  1  0.50109642  0.12040746  0.25096643  1
  Pb  Pb214  1  0.50220308  0.45388624  0.24196346  1
  Pb  Pb215  1  0.50096363  0.78013787  0.25786852  1
  C  C216  1  0.00727600  0.04590437  0.63032851  1
  C  C217  1  0.00651055  0.37871243  0.63571711  1
  C  C218  1  0.00065390  0.71335560  0.63255001  1
  C  C219  1  0.49816213  0.04656067  0.63126383  1
  C  C220  1  0.49634335  0.37842110  0.62892482  1
  C  C221  1  0.50200362  0.70991811  0.63397621  1
  C  C222  1  -0.00182421  0.28863365  0.13233434  1
  C  C223  1  -0.00303336  0.61874154  0.13139165  1
  C  C224  1  0.00015453  0.95474775  0.13323879  1
  C  C225  1  0.49962048  0.28625728  0.12742466  1
  C  C226  1  0.49922367  0.62011865  0.13116703  1
  C  C227  1  0.50060807  0.95577220  0.12872046  1
  C  C228  1  -0.00695105  0.04481307  0.86613783  1
  C  C229  1  -0.00719068  0.37879680  0.87120616  1
  C  C230  1  -0.00436750  0.71190426  0.86679247  1
  C  C231  1  0.50085607  0.04697768  0.87032341  1
  C  C232  1  0.49615419  0.37822126  0.86822678  1
  C  C233  1  0.49308136  0.71088022  0.86663816  1
  C  C234  1  0.00403770  0.28473550  0.36677525  1
  C  C235  1  -0.00221710  0.62221880  0.36492957  1
  C  C236  1  -0.00147303  0.95564464  0.36598024  1
  C  C237  1  0.49737294  0.28910813  0.37080881  1
  C  C238  1  0.50358285  0.61827118  0.37142715  1
  C  C239  1  0.49661716  0.95569031  0.37242328  1
  C  C240  1  0.26249351  0.21050596  0.62908775  1
  C  C241  1  0.24935662  0.54579993  0.62912432  1
  C  C242  1  0.25072812  0.87865540  0.62905121  1
  C  C243  1  0.74909934  0.21387912  0.62955843  1
  C  C244  1  0.75067440  0.54603465  0.63126082  1
  C  C245  1  0.75456851  0.88246176  0.63370365  1
  C  C246  1  0.24890830  0.12147050  0.13596000  1
  C  C247  1  0.25458838  0.45496780  0.13038737  1
  C  C248  1  0.25082990  0.78855636  0.13235907  1
  C  C249  1  0.75373714  0.12178913  0.13271856  1
  C  C250  1  0.75788076  0.45410751  0.13161796  1
  C  C251  1  0.75263873  0.78799162  0.13138056  1
  C  C252  1  0.24819581  0.21212857  0.86884363  1
  C  C253  1  0.25149364  0.54616898  0.87222697  1
  C  C254  1  0.24698293  0.87943274  0.86528622  1
  C  C255  1  0.75004382  0.21263266  0.87095434  1
  C  C256  1  0.75015410  0.54545500  0.87175957  1
  C  C257  1  0.74900655  0.88054765  0.87086956  1
  C  C258  1  0.24823023  0.12041432  0.37293087  1
  C  C259  1  0.25012987  0.45379233  0.36723463  1
  C  C260  1  0.25357906  0.78630098  0.36832814  1
  C  C261  1  0.74766141  0.12479015  0.36732815  1
  C  C262  1  0.75465604  0.45590474  0.36814368  1
  C  C263  1  0.74724310  0.78615276  0.36483458  1
  C  C264  1  0.51863223  0.41033598  0.96294061  1
  C  C265  1  0.23407530  0.42613387  0.03344729  1
  C  C266  1  0.30902739  0.42928403  0.45506449  1
  C  C267  1  0.81288173  0.23967654  0.54335774  1
  C  C268  1  0.72206327  0.75697312  0.03858204  1
  C  C269  1  0.95534259  0.59026353  0.03960135  1
  C  C270  1  0.04171399  0.40242676  0.54004777  1
  C  C271  1  0.47392518  0.07430737  0.53507046  1
  C  C272  1  0.92765199  0.06869211  0.95152218  1
  C  C273  1  0.55494892  0.07287362  0.54223194  1
  C  C274  1  0.31478151  0.43022355  0.04281460  1
  C  C275  1  0.55300606  0.40321651  0.53934669  1
  C  C276  1  0.21164815  0.90814456  0.95793510  1
  C  C277  1  0.21800137  0.57471250  0.53453465  1
  C  C278  1  0.81282557  0.42715008  0.04423246  1
  C  C279  1  0.47187850  0.40613706  0.53265655  1
  C  C280  1  0.78076385  0.91266342  0.96537844  1
  C  C281  1  0.94559599  0.26210043  0.04273250  1
  C  C282  1  0.18918554  0.09444742  0.46141306  1
  C  C283  1  0.77089486  0.90488791  0.53495675  1
  C  C284  1  0.73016505  0.75900402  0.46102513  1
  C  C285  1  0.22980046  0.09231940  0.04063361  1
  C  C286  1  0.32487296  0.90796629  0.54954173  1
  C  C287  1  0.95587035  0.92461939  0.45678237  1
  C  C288  1  0.00735575  0.07238855  0.96431880  1
  C  C289  1  0.51988432  0.58524912  0.46626592  1
  C  C290  1  0.55529717  0.92813759  0.03932997  1
  C  C291  1  0.27008354  0.09100838  0.46883169  1
  C  C292  1  0.46581212  0.73804425  0.96140584  1
  C  C293  1  0.44395291  0.07329467  0.95936025  1
  C  C294  1  0.06986017  0.07541066  0.54511165  1
  C  C295  1  0.73257952  0.24257836  0.53253197  1
  C  C296  1  0.69043964  0.23872570  0.95700281  1
  C  C297  1  0.01885978  0.74003653  0.96280385  1
  C  C298  1  0.98150654  0.59440138  0.46086513  1
  C  C299  1  0.27911182  0.57623266  0.96811475  1
  C  C300  1  0.02003023  0.41111015  0.96621976  1
  C  C301  1  0.51538030  0.25682952  0.46558075  1
  C  C302  1  0.52493763  0.07522972  0.96630540  1
  C  C303  1  0.72850520  0.57708648  0.96803622  1
  C  C304  1  0.53504459  0.58858349  0.03950467  1
  C  C305  1  0.96582150  0.92864840  0.03764191  1
  C  C306  1  0.80270939  0.09427922  0.04329892  1
  C  C307  1  0.45910134  0.73905597  0.54262944  1
  C  C308  1  0.02675955  0.26052147  0.03625636  1
  C  C309  1  0.04718927  0.92898548  0.04148710  1
  C  C310  1  0.95982576  0.40091492  0.54271499  1
  C  C311  1  0.22850218  0.42702664  0.46479163  1
  N  N312  1  0.47623274  0.92540905  0.03486765  1
  N  N313  1  0.45781279  0.58921311  0.03844810  1
  N  N314  1  0.26755851  0.75733510  0.46259108  1
  N  N315  1  0.68515175  0.09735035  0.45219972  1
  N  N316  1  0.22941252  0.24332688  0.96165150  1
  N  N317  1  0.05988322  0.59502519  0.45159776  1
  N  N318  1  0.94719788  0.26401063  0.45606030  1
  N  N319  1  0.94175957  0.40715517  0.95929424  1
  N  N320  1  0.30003339  0.23998754  0.53888862  1
  N  N321  1  0.03348738  0.59021953  0.03647463  1
  N  N322  1  0.69306801  0.90501199  0.54800075  1
  N  N323  1  0.53545293  0.92752026  0.46561788  1
  N  N324  1  0.54497165  0.73819740  0.95727018  1
  N  N325  1  0.69278448  0.57042380  0.54298678  1
  N  N326  1  0.80652166  0.57349413  0.95811998  1
  N  N327  1  0.29744426  0.57326955  0.53978925  1
  N  N328  1  0.44326241  0.58892716  0.45825345  1
  N  N329  1  0.43855895  0.25978177  0.45795360  1
  N  N330  1  0.03957169  0.74213749  0.53964385  1
  N  N331  1  0.24833079  0.91234502  0.53460029  1
  N  N332  1  0.80138107  0.75841745  0.04048737  1
  N  N333  1  0.73603829  0.42543501  0.03428247  1
  N  N334  1  0.30688093  0.24004187  0.95568760  1
  N  N335  1  0.72405731  0.09109042  0.03745176  1
  N  N336  1  0.30822499  0.09423088  0.04855722  1
  N  N337  1  0.70196927  0.90998694  0.96004245  1
  N  N338  1  0.43977440  0.40743803  0.95430369  1
  N  N339  1  0.03556222  0.92368942  0.45666721  1
  N  N340  1  0.80853416  0.76224568  0.45280972  1
  N  N341  1  0.20072914  0.57275665  0.96086942  1
  N  N342  1  0.68864942  0.42710403  0.45101152  1
  N  N343  1  0.76659757  0.24355620  0.96833273  1
  N  N344  1  0.77024041  0.57377032  0.53737592  1
  N  N345  1  0.99174279  0.07837579  0.53623482  1
  N  N346  1  0.76188241  0.09383776  0.46106823  1
  N  N347  1  0.76519475  0.42353083  0.46165386  1
  N  N348  1  0.31385946  0.75930209  0.04784288  1
  N  N349  1  0.22178231  0.24032994  0.53690226  1
  N  N350  1  0.45680862  0.92804161  0.46322642  1
  N  N351  1  0.47891223  0.25623506  0.03141834  1
  N  N352  1  0.02468815  0.26256502  0.46257725  1
  N  N353  1  0.23670256  0.75655618  0.03902088  1
  N  N354  1  0.55589341  0.25925025  0.04188708  1
  N  N355  1  0.96328720  0.74150552  0.53912564  1
  N  N356  1  0.94021136  0.74047318  0.95319243  1
  N  N357  1  0.29094664  0.90753331  0.95814589  1
  N  N358  1  0.19050238  0.76099054  0.45424714  1
  N  N359  1  0.53890582  0.73930068  0.54216858  1
  N  N360  1  0.07968529  0.05652994  0.60380667  1
  N  N361  1  0.06948564  0.38875515  0.59815770  1
  N  N362  1  0.06426337  0.72497671  0.59755166  1
  N  N363  1  0.56860320  0.05545447  0.60310952  1
  N  N364  1  0.56665358  0.38592315  0.60025941  1
  N  N365  1  0.56510019  0.71778200  0.59765253  1
  N  N366  1  0.44411586  0.27298402  0.08499643  1
  N  N367  1  0.43513351  0.60912567  0.09693250  1
  N  N368  1  0.44186022  0.94382819  0.08959767  1
  N  N369  1  0.92891574  0.27865969  0.10080259  1
  N  N370  1  0.93118961  0.60694831  0.09737601  1
  N  N371  1  0.93762198  0.94467450  0.09604008  1
  N  N372  1  0.43040160  0.05567210  0.89848413  1
  N  N373  1  0.42656436  0.38683204  0.89637131  1
  N  N374  1  0.43244312  0.72198664  0.90603074  1
  N  N375  1  0.91928553  0.05245916  0.89201346  1
  N  N376  1  0.92434301  0.38680743  0.90090154  1
  N  N377  1  0.92626039  0.72280600  0.89419150  1
  N  N378  1  0.06078330  0.27197924  0.40763981  1
  N  N379  1  0.06802854  0.61234925  0.39179779  1
  N  N380  1  0.06169464  0.94637928  0.40176798  1
  N  N381  1  0.55363300  0.27456406  0.41332689  1
  N  N382  1  0.55917897  0.60339594  0.41442169  1
  N  N383  1  0.55924181  0.94363490  0.40858212  1
  N  N384  1  0.32603528  0.22082592  0.59398566  1
  N  N385  1  0.31635042  0.55423407  0.59751932  1
  N  N386  1  0.32623449  0.88886906  0.60863293  1
  N  N387  1  0.82164736  0.22199505  0.60463284  1
  N  N388  1  0.80739482  0.55970257  0.59073592  1
  N  N389  1  0.80959773  0.89100966  0.58826762  1
  N  N390  1  0.19191840  0.10898545  0.09397662  1
  N  N391  1  0.19756501  0.44187137  0.08928897  1
  N  N392  1  0.19681402  0.77664842  0.08915248  1
  N  N393  1  0.69513795  0.10842412  0.09354220  1
  N  N394  1  0.70198140  0.44275507  0.08999726  1
  N  N395  1  0.69090675  0.77473100  0.09392748  1
  N  N396  1  0.19177080  0.22496569  0.90991654  1
  N  N397  1  0.18300161  0.55388611  0.90193059  1
  N  N398  1  0.18313793  0.89109247  0.90135157  1
  N  N399  1  0.67766881  0.22028762  0.89747962  1
  N  N400  1  0.69333216  0.55958951  0.91460724  1
  N  N401  1  0.68192563  0.88943384  0.90211137  1
  N  N402  1  0.30541364  0.10675071  0.41563491  1
  N  N403  1  0.32148970  0.44522584  0.39620517  1
  N  N404  1  0.30784576  0.77518374  0.41158744  1
  N  N405  1  0.80154007  0.11320075  0.41073314  1
  N  N406  1  0.80704828  0.44406607  0.41256423  1
  N  N407  1  0.81726701  0.77869664  0.39295708  1
  N  N408  1  0.42735417  0.28024805  0.39784347  1
  N  N409  1  0.43308177  0.60977173  0.39795231  1
  N  N410  1  0.43241343  0.94619979  0.40711427  1
  N  N411  1  0.93481467  0.27906219  0.39708718  1
  N  N412  1  0.94190347  0.61036443  0.40802326  1
  N  N413  1  0.93250430  0.94302959  0.40012255  1
  N  N414  1  0.04740192  0.05708319  0.90961320  1
  N  N415  1  0.05213929  0.39347740  0.91173639  1
  N  N416  1  0.05367090  0.72296644  0.90904113  1
  N  N417  1  0.55921092  0.05939514  0.91278107  1
  N  N418  1  0.55408729  0.39250662  0.90960188  1
  N  N419  1  0.55996868  0.72115760  0.89808105  1
  N  N420  1  0.05868996  0.27744529  0.09330582  1
  N  N421  1  0.05907197  0.60851647  0.09494610  1
  N  N422  1  0.06766843  0.94451574  0.09935707  1
  N  N423  1  0.56951074  0.27759579  0.09994329  1
  N  N424  1  0.56337208  0.60718141  0.09522699  1
  N  N425  1  0.57024233  0.94572317  0.09790182  1
  N  N426  1  0.43999028  0.05855918  0.58872583  1
  N  N427  1  0.43796646  0.39117579  0.58666111  1
  N  N428  1  0.43603889  0.72271905  0.60005806  1
  N  N429  1  0.95237176  0.05732694  0.58786923  1
  N  N430  1  0.93933594  0.38633911  0.60247854  1
  N  N431  1  0.93764701  0.72360518  0.59657744  1
  N  N432  1  0.17717150  0.11234134  0.40023187  1
  N  N433  1  0.19235456  0.44252706  0.40873252  1
  N  N434  1  0.18234581  0.77718077  0.39485780  1
  N  N435  1  0.67657872  0.11479088  0.39355832  1
  N  N436  1  0.68267168  0.44508781  0.39237546  1
  N  N437  1  0.69072470  0.77361096  0.40742669  1
  N  N438  1  0.31793944  0.22150843  0.89739400  1
  N  N439  1  0.31096414  0.55980663  0.91322242  1
  N  N440  1  0.31110158  0.88966764  0.89991823  1
  N  N441  1  0.80391409  0.22674614  0.91337509  1
  N  N442  1  0.82029288  0.55385347  0.89881613  1
  N  N443  1  0.81020989  0.89457563  0.90999257  1
  N  N444  1  0.31860828  0.11219068  0.10798518  1
  N  N445  1  0.32658975  0.44743002  0.10182782  1
  N  N446  1  0.32189669  0.77761511  0.10655859  1
  N  N447  1  0.82236058  0.11267674  0.10169476  1
  N  N448  1  0.82877169  0.44386576  0.10371277  1
  N  N449  1  0.81882288  0.77763613  0.09912260  1
  N  N450  1  0.19919940  0.22278682  0.59349650  1
  N  N451  1  0.18790422  0.55854143  0.59038657  1
  N  N452  1  0.20167506  0.89092761  0.58267396  1
  N  N453  1  0.69428659  0.22693352  0.58457396  1
  N  N454  1  0.68113645  0.55324532  0.60165482  1
  N  N455  1  0.68340267  0.89291784  0.60910163  1
  Cl  Cl456  1  0.25988397  0.04963391  0.62130345  1
  Cl  Cl457  1  0.25332853  0.38843089  0.61421389  1
  Cl  Cl458  1  0.25278008  0.72530004  0.61219420  1
  Cl  Cl459  1  0.76945339  0.06195344  0.59931679  1
  Cl  Cl460  1  0.75750703  0.39581922  0.60978285  1
  Cl  Cl461  1  0.74927095  0.72324645  0.61089372  1
  Cl  Cl462  1  0.24886253  0.27561360  0.10679311  1
  Cl  Cl463  1  0.24505925  0.61002380  0.10866594  1
  Cl  Cl464  1  0.25363369  0.94417564  0.11829852  1
  Cl  Cl465  1  0.74736736  0.28406920  0.12708271  1
  Cl  Cl466  1  0.74847189  0.60954462  0.12244228  1
  Cl  Cl467  1  0.75135630  0.94356753  0.11883820  1
  Cl  Cl468  1  0.23330649  0.05804760  0.88857926  1
  Cl  Cl469  1  0.23833839  0.38796240  0.88309890  1
  Cl  Cl470  1  0.23988666  0.72261455  0.89523421  1
  Cl  Cl471  1  0.73803018  0.04840993  0.87121359  1
  Cl  Cl472  1  0.74065513  0.38689294  0.87759963  1
  Cl  Cl473  1  0.74385683  0.71674191  0.88059316  1
  Cl  Cl474  1  0.24336625  0.27858629  0.37909174  1
  Cl  Cl475  1  0.25147170  0.61222479  0.37832722  1
  Cl  Cl476  1  0.24556062  0.94007082  0.39544740  1
  Cl  Cl477  1  0.74401752  0.27781118  0.39219129  1
  Cl  Cl478  1  0.75398004  0.60779769  0.39620690  1
  Cl  Cl479  1  0.74548886  0.94516751  0.38904758  1
  Cl  Cl480  1  0.01702850  0.22164477  0.61131380  1
  Cl  Cl481  1  -0.00645478  0.55774737  0.60783269  1
  Cl  Cl482  1  0.01071811  0.89732104  0.59929615  1
  Cl  Cl483  1  0.50812147  0.22199068  0.60627115  1
  Cl  Cl484  1  0.49837131  0.55122298  0.62211895  1
  Cl  Cl485  1  0.50344405  0.88297872  0.62370064  1
  Cl  Cl486  1  0.00882412  0.11223929  0.12091403  1
  Cl  Cl487  1  0.01158249  0.44313088  0.12212947  1
  Cl  Cl488  1  0.01067513  0.77606973  0.10434125  1
  Cl  Cl489  1  0.50900820  0.11072427  0.11798415  1
  Cl  Cl490  1  0.51542850  0.44495589  0.10654792  1
  Cl  Cl491  1  0.50572519  0.78256018  0.12481814  1
  Cl  Cl492  1  0.00569252  0.22643859  0.88854772  1
  Cl  Cl493  1  0.00163648  0.54883143  0.87618399  1
  Cl  Cl494  1  -0.00437320  0.88739030  0.87539091  1
  Cl  Cl495  1  0.49906216  0.21833416  0.87247494  1
  Cl  Cl496  1  0.50308674  0.55353327  0.88839772  1
  Cl  Cl497  1  0.49632845  0.89254356  0.89300175  1
  Cl  Cl498  1  -0.01839052  0.10725388  0.39780823  1
  Cl  Cl499  1  -0.00473592  0.43918792  0.39187747  1
  Cl  Cl500  1  0.00070556  0.78719668  0.36993345  1
  Cl  Cl501  1  0.48976535  0.11405342  0.38472637  1
  Cl  Cl502  1  0.50235072  0.45264805  0.37113995  1
  Cl  Cl503  1  0.49924799  0.77140903  0.40058089  1
  Cl  Cl504  1  0.36038320  0.14793766  0.75685856  1
  Cl  Cl505  1  0.35563978  0.48147398  0.75350747  1
  Cl  Cl506  1  0.36693843  0.81246298  0.74712279  1
  Cl  Cl507  1  0.86128272  0.14484537  0.74840748  1
  Cl  Cl508  1  0.86364321  0.47919030  0.75453389  1
  Cl  Cl509  1  0.85854931  0.81561695  0.75167213  1
  Cl  Cl510  1  0.13618569  0.18526947  0.25888659  1
  Cl  Cl511  1  0.14188648  0.51746193  0.25041398  1
  Cl  Cl512  1  0.14054616  0.85333407  0.25164122  1
  Cl  Cl513  1  0.64240254  0.18223861  0.25126995  1
  Cl  Cl514  1  0.63848950  0.52050773  0.25306235  1
  Cl  Cl515  1  0.64380925  0.85256859  0.24967903  1
  Cl  Cl516  1  0.14279919  0.14947030  0.73878484  1
  Cl  Cl517  1  0.13805265  0.48190922  0.74605963  1
  Cl  Cl518  1  0.14589917  0.81502599  0.74799265  1
  Cl  Cl519  1  0.64254221  0.14974829  0.74530159  1
  Cl  Cl520  1  0.64326280  0.48426553  0.74691529  1
  Cl  Cl521  1  0.63799948  0.81443839  0.74776482  1
  Cl  Cl522  1  0.35607874  0.18609795  0.24764579  1
  Cl  Cl523  1  0.36408543  0.52046710  0.24672669  1
  Cl  Cl524  1  0.35917482  0.85448473  0.25113356  1
  Cl  Cl525  1  0.86360403  0.18868399  0.25142561  1
  Cl  Cl526  1  0.85899194  0.52205012  0.25097258  1
  Cl  Cl527  1  0.86299676  0.85339138  0.25065062  1
  Cl  Cl528  1  0.10552200  0.31433929  0.75416437  1
  Cl  Cl529  1  0.11134777  0.64869594  0.75058545  1
  Cl  Cl530  1  0.10861432  0.98284644  0.74782200  1
  Cl  Cl531  1  0.60785980  0.31709275  0.74563963  1
  Cl  Cl532  1  0.60959406  0.64871303  0.75026031  1
  Cl  Cl533  1  0.61195170  0.98172537  0.73930788  1
  Cl  Cl534  1  0.38994508  0.01892324  0.24664958  1
  Cl  Cl535  1  0.38827321  0.35320764  0.24767899  1
  Cl  Cl536  1  0.38916151  0.68997834  0.25152521  1
  Cl  Cl537  1  0.89000176  0.01864033  0.25105930  1
  Cl  Cl538  1  0.88239014  0.35480421  0.25037153  1
  Cl  Cl539  1  0.89085428  0.68692839  0.24485997  1
  Cl  Cl540  1  0.38924349  0.31531005  0.75180524  1
  Cl  Cl541  1  0.38835348  0.64697909  0.74674768  1
  Cl  Cl542  1  0.38923019  0.98067356  0.75717404  1
  Cl  Cl543  1  0.88616230  0.31136075  0.74491528  1
  Cl  Cl544  1  0.88813343  0.64765840  0.75577580  1
  Cl  Cl545  1  0.88809747  0.97763144  0.74664799  1
  Cl  Cl546  1  0.10992759  0.01867453  0.25566087  1
  Cl  Cl547  1  0.10335766  0.35104274  0.25210327  1
  Cl  Cl548  1  0.11242782  0.68631323  0.25217852  1
  Cl  Cl549  1  0.60724676  0.01642143  0.25592482  1
  Cl  Cl550  1  0.60703866  0.35040550  0.24970532  1
  Cl  Cl551  1  0.60776306  0.68704958  0.25443714  1
