# generated using pymatgen
data_H8PbC4(N3Cl2)2
_symmetry_space_group_name_H-M   'P 1'
_cell_length_a   16.63602513
_cell_length_b   22.52667458
_cell_length_c   21.59722584
_cell_angle_alpha   90.00107133
_cell_angle_beta   90.00689287
_cell_angle_gamma   89.99278511
_symmetry_Int_Tables_number   1
_chemical_formula_structural   H8PbC4(N3Cl2)2
_chemical_formula_sum   'H192 Pb24 C96 N144 Cl96'
_cell_volume   8093.65365231
_cell_formula_units_Z   24
loop_
 _symmetry_equiv_pos_site_id
 _symmetry_equiv_pos_as_xyz
  1  'x, y, z'
loop_
 _atom_site_type_symbol
 _atom_site_label
 _atom_site_symmetry_multiplicity
 _atom_site_fract_x
 _atom_site_fract_y
 _atom_site_fract_z
 _atom_site_occupancy
  H  H0  1  -0.01625336  0.02870195  0.67785225  1
  H  H1  1  0.00063858  0.36384965  0.67900679  1
  H  H2  1  0.01968055  0.69564289  0.67692127  1
  H  H3  1  0.50759699  0.03004963  0.67645998  1
  H  H4  1  0.50601750  0.35987394  0.67197890  1
  H  H5  1  0.47885792  0.69786658  0.67495029  1
  H  H6  1  -0.01621716  0.30906104  0.17395968  1
  H  H7  1  -0.00225680  0.63676050  0.18088220  1
  H  H8  1  0.02140533  0.97016316  0.17485449  1
  H  H9  1  0.51672666  0.30290299  0.17945475  1
  H  H10  1  0.51914865  0.62981038  0.15137217  1
  H  H11  1  0.48236509  0.97219665  0.17354208  1
  H  H12  1  -0.01344192  0.02815963  0.82245287  1
  H  H13  1  0.00467586  0.36071013  0.82885636  1
  H  H14  1  -0.01822609  0.69284448  0.82583831  1
  H  H15  1  0.51733418  0.02263803  0.82627811  1
  H  H16  1  0.51001780  0.36526897  0.82414087  1
  H  H17  1  0.51058151  0.68877579  0.82243435  1
  H  H18  1  -0.00902859  0.30791639  0.32540241  1
  H  H19  1  0.02087798  0.63289462  0.32547796  1
  H  H20  1  -0.00429532  0.97233069  0.32118487  1
  H  H21  1  0.50814945  0.30548595  0.32080300  1
  H  H22  1  0.47925186  0.63613559  0.31882412  1
  H  H23  1  0.49323913  0.96847596  0.31651677  1
  H  H24  1  0.22747756  0.19668747  0.67319781  1
  H  H25  1  0.25719042  0.52492542  0.68360156  1
  H  H26  1  0.25826436  0.86620956  0.67794064  1
  H  H27  1  0.76472199  0.19391392  0.67571644  1
  H  H28  1  0.74815354  0.52789233  0.67417592  1
  H  H29  1  0.73791493  0.85754052  0.67889057  1
  H  H30  1  0.26106834  0.13978004  0.17035044  1
  H  H31  1  0.25316383  0.47656443  0.17926265  1
  H  H32  1  0.26389649  0.80584291  0.17845554  1
  H  H33  1  0.74892907  0.13869495  0.18177983  1
  H  H34  1  0.74439587  0.46814403  0.17913350  1
  H  H35  1  0.73627634  0.79054617  0.18795173  1
  H  H36  1  0.24341043  0.19480727  0.82333189  1
  H  H37  1  0.24601733  0.52204841  0.82300425  1
  H  H38  1  0.24720744  0.85788402  0.82606834  1
  H  H39  1  0.75290702  0.19942393  0.81603156  1
  H  H40  1  0.72249295  0.52890886  0.84051444  1
  H  H41  1  0.74039934  0.86787169  0.82082339  1
  H  H42  1  0.26402142  0.13722864  0.32538881  1
  H  H43  1  0.24369251  0.46450752  0.32090500  1
  H  H44  1  0.24524784  0.80862187  0.31623857  1
  H  H45  1  0.74374834  0.13689077  0.32071484  1
  H  H46  1  0.75113602  0.47014355  0.32009455  1
  H  H47  1  0.76526420  0.80438013  0.32326720  1
  H  H48  1  0.11887197  0.05259062  0.61862564  1
  H  H49  1  0.11353366  0.38883397  0.59836272  1
  H  H50  1  0.11684932  0.72628097  0.58699927  1
  H  H51  1  0.61799732  0.05995473  0.59551473  1
  H  H52  1  0.61261953  0.39329913  0.59200656  1
  H  H53  1  0.62467422  0.71609816  0.63128000  1
  H  H54  1  0.37256902  0.28792742  0.13220072  1
  H  H55  1  0.41350122  0.59943983  0.06958164  1
  H  H56  1  0.37257921  0.94049254  0.09291260  1
  H  H57  1  0.87844710  0.27600208  0.09118723  1
  H  H58  1  0.89065134  0.61354009  0.09920814  1
  H  H59  1  0.88015237  0.95195577  0.12805695  1
  H  H60  1  0.37661684  0.04646951  0.87802952  1
  H  H61  1  0.37137374  0.38286741  0.87528429  1
  H  H62  1  0.37822884  0.71868251  0.87970397  1
  H  H63  1  0.88181550  0.05610245  0.90644853  1
  H  H64  1  0.86626730  0.38511769  0.88267827  1
  H  H65  1  0.88438803  0.72494497  0.91515137  1
  H  H66  1  0.12962381  0.28430769  0.37887072  1
  H  H67  1  0.11426872  0.60122111  0.41654360  1
  H  H68  1  0.12944954  0.95102500  0.38328600  1
  H  H69  1  0.63252875  0.27719472  0.39203167  1
  H  H70  1  0.62194714  0.61936872  0.37012918  1
  H  H71  1  0.63096399  0.94657531  0.37375543  1
  H  H72  1  0.36803310  0.21150304  0.62442913  1
  H  H73  1  0.37691696  0.55349615  0.60977307  1
  H  H74  1  0.36490451  0.89320465  0.59559223  1
  H  H75  1  0.86830138  0.22495772  0.59159814  1
  H  H76  1  0.87711296  0.55476192  0.60903246  1
  H  H77  1  0.86794982  0.88464210  0.61423240  1
  H  H78  1  0.12499652  0.11467048  0.11412209  1
  H  H79  1  0.13584145  0.44402498  0.10481766  1
  H  H80  1  0.12427182  0.78538329  0.12302008  1
  H  H81  1  0.62287202  0.11221450  0.11487735  1
  H  H82  1  0.63557214  0.44287444  0.09581393  1
  H  H83  1  0.62109954  0.77602686  0.10767995  1
  H  H84  1  0.13047925  0.22741298  0.90183682  1
  H  H85  1  0.11436744  0.54891647  0.88473343  1
  H  H86  1  0.12775037  0.88910078  0.89779775  1
  H  H87  1  0.62682202  0.22094672  0.88417634  1
  H  H88  1  0.58542631  0.55119398  0.89735385  1
  H  H89  1  0.62149781  0.89078910  0.89683647  1
  H  H90  1  0.37858521  0.10998798  0.40294950  1
  H  H91  1  0.38117999  0.44633503  0.37793376  1
  H  H92  1  0.37492711  0.78076433  0.37855969  1
  H  H93  1  0.88044189  0.11773502  0.38033729  1
  H  H94  1  0.88439591  0.44795274  0.38150701  1
  H  H95  1  0.87623641  0.77583223  0.40260649  1
  H  H96  1  0.38407713  0.27793993  0.39220599  1
  H  H97  1  0.37859613  0.60451210  0.40505204  1
  H  H98  1  0.38471158  0.94430258  0.39904321  1
  H  H99  1  0.88420751  0.27443987  0.40630588  1
  H  H100  1  0.87547186  0.62061319  0.37253882  1
  H  H101  1  0.88144718  0.94337106  0.39833416  1
  H  H102  1  0.12756124  0.04702970  0.87571646  1
  H  H103  1  0.11208025  0.39514239  0.90765573  1
  H  H104  1  0.12510010  0.71780855  0.87177748  1
  H  H105  1  0.62038926  0.05674533  0.91053089  1
  H  H106  1  0.61565282  0.39284384  0.90700793  1
  H  H107  1  0.62568006  0.71684901  0.90121030  1
  H  H108  1  0.12293424  0.28250308  0.12184805  1
  H  H109  1  0.13668778  0.61799951  0.12752249  1
  H  H110  1  0.12268191  0.93968156  0.09012380  1
  H  H111  1  0.61540316  0.27860288  0.09201610  1
  H  H112  1  0.65805232  0.61371760  0.09966897  1
  H  H113  1  0.61890233  0.94840674  0.11851849  1
  H  H114  1  0.37165798  0.05274104  0.61718188  1
  H  H115  1  0.36712137  0.37997489  0.61717003  1
  H  H116  1  0.38421001  0.73104127  0.58568544  1
  H  H117  1  0.87157139  0.06016175  0.60009647  1
  H  H118  1  0.86587330  0.38549427  0.61905041  1
  H  H119  1  0.87556884  0.71744572  0.63009751  1
  H  H120  1  0.13113307  0.12032098  0.38511549  1
  H  H121  1  0.13509268  0.44034091  0.40427877  1
  H  H122  1  0.12617080  0.77766857  0.38990168  1
  H  H123  1  0.63316545  0.10773803  0.40062814  1
  H  H124  1  0.63645338  0.44137132  0.39850298  1
  H  H125  1  0.63031393  0.78499609  0.37872435  1
  H  H126  1  0.37725345  0.21586765  0.88343501  1
  H  H127  1  0.36236157  0.55447667  0.89716909  1
  H  H128  1  0.37626384  0.88565971  0.89032112  1
  H  H129  1  0.87655259  0.22302165  0.88531246  1
  H  H130  1  0.83327741  0.55870292  0.91824493  1
  H  H131  1  0.86926800  0.88954000  0.88827629  1
  H  H132  1  0.37124886  0.10358898  0.09316708  1
  H  H133  1  0.38443618  0.45217357  0.11535692  1
  H  H134  1  0.36960529  0.77546163  0.09565931  1
  H  H135  1  0.87221996  0.11017039  0.11120698  1
  H  H136  1  0.88183656  0.44927672  0.12215126  1
  H  H137  1  0.86871627  0.78550603  0.12095900  1
  H  H138  1  0.12532013  0.22727363  0.58840987  1
  H  H139  1  0.12790085  0.54756548  0.61908369  1
  H  H140  1  0.11870502  0.88687083  0.62346704  1
  H  H141  1  0.62442257  0.21561840  0.62453985  1
  H  H142  1  0.62826555  0.55361504  0.60135211  1
  H  H143  1  0.61928442  0.88743104  0.60487079  1
  H  H144  1  0.38554049  0.41416487  -0.00922033  1
  H  H145  1  0.64439509  0.25751075  0.52147165  1
  H  H146  1  0.78872105  0.24085887  0.49285500  1
  H  H147  1  0.67817347  0.91525052  1.00076787  1
  H  H148  1  0.95826690  0.57968817  -0.00537283  1
  H  H149  1  0.69473074  0.74276002  0.01114615  1
  H  H150  1  0.02472557  0.57674816  0.51084836  1
  H  H151  1  0.85227356  0.41753981  0.49284273  1
  H  H152  1  0.35659483  0.24681069  0.50988568  1
  H  H153  1  0.82193595  0.74981555  0.01949560  1
  H  H154  1  0.88993368  0.91610028  1.01441918  1
  H  H155  1  0.45545872  0.91638793  0.50345724  1
  H  H156  1  0.41119336  0.75503842  0.99100646  1
  H  H157  1  0.95778210  0.25025790  -0.00751399  1
  H  H158  1  0.97144563  0.75493772  1.00832689  1
  H  H159  1  0.56086708  0.73805861  1.00415645  1
  H  H160  1  0.14070359  0.91671241  0.51496668  1
  H  H161  1  0.18411519  0.75603639  0.49484562  1
  H  H162  1  0.94411446  0.91395819  0.50392425  1
  H  H163  1  0.53561689  0.25390642  -0.01177430  1
  H  H164  1  0.67910463  0.58843420  0.49474457  1
  H  H165  1  0.82018665  0.08963937  0.00429254  1
  H  H166  1  0.77323767  0.58968660  1.02460585  1
  H  H167  1  0.15953337  0.08902264  0.49913765  1
  H  H168  1  0.33673086  0.74546921  0.48854000  1
  H  H169  1  0.53877092  0.08252859  1.00826519  1
  H  H170  1  0.95846455  0.24785425  0.50665066  1
  H  H171  1  0.88844207  0.41713259  0.99216642  1
  H  H172  1  0.11932851  0.58814673  0.01315263  1
  H  H173  1  0.29387437  0.74784693  -0.00775220  1
  H  H174  1  0.82992477  0.25043359  0.99717607  1
  H  H175  1  0.10813919  0.07449052  0.98470849  1
  H  H176  1  0.66722992  0.08394552  0.00346806  1
  H  H177  1  0.45890807  0.57474694  0.50444074  1
  H  H178  1  0.70286157  0.07856955  0.50538886  1
  H  H179  1  0.65233017  0.75280771  0.49371642  1
  H  H180  1  0.29428055  0.92701072  0.49257472  1
  H  H181  1  0.95569338  0.08207649  1.01077421  1
  H  H182  1  0.66961088  0.25329157  0.99441940  1
  H  H183  1  0.54501815  0.08509535  0.49408997  1
  H  H184  1  0.67650564  0.91890615  0.49925658  1
  H  H185  1  0.16701898  0.57725009  0.50718060  1
  H  H186  1  0.34892939  0.25228412  0.99385970  1
  H  H187  1  0.02911683  0.74945669  0.49158200  1
  H  H188  1  0.38830954  0.41280744  0.50777688  1
  H  H189  1  0.47183215  0.75213452  0.48911738  1
  H  H190  1  0.32009700  0.57585637  0.50485694  1
  H  H191  1  0.83713383  0.58612332  0.50391847  1
  Pb  Pb192  1  0.24879097  0.04777386  0.74777675  1
  Pb  Pb193  1  0.24539042  0.38120637  0.75099758  1
  Pb  Pb194  1  0.25127951  0.71775047  0.73624466  1
  Pb  Pb195  1  0.75121614  0.05204475  0.75409160  1
  Pb  Pb196  1  0.74500232  0.38322161  0.74866320  1
  Pb  Pb197  1  0.75078954  0.71332512  0.76787589  1
  Pb  Pb198  1  0.25161911  0.28438287  0.25586105  1
  Pb  Pb199  1  0.25265294  0.61540763  0.25827484  1
  Pb  Pb200  1  0.24909301  0.95173848  0.24584242  1
  Pb  Pb201  1  0.74958624  0.28225845  0.24511680  1
  Pb  Pb202  1  0.75257388  0.61782262  0.24875395  1
  Pb  Pb203  1  0.75115569  0.94972392  0.24795944  1
  Pb  Pb204  1  0.00219200  0.21848888  0.74666838  1
  Pb  Pb205  1  -0.00453421  0.54762737  0.75421586  1
  Pb  Pb206  1  -0.00232699  0.88187825  0.75324954  1
  Pb  Pb207  1  0.49638295  0.21597594  0.75054130  1
  Pb  Pb208  1  0.49820003  0.54749540  0.74185024  1
  Pb  Pb209  1  0.50250199  0.88280552  0.74471696  1
  Pb  Pb210  1  0.00219725  0.11793194  0.24761838  1
  Pb  Pb211  1  0.00332996  0.44975136  0.24913640  1
  Pb  Pb212  1  0.00040226  0.78400406  0.25224321  1
  Pb  Pb213  1  0.49798811  0.11566265  0.25138401  1
  Pb  Pb214  1  0.50411936  0.45151523  0.25060169  1
  Pb  Pb215  1  0.49814338  0.78217727  0.24611041  1
  C  C216  1  -0.00827124  0.04668066  0.63187693  1
  C  C217  1  -0.00646923  0.37911811  0.63192878  1
  C  C218  1  0.00438194  0.71189420  0.63107526  1
  C  C219  1  0.49942053  0.04622795  0.62954286  1
  C  C220  1  0.49467566  0.37679525  0.62582506  1
  C  C221  1  0.49539181  0.71312164  0.62899199  1
  C  C222  1  -0.00542788  0.29043752  0.12836450  1
  C  C223  1  0.00892874  0.62159667  0.13388109  1
  C  C224  1  0.00682463  0.95390587  0.12898189  1
  C  C225  1  0.50160952  0.28982935  0.13249765  1
  C  C226  1  0.53086034  0.61336586  0.10513402  1
  C  C227  1  0.49117091  0.95381300  0.12785294  1
  C  C228  1  -0.00070477  0.04379936  0.86909459  1
  C  C229  1  -0.00630366  0.37858098  0.87460968  1
  C  C230  1  -0.00326179  0.71069786  0.87113442  1
  C  C231  1  0.50532336  0.04066001  0.87189974  1
  C  C232  1  0.49801209  0.37969655  0.87112969  1
  C  C233  1  0.50547758  0.70621739  0.86920174  1
  C  C234  1  0.00155291  0.29085683  0.37147041  1
  C  C235  1  0.00383446  0.61817280  0.37154240  1
  C  C236  1  0.00246226  0.95603312  0.36821377  1
  C  C237  1  0.50841459  0.28814828  0.36768465  1
  C  C238  1  0.49359182  0.62042706  0.36507306  1
  C  C239  1  0.50335979  0.95385462  0.36374708  1
  C  C240  1  0.24125877  0.21199352  0.62686095  1
  C  C241  1  0.25441627  0.54146184  0.63639011  1
  C  C242  1  0.24639982  0.88109009  0.63083696  1
  C  C243  1  0.75222995  0.21116639  0.62959650  1
  C  C244  1  0.75161145  0.54544005  0.62733367  1
  C  C245  1  0.74176620  0.87588446  0.63254253  1
  C  C246  1  0.25208099  0.12031915  0.12519514  1
  C  C247  1  0.25753185  0.45869768  0.13297322  1
  C  C248  1  0.25237334  0.79003331  0.13185565  1
  C  C249  1  0.74866281  0.12216220  0.13445997  1
  C  C250  1  0.75388022  0.45389243  0.13183861  1
  C  C251  1  0.74238728  0.78421144  0.13831335  1
  C  C252  1  0.25020534  0.21194605  0.86987029  1
  C  C253  1  0.24082629  0.54106049  0.86874738  1
  C  C254  1  0.25055770  0.87682871  0.87191924  1
  C  C255  1  0.75209617  0.21432613  0.86386658  1
  C  C256  1  0.71378888  0.54553565  0.88729036  1
  C  C257  1  0.74359802  0.88279330  0.86853754  1
  C  C258  1  0.25719944  0.12253665  0.37284373  1
  C  C259  1  0.25337264  0.45057289  0.36824706  1
  C  C260  1  0.24820677  0.79101111  0.36304876  1
  C  C261  1  0.75272730  0.12069640  0.36750738  1
  C  C262  1  0.75737700  0.45380792  0.36701577  1
  C  C263  1  0.75640198  0.78877016  0.37018460  1
  C  C264  1  0.96837928  0.08172352  0.53907935  1
  C  C265  1  0.54614839  0.92166001  0.04218140  1
  C  C266  1  0.51010285  0.26461638  0.03324280  1
  C  C267  1  0.30645830  0.23816202  0.54125474  1
  C  C268  1  0.80877935  0.42918928  0.04382925  1
  C  C269  1  0.06329580  0.25802034  0.45593739  1
  C  C270  1  0.50955074  0.58075299  0.00828516  1
  C  C271  1  0.70972733  0.24087480  0.95686278  1
  C  C272  1  0.79169805  0.24028296  0.95779970  1
  C  C273  1  0.71602567  0.57686801  0.53457233  1
  C  C274  1  0.43597867  0.40530060  0.95849425  1
  C  C275  1  0.26709505  0.75991806  0.03643075  1
  C  C276  1  0.94072750  0.92516585  0.04472048  1
  C  C277  1  0.30821188  0.42526340  0.45615391  1
  C  C278  1  0.20474527  0.09713923  0.46369177  1
  C  C279  1  0.65707660  0.57226862  0.97617580  1
  C  C280  1  0.28593619  0.09382857  0.46811524  1
  C  C281  1  0.45313337  0.73990292  0.95582337  1
  C  C282  1  0.06984794  0.59648614  0.04668955  1
  C  C283  1  0.98865508  0.59267752  0.03722087  1
  C  C284  1  0.19454625  0.57419769  0.95675768  1
  C  C285  1  0.56869660  0.74010937  0.54813379  1
  C  C286  1  0.29596784  0.75818614  0.45143251  1
  C  C287  1  0.01497286  0.41440240  0.96897870  1
  C  C288  1  0.27324757  0.08182462  0.03337299  1
  C  C289  1  0.48503972  0.92723138  0.45983025  1
  C  C290  1  0.02072164  0.92119520  0.03312853  1
  C  C291  1  0.80619877  0.42656687  0.45642329  1
  C  C292  1  0.30316191  0.42777995  0.04384937  1
  C  C293  1  0.78114089  0.75882074  0.46555705  1
  C  C294  1  0.48447967  0.58910923  0.46040445  1
  C  C295  1  0.51643969  0.40796858  0.96790360  1
  C  C296  1  0.73273326  0.09063152  0.46231046  1
  C  C297  1  0.20708637  0.56979036  0.54618036  1
  C  C298  1  0.21941333  0.91291187  0.96255377  1
  C  C299  1  0.98234365  0.07196056  0.96595251  1
  C  C300  1  0.70016764  0.76163165  0.45929646  1
  C  C301  1  0.51511334  0.41211548  0.53101910  1
  C  C302  1  0.30096340  0.24142134  0.95802417  1
  C  C303  1  0.73967237  0.57609150  0.98367572  1
  C  C304  1  0.43139689  0.26811537  0.04896229  1
  C  C305  1  0.26596739  0.91258264  0.53547645  1
  C  C306  1  0.71227874  0.90725187  0.53959982  1
  C  C307  1  0.59243907  0.58455684  0.01841328  1
  C  C308  1  0.70549156  0.09326618  0.04313595  1
  C  C309  1  0.22624197  0.24315322  0.53037428  1
  C  C310  1  0.97739257  0.92624914  0.46244206  1
  C  C311  1  0.94243292  0.40692267  0.54336645  1
  N  N312  1  0.06685325  0.74451150  0.95018551  1
  N  N313  1  0.04540671  0.07969220  0.54384415  1
  N  N314  1  0.71027633  0.77777476  0.03978710  1
  N  N315  1  0.44149699  0.07517661  0.54297274  1
  N  N316  1  0.98531179  0.25612533  0.46446274  1
  N  N317  1  0.44024396  0.07331430  0.95386062  1
  N  N318  1  0.93384337  0.74057843  0.55002869  1
  N  N319  1  0.73205284  0.42621043  0.03428249  1
  N  N320  1  0.18916981  0.76221432  0.04591114  1
  N  N321  1  0.23145075  0.42298470  0.46588200  1
  N  N322  1  0.71302258  0.90937888  0.96150606  1
  N  N323  1  0.19636920  0.08598147  0.03885937  1
  N  N324  1  0.46937853  0.91853546  0.03295029  1
  N  N325  1  0.68974969  0.23687910  0.54602937  1
  N  N326  1  0.93727550  0.40904061  0.95994662  1
  N  N327  1  0.00592169  0.59053801  0.46706899  1
  N  N328  1  0.01921001  0.40863047  0.53527118  1
  N  N329  1  0.51697923  0.07615488  0.96397632  1
  N  N330  1  0.53239932  0.73857244  0.96204415  1
  N  N331  1  0.29658647  0.91177048  0.96158126  1
  N  N332  1  0.18768953  0.90913706  0.54580787  1
  N  N333  1  0.79127126  0.90766327  0.96018246  1
  N  N334  1  0.47037735  0.26001355  0.46083967  1
  N  N335  1  0.05637413  0.92850602  0.45767358  1
  N  N336  1  0.27183210  0.57689419  0.96191508  1
  N  N337  1  0.79320702  0.78264565  0.04442820  1
  N  N338  1  0.43755071  0.40588095  0.54017305  1
  N  N339  1  0.22613887  0.42431840  0.03918954  1
  N  N340  1  0.56200766  0.59424550  0.44909656  1
  N  N341  1  0.00982649  0.74325536  0.53700312  1
  N  N342  1  0.99096606  0.74670019  0.96352878  1
  N  N343  1  0.93056514  0.59711303  0.45351042  1
  N  N344  1  0.06027740  0.07028677  0.95383621  1
  N  N345  1  0.22253560  0.24563849  0.96449626  1
  N  N346  1  0.21638820  0.75741602  0.45437451  1
  N  N347  1  0.79546195  0.57857102  0.53882553  1
  N  N348  1  0.28654986  0.57344781  0.54455508  1
  N  N349  1  0.51893043  0.07808137  0.53685303  1
  N  N350  1  0.54670298  0.26116494  0.46113061  1
  N  N351  1  0.79129796  0.90659844  0.54234856  1
  N  N352  1  0.98062511  0.25504102  0.03650392  1
  N  N353  1  0.78508263  0.09156446  0.04316598  1
  N  N354  1  0.72735666  0.42377284  0.46239286  1
  N  N355  1  0.05761179  0.25702630  0.04584278  1
  N  N356  1  0.56354755  0.92813049  0.45149343  1
  N  N357  1  0.76764713  0.24767541  0.53730316  1
  N  N358  1  0.49231434  0.74448516  0.53362626  1
  N  N359  1  0.81140438  0.09324141  0.45541283  1
  N  N360  1  0.06008378  0.05789602  0.60325711  1
  N  N361  1  0.05136210  0.39083305  0.59185618  1
  N  N362  1  0.05449914  0.72352242  0.58498308  1
  N  N363  1  0.55600560  0.05779221  0.58817837  1
  N  N364  1  0.55096558  0.39416736  0.58388551  1
  N  N365  1  0.57104154  0.72194964  0.60746598  1
  N  N366  1  0.42664706  0.28290809  0.10897580  1
  N  N367  1  0.47437860  0.59855312  0.06095273  1
  N  N368  1  0.43487519  0.93919773  0.08744618  1
  N  N369  1  0.94049612  0.27803710  0.08537378  1
  N  N370  1  0.95216493  0.60794624  0.09194122  1
  N  N371  1  0.93378822  0.94537594  0.10536094  1
  N  N372  1  0.43366493  0.05286083  0.89604519  1
  N  N373  1  0.42616814  0.38757957  0.89698909  1
  N  N374  1  0.43636320  0.72133370  0.89790698  1
  N  N375  1  0.94390828  0.05653787  0.91306876  1
  N  N376  1  0.92339996  0.38589929  0.90191122  1
  N  N377  1  0.94670429  0.72407293  0.91666836  1
  N  N378  1  0.07347963  0.27877375  0.39806137  1
  N  N379  1  0.05212470  0.60325627  0.41758455  1
  N  N380  1  0.07049790  0.94730091  0.39859455  1
  N  N381  1  0.57178659  0.27832592  0.40336821  1
  N  N382  1  0.56575077  0.61325363  0.38962432  1
  N  N383  1  0.57306734  0.94464214  0.39154626  1
  N  N384  1  0.31402349  0.21888055  0.60212793  1
  N  N385  1  0.31567380  0.55259480  0.59918776  1
  N  N386  1  0.30286559  0.89489584  0.58811831  1
  N  N387  1  0.80594104  0.22119246  0.58555308  1
  N  N388  1  0.81715912  0.55806871  0.59555406  1
  N  N389  1  0.80783347  0.88694619  0.60040808  1
  N  N390  1  0.18294535  0.11032776  0.09721498  1
  N  N391  1  0.19755146  0.44420984  0.09590013  1
  N  N392  1  0.18163763  0.78114900  0.10515186  1
  N  N393  1  0.68255939  0.11075694  0.10019867  1
  N  N394  1  0.69797461  0.44213185  0.09027943  1
  N  N395  1  0.68265815  0.77563104  0.09886797  1
  N  N396  1  0.19238436  0.22697221  0.90903554  1
  N  N397  1  0.17273037  0.55356397  0.89985403  1
  N  N398  1  0.18815428  0.89195984  0.90871995  1
  N  N399  1  0.68649836  0.22471143  0.89826549  1
  N  N400  1  0.64365223  0.55303289  0.91586467  1
  N  N401  1  0.68283015  0.89263968  0.90657439  1
  N  N402  1  0.31760532  0.10914408  0.41331230  1
  N  N403  1  0.32434434  0.44181383  0.39660860  1
  N  N404  1  0.31581500  0.77744451  0.39435146  1
  N  N405  1  0.82186375  0.11148784  0.39628846  1
  N  N406  1  0.82596638  0.44435244  0.39788919  1
  N  N407  1  0.81498144  0.77516418  0.41198796  1
  N  N408  1  0.44532501  0.27637884  0.40306395  1
  N  N409  1  0.44091089  0.60525487  0.40942336  1
  N  N410  1  0.44664187  0.94280824  0.40637134  1
  N  N411  1  0.94600047  0.27866172  0.41344669  1
  N  N412  1  0.92978655  0.61397707  0.39416109  1
  N  N413  1  0.94309523  0.94251513  0.40776735  1
  N  N414  1  0.07034591  0.05230749  0.89452296  1
  N  N415  1  0.05033437  0.39560399  0.91636026  1
  N  N416  1  0.06985717  0.72334893  0.89240030  1
  N  N417  1  0.55850289  0.05390649  0.91541070  1
  N  N418  1  0.55386801  0.39267797  0.91539811  1
  N  N419  1  0.56436805  0.71390518  0.90972088  1
  N  N420  1  0.06559931  0.27705352  0.10372934  1
  N  N421  1  0.08069286  0.61413321  0.10697926  1
  N  N422  1  0.06050639  0.93853672  0.08383241  1
  N  N423  1  0.55343940  0.27846565  0.08691432  1
  N  N424  1  0.60245900  0.60463976  0.07967472  1
  N  N425  1  0.56188721  0.94242666  0.10005065  1
  N  N426  1  0.43001253  0.05721340  0.60123810  1
  N  N427  1  0.42439782  0.38326659  0.59846958  1
  N  N428  1  0.44571016  0.72453572  0.58263561  1
  N  N429  1  0.93282921  0.06195381  0.59169259  1
  N  N430  1  0.92388358  0.38946330  0.60205714  1
  N  N431  1  0.93106222  0.72275036  0.60915780  1
  N  N432  1  0.18834303  0.11467694  0.40325442  1
  N  N433  1  0.19750256  0.43905803  0.40986083  1
  N  N434  1  0.18713478  0.78138853  0.40098978  1
  N  N435  1  0.69506284  0.10720383  0.40870876  1
  N  N436  1  0.69854876  0.44107259  0.40629878  1
  N  N437  1  0.68633503  0.78015729  0.39859682  1
  N  N438  1  0.31930645  0.22112060  0.90015363  1
  N  N439  1  0.30032664  0.55526307  0.90615973  1
  N  N440  1  0.31632023  0.88899050  0.90380646  1
  N  N441  1  0.81682126  0.22378084  0.89956049  1
  N  N442  1  0.77241680  0.55934282  0.92796306  1
  N  N443  1  0.80958028  0.89278290  0.90172774  1
  N  N444  1  0.30974345  0.10256668  0.08522566  1
  N  N445  1  0.32530503  0.44806878  0.10077726  1
  N  N446  1  0.30777459  0.77649453  0.08890009  1
  N  N447  1  0.81163487  0.11261707  0.09848536  1
  N  N448  1  0.82484254  0.44562854  0.10337130  1
  N  N449  1  0.80941575  0.78403741  0.10579281  1
  N  N450  1  0.18708158  0.22727895  0.58210369  1
  N  N451  1  0.18684281  0.55203315  0.60371055  1
  N  N452  1  0.17582935  0.88855312  0.60406553  1
  N  N453  1  0.68100127  0.22394331  0.60611998  1
  N  N454  1  0.68867000  0.55731247  0.58986467  1
  N  N455  1  0.68019498  0.88929799  0.59487825  1
  Cl  Cl456  1  0.24613647  0.05241043  0.61453480  1
  Cl  Cl457  1  0.23935044  0.38485499  0.61893702  1
  Cl  Cl458  1  0.24479084  0.73024116  0.59289834  1
  Cl  Cl459  1  0.74012880  0.06114624  0.61543021  1
  Cl  Cl460  1  0.73748615  0.38628991  0.61612563  1
  Cl  Cl461  1  0.74889183  0.71691388  0.63742064  1
  Cl  Cl462  1  0.24597714  0.28397343  0.12899898  1
  Cl  Cl463  1  0.27077490  0.61217960  0.13222009  1
  Cl  Cl464  1  0.24648684  0.94345609  0.11312641  1
  Cl  Cl465  1  0.75203192  0.27459754  0.10970274  1
  Cl  Cl466  1  0.77545219  0.63576259  0.11581395  1
  Cl  Cl467  1  0.74193130  0.94465213  0.11335050  1
  Cl  Cl468  1  0.25127772  0.04952382  0.87929699  1
  Cl  Cl469  1  0.23331818  0.39307522  0.88055024  1
  Cl  Cl470  1  0.25568022  0.72245987  0.86936565  1
  Cl  Cl471  1  0.75221319  0.06017014  0.89906968  1
  Cl  Cl472  1  0.73893849  0.39500615  0.88046616  1
  Cl  Cl473  1  0.75599376  0.72194504  0.91218337  1
  Cl  Cl474  1  0.26024322  0.27568566  0.39044341  1
  Cl  Cl475  1  0.24782792  0.60376037  0.40558893  1
  Cl  Cl476  1  0.25974904  0.94465775  0.38336421  1
  Cl  Cl477  1  0.76012489  0.26713104  0.39231824  1
  Cl  Cl478  1  0.74960697  0.61634777  0.37961389  1
  Cl  Cl479  1  0.75908662  0.94343914  0.38007242  1
  Cl  Cl480  1  -0.00964417  0.22908834  0.60348042  1
  Cl  Cl481  1  0.00427556  0.55703393  0.60635426  1
  Cl  Cl482  1  -0.00799313  0.88965882  0.61760363  1
  Cl  Cl483  1  0.50138697  0.21689136  0.62169857  1
  Cl  Cl484  1  0.50021322  0.55369118  0.60674626  1
  Cl  Cl485  1  0.48944426  0.88853822  0.60818621  1
  Cl  Cl486  1  -0.00458098  0.10810104  0.11103606  1
  Cl  Cl487  1  0.00937926  0.43981300  0.11381882  1
  Cl  Cl488  1  -0.00917183  0.77484465  0.11315735  1
  Cl  Cl489  1  0.49974921  0.10356212  0.11059790  1
  Cl  Cl490  1  0.51161587  0.44892050  0.11609769  1
  Cl  Cl491  1  0.49882533  0.76654597  0.10343032  1
  Cl  Cl492  1  0.00197854  0.22776247  0.88657167  1
  Cl  Cl493  1  -0.02719155  0.55257611  0.88651149  1
  Cl  Cl494  1  -0.00217244  0.89012476  0.88557541  1
  Cl  Cl495  1  0.50339560  0.21912832  0.88530505  1
  Cl  Cl496  1  0.47440591  0.55654900  0.87461512  1
  Cl  Cl497  1  0.50183018  0.88349662  0.87714178  1
  Cl  Cl498  1  0.00425158  0.12192137  0.37506887  1
  Cl  Cl499  1  0.01179796  0.44794050  0.38036251  1
  Cl  Cl500  1  0.00479304  0.77033208  0.39541967  1
  Cl  Cl501  1  0.50910606  0.10611325  0.39064491  1
  Cl  Cl502  1  0.51126906  0.44081580  0.38549485  1
  Cl  Cl503  1  0.49587588  0.77304835  0.38769509  1
  Cl  Cl504  1  0.36061514  0.14818317  0.74423570  1
  Cl  Cl505  1  0.35809972  0.47968738  0.75057280  1
  Cl  Cl506  1  0.35347231  0.81409593  0.74595837  1
  Cl  Cl507  1  0.85698949  0.14498953  0.74995793  1
  Cl  Cl508  1  0.86153148  0.48068228  0.73895943  1
  Cl  Cl509  1  0.85770059  0.81626154  0.75689198  1
  Cl  Cl510  1  0.14088432  0.18284274  0.24385062  1
  Cl  Cl511  1  0.15177343  0.51848596  0.24855895  1
  Cl  Cl512  1  0.13914411  0.85044726  0.24714455  1
  Cl  Cl513  1  0.64531223  0.18717706  0.25077313  1
  Cl  Cl514  1  0.64776008  0.51575943  0.25115414  1
  Cl  Cl515  1  0.63576417  0.85318872  0.26267196  1
  Cl  Cl516  1  0.13948127  0.15196022  0.75159549  1
  Cl  Cl517  1  0.13454855  0.48339342  0.74468180  1
  Cl  Cl518  1  0.13386946  0.81468669  0.74470895  1
  Cl  Cl519  1  0.63642294  0.15059105  0.74786701  1
  Cl  Cl520  1  0.64187801  0.48871025  0.75055080  1
  Cl  Cl521  1  0.63869189  0.81346940  0.75349994  1
  Cl  Cl522  1  0.36243450  0.18270196  0.24797731  1
  Cl  Cl523  1  0.37416285  0.52244985  0.26846862  1
  Cl  Cl524  1  0.36384169  0.85182340  0.25146539  1
  Cl  Cl525  1  0.86593455  0.18551543  0.25081107  1
  Cl  Cl526  1  0.86896106  0.52004414  0.24295772  1
  Cl  Cl527  1  0.86050084  0.84746069  0.24331156  1
  Cl  Cl528  1  0.09453272  0.31787613  0.75010435  1
  Cl  Cl529  1  0.10715708  0.64809710  0.75416654  1
  Cl  Cl530  1  0.10816250  0.98347562  0.74631952  1
  Cl  Cl531  1  0.60525968  0.31837352  0.74859177  1
  Cl  Cl532  1  0.60903578  0.64884438  0.75115775  1
  Cl  Cl533  1  0.60580548  0.97957629  0.74741067  1
  Cl  Cl534  1  0.39572054  0.01978183  0.25060102  1
  Cl  Cl535  1  0.38938819  0.35315894  0.24817210  1
  Cl  Cl536  1  0.39649890  0.68779315  0.24933701  1
  Cl  Cl537  1  0.88542276  0.01966578  0.24088764  1
  Cl  Cl538  1  0.89354862  0.35598077  0.25277360  1
  Cl  Cl539  1  0.89379911  0.68279191  0.25615092  1
  Cl  Cl540  1  0.38496399  0.31704088  0.75094053  1
  Cl  Cl541  1  0.38696912  0.64905564  0.74045342  1
  Cl  Cl542  1  0.38595443  0.98111770  0.74954680  1
  Cl  Cl543  1  0.87545207  0.30895540  0.75798726  1
  Cl  Cl544  1  0.88810504  0.65034833  0.74647135  1
  Cl  Cl545  1  0.88508749  0.98274588  0.75320412  1
  Cl  Cl546  1  0.10758835  0.01355016  0.25419520  1
  Cl  Cl547  1  0.11390751  0.34869903  0.25373332  1
  Cl  Cl548  1  0.11449509  0.68437696  0.25372143  1
  Cl  Cl549  1  0.61864508  0.02083118  0.24491166  1
  Cl  Cl550  1  0.61418557  0.34914609  0.25115428  1
  Cl  Cl551  1  0.61468214  0.68454630  0.24296955  1
