# generated using pymatgen
data_H8PbC4(N3Cl2)2
_symmetry_space_group_name_H-M   'P 1'
_cell_length_a   16.61958387
_cell_length_b   22.49801869
_cell_length_c   21.58724123
_cell_angle_alpha   89.99852215
_cell_angle_beta   90.00353864
_cell_angle_gamma   89.99916979
_symmetry_Int_Tables_number   1
_chemical_formula_structural   H8PbC4(N3Cl2)2
_chemical_formula_sum   'H192 Pb24 C96 N144 Cl96'
_cell_volume   8071.63588351
_cell_formula_units_Z   24
loop_
 _symmetry_equiv_pos_site_id
 _symmetry_equiv_pos_as_xyz
  1  'x, y, z'
loop_
 _atom_site_type_symbol
 _atom_site_label
 _atom_site_symmetry_multiplicity
 _atom_site_fract_x
 _atom_site_fract_y
 _atom_site_fract_z
 _atom_site_occupancy
  H  H0  1  -0.00152655  0.03327234  0.68064698  1
  H  H1  1  -0.00206382  0.36644816  0.68200202  1
  H  H2  1  -0.00362497  0.70019205  0.68002849  1
  H  H3  1  0.49934492  0.03304039  0.68027942  1
  H  H4  1  0.50673508  0.36723343  0.68100961  1
  H  H5  1  0.50360215  0.69927630  0.68067770  1
  H  H6  1  -0.00226273  0.30043238  0.18377803  1
  H  H7  1  -0.00393849  0.63386426  0.18113015  1
  H  H8  1  0.00228446  0.96674082  0.17961206  1
  H  H9  1  0.50354424  0.30080137  0.18243865  1
  H  H10  1  0.50113240  0.63351716  0.18126472  1
  H  H11  1  0.50252554  0.96661683  0.18207150  1
  H  H12  1  0.00233498  0.03231353  0.81971801  1
  H  H13  1  -0.00635300  0.36636385  0.81602741  1
  H  H14  1  -0.00236992  0.70011568  0.81720435  1
  H  H15  1  0.50553724  0.03210443  0.81696930  1
  H  H16  1  0.49541471  0.36655413  0.81892739  1
  H  H17  1  0.49549855  0.69987471  0.81848734  1
  H  H18  1  -0.00516246  0.30087693  0.31895307  1
  H  H19  1  -0.00058214  0.63333454  0.32044827  1
  H  H20  1  -0.00555441  0.96553196  0.32071875  1
  H  H21  1  0.49547498  0.29982708  0.31881295  1
  H  H22  1  0.49549543  0.63415281  0.31949944  1
  H  H23  1  0.50084709  0.96739504  0.31856820  1
  H  H24  1  0.25081239  0.19910294  0.68173389  1
  H  H25  1  0.25377701  0.53369813  0.67881683  1
  H  H26  1  0.24717101  0.86601494  0.68258413  1
  H  H27  1  0.75206993  0.19820941  0.67957473  1
  H  H28  1  0.74697893  0.53278849  0.68195585  1
  H  H29  1  0.75400508  0.86627325  0.68177596  1
  H  H30  1  0.24984457  0.13366717  0.18230179  1
  H  H31  1  0.25095150  0.46711338  0.18100825  1
  H  H32  1  0.25215778  0.80085468  0.18209925  1
  H  H33  1  0.74676272  0.13290586  0.18104045  1
  H  H34  1  0.75186785  0.46701708  0.18250759  1
  H  H35  1  0.74793937  0.80097955  0.18127973  1
  H  H36  1  0.24433481  0.19914325  0.81923877  1
  H  H37  1  0.24570037  0.53336839  0.82075745  1
  H  H38  1  0.24801869  0.86685691  0.81849909  1
  H  H39  1  0.75139057  0.19924954  0.81647227  1
  H  H40  1  0.75615610  0.53394193  0.81706252  1
  H  H41  1  0.75057967  0.86543813  0.81819386  1
  H  H42  1  0.25525741  0.13273938  0.32085037  1
  H  H43  1  0.25211858  0.46796853  0.31993753  1
  H  H44  1  0.24685088  0.80062189  0.31847111  1
  H  H45  1  0.75311400  0.13317968  0.31914837  1
  H  H46  1  0.74798148  0.46707610  0.31916811  1
  H  H47  1  0.75289105  0.80060165  0.32015056  1
  H  H48  1  0.12828698  0.05210135  0.61441305  1
  H  H49  1  0.12398185  0.38798713  0.61272493  1
  H  H50  1  0.12791854  0.71820363  0.61570280  1
  H  H51  1  0.62698249  0.05429161  0.61079345  1
  H  H52  1  0.61831593  0.39095866  0.59826138  1
  H  H53  1  0.62384768  0.72263129  0.60457880  1
  H  H54  1  0.37093383  0.28252701  0.12121597  1
  H  H55  1  0.37219239  0.61354487  0.11510609  1
  H  H56  1  0.37756618  0.94598668  0.11069473  1
  H  H57  1  0.87508809  0.27887783  0.11253686  1
  H  H58  1  0.87834048  0.61064905  0.10388705  1
  H  H59  1  0.87482213  0.94647982  0.11087787  1
  H  H60  1  0.37174490  0.05196746  0.88119506  1
  H  H61  1  0.37681968  0.38908846  0.89454600  1
  H  H62  1  0.37718580  0.72170201  0.89679775  1
  H  H63  1  0.87224014  0.05340753  0.88518651  1
  H  H64  1  0.87860644  0.38901913  0.89425894  1
  H  H65  1  0.87699251  0.72089299  0.88932560  1
  H  H66  1  0.12943994  0.28164757  0.38006295  1
  H  H67  1  0.12634390  0.61261610  0.38870418  1
  H  H68  1  0.12476794  0.94899857  0.38482050  1
  H  H69  1  0.62907553  0.28092495  0.38138900  1
  H  H70  1  0.62574566  0.61434533  0.38642815  1
  H  H71  1  0.62403229  0.94608975  0.39005654  1
  H  H72  1  0.36871475  0.22094735  0.60594383  1
  H  H73  1  0.37207377  0.55641006  0.60324475  1
  H  H74  1  0.37449072  0.88669705  0.61263798  1
  H  H75  1  0.86827331  0.22429715  0.60326442  1
  H  H76  1  0.87478464  0.55368785  0.61319772  1
  H  H77  1  0.87460088  0.88853883  0.60554924  1
  H  H78  1  0.12579583  0.11180340  0.10995294  1
  H  H79  1  0.12648046  0.44707104  0.11224482  1
  H  H80  1  0.12484720  0.78114913  0.11302105  1
  H  H81  1  0.62966863  0.10958066  0.10314884  1
  H  H82  1  0.62160312  0.44884274  0.11809628  1
  H  H83  1  0.62380276  0.77881946  0.10858777  1
  H  H84  1  0.13148353  0.22275754  0.89996388  1
  H  H85  1  0.12637653  0.55666296  0.89523511  1
  H  H86  1  0.12292506  0.88745952  0.88914486  1
  H  H87  1  0.62564459  0.22073147  0.88527478  1
  H  H88  1  0.62098911  0.55054886  0.87752992  1
  H  H89  1  0.62663760  0.88796386  0.89121326  1
  H  H90  1  0.37061082  0.10991795  0.39873517  1
  H  H91  1  0.37669758  0.44633477  0.39179538  1
  H  H92  1  0.37433994  0.77931994  0.38642006  1
  H  H93  1  0.87408687  0.11019133  0.39207614  1
  H  H94  1  0.87851855  0.44725068  0.38391970  1
  H  H95  1  0.87085135  0.77854094  0.39752675  1
  H  H96  1  0.38216050  0.27622401  0.39986657  1
  H  H97  1  0.37704169  0.61065203  0.39504846  1
  H  H98  1  0.37412767  0.94716271  0.38852284  1
  H  H99  1  0.88266935  0.27617595  0.40093981  1
  H  H100  1  0.87700999  0.61151266  0.39348471  1
  H  H101  1  0.87663590  0.94538839  0.39507958  1
  H  H102  1  0.12067035  0.05479320  0.89667798  1
  H  H103  1  0.12727700  0.38542202  0.88055108  1
  H  H104  1  0.12661082  0.71929119  0.88451926  1
  H  H105  1  0.62039914  0.05543445  0.89535667  1
  H  H106  1  0.62549640  0.38723959  0.88590213  1
  H  H107  1  0.62550367  0.71914674  0.88657682  1
  H  H108  1  0.12508848  0.28103501  0.11704850  1
  H  H109  1  0.12769544  0.61436380  0.11748602  1
  H  H110  1  0.12402489  0.94538209  0.10641832  1
  H  H111  1  0.61929919  0.27845360  0.10577897  1
  H  H112  1  0.62119615  0.61288724  0.10868918  1
  H  H113  1  0.62636456  0.94527443  0.10877179  1
  H  H114  1  0.37810333  0.05580417  0.60602879  1
  H  H115  1  0.37178140  0.38564528  0.62035632  1
  H  H116  1  0.37526209  0.71867347  0.61371552  1
  H  H117  1  0.87891378  0.05355320  0.60748650  1
  H  H118  1  0.87485523  0.38834680  0.60777046  1
  H  H119  1  0.87895424  0.72386526  0.60264047  1
  H  H120  1  0.12239235  0.11281896  0.38398077  1
  H  H121  1  0.12753742  0.44593857  0.38962980  1
  H  H122  1  0.12523395  0.77900933  0.39445866  1
  H  H123  1  0.62508814  0.11302538  0.38802392  1
  H  H124  1  0.62952005  0.44505917  0.39619458  1
  H  H125  1  0.62195558  0.77956051  0.38432416  1
  H  H126  1  0.37919136  0.21925139  0.87868721  1
  H  H127  1  0.37513903  0.55214402  0.88742835  1
  H  H128  1  0.37237176  0.88634622  0.88757499  1
  H  H129  1  0.87570695  0.22066765  0.88915353  1
  H  H130  1  0.86938746  0.55595140  0.89506976  1
  H  H131  1  0.87530311  0.88776824  0.89046549  1
  H  H132  1  0.37504740  0.11242722  0.11143135  1
  H  H133  1  0.37579618  0.44638872  0.11088244  1
  H  H134  1  0.37395867  0.77833774  0.10720089  1
  H  H135  1  0.87911916  0.11331551  0.11820932  1
  H  H136  1  0.87115988  0.44584931  0.10829619  1
  H  H137  1  0.87250611  0.78050360  0.10978694  1
  H  H138  1  0.11937975  0.21926182  0.61591491  1
  H  H139  1  0.12332935  0.55434227  0.61350494  1
  H  H140  1  0.12535725  0.88770172  0.60939241  1
  H  H141  1  0.62063486  0.21718185  0.61471070  1
  H  H142  1  0.62571003  0.55530328  0.60837770  1
  H  H143  1  0.62593931  0.88621477  0.61161524  1
  H  H144  1  0.41831826  0.91821082  0.49335280  1
  H  H145  1  0.32879179  0.41787317  0.49594473  1
  H  H146  1  0.45068119  0.25110130  0.50174452  1
  H  H147  1  0.84803414  0.08445453  0.00578167  1
  H  H148  1  0.19988621  0.24621709  1.00337690  1
  H  H149  1  0.81770943  0.42069084  -0.00267854  1
  H  H150  1  0.57280247  0.91577439  0.00531854  1
  H  H151  1  0.94170577  0.41381511  1.00233287  1
  H  H152  1  0.33735725  0.58157130  0.99321129  1
  H  H153  1  0.92858730  0.07936874  0.49671763  1
  H  H154  1  0.80492746  0.23846087  0.49856881  1
  H  H155  1  0.16800527  0.75336131  0.00306000  1
  H  H156  1  0.92814823  0.58248508  0.49716317  1
  H  H157  1  0.32801943  0.91377116  1.00016223  1
  H  H158  1  0.94207474  0.75223637  0.49892208  1
  H  H159  1  0.65568401  0.42139138  0.00555468  1
  H  H160  1  0.56024459  0.25608239  -0.00512309  1
  H  H161  1  0.91956276  0.91783714  0.00510076  1
  H  H162  1  0.33176102  0.75000413  0.49643501  1
  H  H163  1  0.65758094  0.25287406  0.51108357  1
  H  H164  1  0.80778473  0.58165498  1.00480391  1
  H  H165  1  0.69090133  0.41894109  0.50079596  1
  H  H166  1  0.92643191  0.25706633  -0.00143653  1
  H  H167  1  0.07916211  0.41567278  0.50277164  1
  H  H168  1  0.80849026  0.75398309  0.50239713  1
  H  H169  1  0.82296262  0.24058851  0.99632828  1
  H  H170  1  0.57979775  0.08128915  0.50530436  1
  H  H171  1  0.67230830  0.24531371  0.99888677  1
  H  H172  1  0.39844655  0.25461083  0.00784314  1
  H  H173  1  0.08325679  0.25579097  0.00285533  1
  H  H174  1  0.31243922  0.24744223  0.49645021  1
  H  H175  1  0.57666478  0.91651615  0.49954906  1
  H  H176  1  0.69057803  0.08253323  -0.00025118  1
  H  H177  1  0.95281782  0.25235926  0.50246121  1
  H  H178  1  0.67567871  0.75080282  0.00476331  1
  H  H179  1  0.32688512  0.08403395  0.00231113  1
  H  H180  1  0.92676084  0.74965974  1.00011415  1
  H  H181  1  0.55699174  0.08119594  1.00301727  1
  H  H182  1  0.17547726  0.91568421  0.50119023  1
  H  H183  1  0.67845245  0.58425949  0.50068861  1
  H  H184  1  0.15535942  0.08305957  0.49107256  1
  H  H185  1  0.93848278  0.58890443  -0.00098637  1
  H  H186  1  0.17018970  0.41749896  0.00018251  1
  H  H187  1  0.09501472  0.58626166  0.00509893  1
  H  H188  1  0.16093151  0.58294352  0.50671407  1
  H  H189  1  0.57364237  0.58423244  -0.00157940  1
  H  H190  1  0.15679949  0.24783135  0.50951720  1
  H  H191  1  0.54679709  0.41747714  0.49766407  1
  Pb  Pb192  1  0.25007249  0.04551850  0.74907419  1
  Pb  Pb193  1  0.24924647  0.38216085  0.74901633  1
  Pb  Pb194  1  0.25316301  0.71532533  0.75097789  1
  Pb  Pb195  1  0.74990218  0.04764511  0.75393431  1
  Pb  Pb196  1  0.75022223  0.38263523  0.74802618  1
  Pb  Pb197  1  0.74740723  0.71527083  0.74700983  1
  Pb  Pb198  1  0.25146233  0.28526822  0.25119787  1
  Pb  Pb199  1  0.24975807  0.62112622  0.25272685  1
  Pb  Pb200  1  0.24847960  0.95072853  0.24925330  1
  Pb  Pb201  1  0.75032258  0.28435443  0.24911785  1
  Pb  Pb202  1  0.74837693  0.62001187  0.24974561  1
  Pb  Pb203  1  0.74979563  0.95284701  0.25125547  1
  Pb  Pb204  1  0.00128338  0.21383694  0.75145155  1
  Pb  Pb205  1  0.00015237  0.55045416  0.75211600  1
  Pb  Pb206  1  -0.00113572  0.88043566  0.75129016  1
  Pb  Pb207  1  0.49880708  0.21455341  0.74717797  1
  Pb  Pb208  1  0.49845719  0.54766688  0.74712108  1
  Pb  Pb209  1  0.50117584  0.88146215  0.74954783  1
  Pb  Pb210  1  0.00088343  0.11744296  0.25106081  1
  Pb  Pb211  1  0.00041791  0.45369785  0.24897634  1
  Pb  Pb212  1  -0.00417452  0.78568217  0.25408485  1
  Pb  Pb213  1  0.49965127  0.11625153  0.25049840  1
  Pb  Pb214  1  0.49996237  0.45445163  0.25632130  1
  Pb  Pb215  1  0.50008421  0.78714046  0.24950320  1
  C  C216  1  0.00157794  0.04649634  0.63246403  1
  C  C217  1  -0.00132325  0.38100734  0.63416718  1
  C  C218  1  0.00079654  0.71398620  0.63220959  1
  C  C219  1  0.50178759  0.04761342  0.63244241  1
  C  C220  1  0.49929299  0.38116488  0.63325768  1
  C  C221  1  0.50123391  0.71364547  0.63299151  1
  C  C222  1  -0.00072670  0.28638363  0.13568651  1
  C  C223  1  0.00041164  0.61988693  0.13295951  1
  C  C224  1  0.00003282  0.95256281  0.13172569  1
  C  C225  1  0.49767200  0.28685992  0.13449234  1
  C  C226  1  0.49857430  0.61988334  0.13322453  1
  C  C227  1  0.50255561  0.95214428  0.13419343  1
  C  C228  1  -0.00148118  0.04677739  0.86731983  1
  C  C229  1  0.00018718  0.38065003  0.86375573  1
  C  C230  1  -0.00000912  0.71367842  0.86527675  1
  C  C231  1  0.49892172  0.04655459  0.86464057  1
  C  C232  1  0.49959130  0.38089874  0.86657915  1
  C  C233  1  0.49935308  0.71360435  0.86657724  1
  C  C234  1  0.00216111  0.28639856  0.36656166  1
  C  C235  1  0.00052122  0.61900091  0.36834403  1
  C  C236  1  -0.00129104  0.95269743  0.36891032  1
  C  C237  1  0.50220576  0.28576589  0.36660413  1
  C  C238  1  0.49971704  0.61968326  0.36711322  1
  C  C239  1  0.49927006  0.95290729  0.36655915  1
  C  C240  1  0.24562545  0.21353403  0.63385345  1
  C  C241  1  0.24928301  0.54794435  0.63102635  1
  C  C242  1  0.24925431  0.88047669  0.63471797  1
  C  C243  1  0.74673367  0.21328637  0.63193403  1
  C  C244  1  0.74930483  0.54725219  0.63411070  1
  C  C245  1  0.75141037  0.88031834  0.63377431  1
  C  C246  1  0.25027802  0.11922711  0.13442262  1
  C  C247  1  0.25057552  0.45308827  0.13303440  1
  C  C248  1  0.25039319  0.78632172  0.13428695  1
  C  C249  1  0.75156570  0.11871043  0.13299001  1
  C  C250  1  0.74804564  0.45314563  0.13438915  1
  C  C251  1  0.74774728  0.78652981  0.13339553  1
  C  C252  1  0.25128436  0.21317922  0.86699079  1
  C  C253  1  0.24942110  0.54757912  0.86866445  1
  C  C254  1  0.24827916  0.88042960  0.86657805  1
  C  C255  1  0.75144942  0.21351305  0.86462829  1
  C  C256  1  0.74903129  0.54706714  0.86500681  1
  C  C257  1  0.75080655  0.88006384  0.86601430  1
  C  C258  1  0.24894799  0.11866861  0.36857723  1
  C  C259  1  0.25265861  0.45318837  0.36766433  1
  C  C260  1  0.24849542  0.78595412  0.36628073  1
  C  C261  1  0.75041889  0.11898060  0.36682555  1
  C  C262  1  0.75174355  0.45317340  0.36699224  1
  C  C263  1  0.74887184  0.78662040  0.36798504  1
  C  C264  1  0.05114585  0.59540045  0.04220945  1
  C  C265  1  0.04643638  0.73798012  0.95752995  1
  C  C266  1  0.97448738  0.40472536  0.95962542  1
  C  C267  1  0.45149040  0.59527076  0.04120942  1
  C  C268  1  0.46827142  0.40768966  0.96112499  1
  C  C269  1  0.44490139  0.26393279  0.04319196  1
  C  C270  1  0.03821895  0.40568874  0.54128515  1
  C  C271  1  0.21039664  0.42761557  0.03853579  1
  C  C272  1  0.28992099  0.76035535  0.45840814  1
  C  C273  1  0.52658144  0.26336806  0.03741501  1
  C  C274  1  0.21429120  0.57452884  0.96428720  1
  C  C275  1  0.69771954  0.75933129  0.45876392  1
  C  C276  1  0.96618170  0.92826228  0.46393324  1
  C  C277  1  0.27828311  0.23819571  0.53836279  1
  C  C278  1  0.04608293  0.59326098  0.46144432  1
  C  C279  1  0.52450493  0.07161400  0.96027110  1
  C  C280  1  0.96497190  0.73896560  0.96086881  1
  C  C281  1  0.53826728  0.92713757  0.46036254  1
  C  C282  1  0.95324441  0.07362960  0.95843151  1
  C  C283  1  0.20981767  0.76265518  0.04145801  1
  C  C284  1  0.78141154  0.42959976  0.03818817  1
  C  C285  1  0.80320040  0.09399810  0.04255243  1
  C  C286  1  0.04731448  0.92956665  0.46029577  1
  C  C287  1  0.77446757  0.57176982  0.96262820  1
  C  C288  1  0.28319687  0.57607017  0.53575493  1
  C  C289  1  0.03872215  0.92595004  0.03709053  1
  C  C290  1  0.46895567  0.59224833  0.46138205  1
  C  C291  1  0.80243373  0.42674927  0.45827818  1
  C  C292  1  0.53308932  0.59458741  0.03738057  1
  C  C293  1  0.27932306  0.09091099  0.46472842  1
  C  C294  1  0.96178668  0.26348291  0.04038731  1
  C  C295  1  0.04392345  0.26378545  0.04222125  1
  C  C296  1  0.28820961  0.90460894  0.96146559  1
  C  C297  1  0.21489521  0.90552698  0.54073933  1
  C  C298  1  0.30830417  0.23975973  0.95587389  1
  C  C299  1  0.04952203  0.06954225  0.54019233  1
  C  C300  1  0.20660358  0.90485112  0.96018097  1
  C  C301  1  0.70860469  0.23823506  0.95763044  1
  C  C302  1  0.78471535  0.09171124  0.46060098  1
  C  C303  1  0.96790800  0.07043733  0.53616632  1
  C  C304  1  0.71629372  0.57334433  0.54022178  1
  C  C305  1  0.69945993  0.43044953  0.04191490  1
  C  C306  1  0.69356251  0.56994818  0.95459338  1
  C  C307  1  0.20996139  0.42540432  0.46104472  1
  C  C308  1  0.29201684  0.42760137  0.03963715  1
  C  C309  1  0.28760232  0.09454002  0.04112930  1
  C  C310  1  0.45747574  0.73919852  0.54102861  1
  C  C311  1  0.05278168  0.73923264  0.54101116  1
  N  N312  1  0.69802608  0.23366475  0.54141388  1
  N  N313  1  0.53494897  0.74062629  0.53702519  1
  N  N314  1  0.95964435  0.92656965  0.03981749  1
  N  N315  1  0.79016990  0.90581173  0.95964474  1
  N  N316  1  0.29324940  0.57255190  0.96009143  1
  N  N317  1  0.72361442  0.09371729  0.03813478  1
  N  N318  1  0.72360374  0.42681766  0.46143505  1
  N  N319  1  0.19883847  0.23750330  0.54305630  1
  N  N320  1  0.77622399  0.24559926  0.54001281  1
  N  N321  1  0.44534353  0.07106499  0.95543524  1
  N  N322  1  0.45877144  0.92821661  0.04080029  1
  N  N323  1  0.28935424  0.42626286  0.46041071  1
  N  N324  1  0.71297626  0.90554585  0.96007656  1
  N  N325  1  0.46316202  0.07284710  0.53808881  1
  N  N326  1  0.51907004  0.40545289  0.53826341  1
  N  N327  1  0.46848098  0.73812697  0.96248238  1
  N  N328  1  0.98117352  0.26004099  0.46098380  1
  N  N329  1  0.53708364  0.92888179  0.04144663  1
  N  N330  1  0.28896767  0.76153566  0.03906337  1
  N  N331  1  0.03069662  0.07436117  0.96338416  1
  N  N332  1  0.47970579  0.26070571  0.46106621  1
  N  N333  1  0.97153780  0.59296221  0.03877473  1
  N  N334  1  0.20063925  0.09294199  0.45853681  1
  N  N335  1  0.54502475  0.73669718  0.95936423  1
  N  N336  1  0.45855883  0.92810393  0.45880259  1
  N  N337  1  0.70666868  0.09298706  0.46051941  1
  N  N338  1  0.54132287  0.07214885  0.54124048  1
  N  N339  1  0.95893416  0.40532378  0.53894653  1
  N  N340  1  0.20424801  0.57442158  0.54036778  1
  N  N341  1  0.22961452  0.24056553  0.96228450  1
  N  N342  1  0.97414642  0.74058972  0.53760545  1
  N  N343  1  0.05898752  0.26269052  0.45560361  1
  N  N344  1  0.78812454  0.23948351  0.95744426  1
  N  N345  1  0.71256169  0.76156665  0.04123285  1
  N  N346  1  0.54659675  0.59322011  0.45993316  1
  N  N347  1  0.79098104  0.76181621  0.04005192  1
  N  N348  1  0.05351964  0.40400922  0.95480264  1
  N  N349  1  0.29441920  0.90520024  0.54110298  1
  N  N350  1  0.21061615  0.76047086  0.46148497  1
  N  N351  1  0.79582103  0.57240875  0.54109404  1
  N  N352  1  0.96665863  0.59305036  0.46187955  1
  N  N353  1  0.77647512  0.76001341  0.46234602  1
  N  N354  1  0.20836322  0.09452036  0.04008757  1
  N  N355  1  0.70855405  0.90555057  0.54081639  1
  N  N356  1  0.54573008  0.40675942  0.95961248  1
  N  N357  1  0.78505547  0.90618483  0.53882040  1
  N  N358  1  0.55760222  0.26378515  0.45652193  1
  N  N359  1  0.44131601  0.40396713  0.54442229  1
  N  N360  1  0.06920466  0.05521071  0.59873309  1
  N  N361  1  0.06405145  0.39097286  0.59938760  1
  N  N362  1  0.06959803  0.72281550  0.59947227  1
  N  N363  1  0.56650842  0.05669267  0.59812933  1
  N  N364  1  0.55599178  0.39164837  0.59188491  1
  N  N365  1  0.56243049  0.72429570  0.59558284  1
  N  N366  1  0.42873565  0.27849465  0.10376061  1
  N  N367  1  0.43127781  0.61044305  0.09928400  1
  N  N368  1  0.43809645  0.94352414  0.09870352  1
  N  N369  1  0.93511135  0.27743357  0.09896061  1
  N  N370  1  0.94022305  0.61045937  0.09408362  1
  N  N371  1  0.93502828  0.94297340  0.09813568  1
  N  N372  1  0.43137586  0.05541562  0.89573330  1
  N  N373  1  0.43765269  0.39199137  0.90529366  1
  N  N374  1  0.43889714  0.72386623  0.90516978  1
  N  N375  1  0.93100877  0.05712708  0.90013802  1
  N  N376  1  0.94015920  0.39088580  0.90395061  1
  N  N377  1  0.93709733  0.72350894  0.90228242  1
  N  N378  1  0.07129519  0.27761317  0.39614813  1
  N  N379  1  0.06689907  0.60931701  0.40347826  1
  N  N380  1  0.06655813  0.94442495  0.40195921  1
  N  N381  1  0.57084083  0.27782126  0.39704641  1
  N  N382  1  0.56576136  0.61052587  0.39967002  1
  N  N383  1  0.56374543  0.94261931  0.40307740  1
  N  N384  1  0.30763936  0.22334599  0.59470840  1
  N  N385  1  0.31132305  0.55949121  0.59182976  1
  N  N386  1  0.31395474  0.88953447  0.60030488  1
  N  N387  1  0.80689888  0.22225228  0.59286441  1
  N  N388  1  0.81442034  0.55627598  0.60010865  1
  N  N389  1  0.81303069  0.89104241  0.59634486  1
  N  N390  1  0.18689423  0.10954030  0.09859653  1
  N  N391  1  0.18578184  0.44357082  0.09790878  1
  N  N392  1  0.18458954  0.77746376  0.09969358  1
  N  N393  1  0.69170352  0.10902926  0.09387613  1
  N  N394  1  0.68030925  0.44491285  0.10182941  1
  N  N395  1  0.68478406  0.77614897  0.09767375  1
  N  N396  1  0.19334590  0.22204419  0.90778916  1
  N  N397  1  0.18682374  0.55891469  0.90746846  1
  N  N398  1  0.18289649  0.89028460  0.90288061  1
  N  N399  1  0.68540609  0.22345366  0.89978963  1
  N  N400  1  0.67864039  0.55512080  0.89566910  1
  N  N401  1  0.68773118  0.88980028  0.90210099  1
  N  N402  1  0.30964185  0.10732894  0.40917956  1
  N  N403  1  0.31618161  0.44373107  0.40295151  1
  N  N404  1  0.31452705  0.77567753  0.40022267  1
  N  N405  1  0.81360882  0.10761723  0.40421802  1
  N  N406  1  0.82011306  0.44281743  0.39988142  1
  N  N407  1  0.80923579  0.77833457  0.40690808  1
  N  N408  1  0.44428412  0.27532184  0.40712105  1
  N  N409  1  0.43773062  0.60812479  0.40572601  1
  N  N410  1  0.43472226  0.94372290  0.40092613  1
  N  N411  1  0.94500243  0.27617335  0.40774059  1
  N  N412  1  0.93801667  0.60879424  0.40441582  1
  N  N413  1  0.93683468  0.94231691  0.40800821  1
  N  N414  1  0.05901404  0.05708150  0.90545099  1
  N  N415  1  0.06765834  0.38915840  0.89496186  1
  N  N416  1  0.06727501  0.72289538  0.89962610  1
  N  N417  1  0.55880761  0.05704204  0.90482145  1
  N  N418  1  0.56556033  0.38987486  0.89933631  1
  N  N419  1  0.56530216  0.72168632  0.89986947  1
  N  N420  1  0.06577619  0.27800617  0.10160814  1
  N  N421  1  0.06898043  0.61097418  0.10103997  1
  N  N422  1  0.06397251  0.94205161  0.09389375  1
  N  N423  1  0.55838669  0.27738732  0.09477591  1
  N  N424  1  0.56120075  0.61007945  0.09606232  1
  N  N425  1  0.56533161  0.94179406  0.09827511  1
  N  N426  1  0.43914802  0.05786171  0.59541930  1
  N  N427  1  0.42993325  0.38901745  0.60373324  1
  N  N428  1  0.43442673  0.72310313  0.59906915  1
  N  N429  1  0.93923186  0.05601927  0.59490396  1
  N  N430  1  0.93588513  0.39021167  0.59745782  1
  N  N431  1  0.94069118  0.72473220  0.59372245  1
  N  N432  1  0.18143228  0.10995651  0.39933316  1
  N  N433  1  0.18731983  0.44194174  0.40362662  1
  N  N434  1  0.18654988  0.77646471  0.40371418  1
  N  N435  1  0.68547853  0.11020820  0.40081232  1
  N  N436  1  0.69105778  0.44380397  0.40535984  1
  N  N437  1  0.68040153  0.77540367  0.40036371  1
  N  N438  1  0.32178370  0.22361644  0.89678270  1
  N  N439  1  0.31527688  0.55601459  0.90144305  1
  N  N440  1  0.31300885  0.88929999  0.90198878  1
  N  N441  1  0.81473854  0.22167350  0.90073100  1
  N  N442  1  0.80825147  0.55732032  0.90538220  1
  N  N443  1  0.81438130  0.88999300  0.90156151  1
  N  N444  1  0.31505389  0.10985973  0.09872356  1
  N  N445  1  0.31591884  0.44293228  0.09666431  1
  N  N446  1  0.31260513  0.77621341  0.09730789  1
  N  N447  1  0.82049247  0.10962024  0.10152238  1
  N  N448  1  0.81037219  0.44358723  0.09630962  1
  N  N449  1  0.81199584  0.77735094  0.09781788  1
  N  N450  1  0.17895684  0.22274780  0.60198385  1
  N  N451  1  0.18281157  0.55662650  0.59890606  1
  N  N452  1  0.18595324  0.89073523  0.59780032  1
  N  N453  1  0.67951796  0.22369573  0.60091967  1
  N  N454  1  0.68638380  0.55803395  0.59693290  1
  N  N455  1  0.68645668  0.88927954  0.59959244  1
  Cl  Cl456  1  0.25396137  0.05549437  0.61400663  1
  Cl  Cl457  1  0.24842678  0.38713291  0.61313116  1
  Cl  Cl458  1  0.25224116  0.71569976  0.61837754  1
  Cl  Cl459  1  0.74989496  0.05502570  0.62219680  1
  Cl  Cl460  1  0.74092918  0.38933185  0.60541013  1
  Cl  Cl461  1  0.75554318  0.72453323  0.60673569  1
  Cl  Cl462  1  0.24562756  0.27853294  0.11585993  1
  Cl  Cl463  1  0.24982180  0.61177643  0.11919262  1
  Cl  Cl464  1  0.25240809  0.94686625  0.11709366  1
  Cl  Cl465  1  0.74766550  0.27480738  0.11374239  1
  Cl  Cl466  1  0.75524533  0.61338101  0.11571672  1
  Cl  Cl467  1  0.74964649  0.94971968  0.11609046  1
  Cl  Cl468  1  0.24645814  0.05310214  0.88128422  1
  Cl  Cl469  1  0.25245663  0.38384483  0.88134677  1
  Cl  Cl470  1  0.25233303  0.71729217  0.88389525  1
  Cl  Cl471  1  0.74383581  0.05858120  0.89366723  1
  Cl  Cl472  1  0.75420472  0.38602594  0.88215066  1
  Cl  Cl473  1  0.74848986  0.71954740  0.88100581  1
  Cl  Cl474  1  0.25887182  0.27870151  0.39156107  1
  Cl  Cl475  1  0.25012817  0.61009732  0.38675711  1
  Cl  Cl476  1  0.25103818  0.95032443  0.38311527  1
  Cl  Cl477  1  0.75945077  0.27600432  0.39596617  1
  Cl  Cl478  1  0.75254428  0.61534457  0.38403992  1
  Cl  Cl479  1  0.74882673  0.94969067  0.37909260  1
  Cl  Cl480  1  -0.00943994  0.22413373  0.60794895  1
  Cl  Cl481  1  -0.00081543  0.55620435  0.61619046  1
  Cl  Cl482  1  -0.00157141  0.88300936  0.61926499  1
  Cl  Cl483  1  0.49277892  0.22282479  0.60782413  1
  Cl  Cl484  1  0.49827024  0.55085550  0.61649073  1
  Cl  Cl485  1  0.49979378  0.88860756  0.61221354  1
  Cl  Cl486  1  0.00257256  0.11483542  0.12115103  1
  Cl  Cl487  1  -0.00487974  0.44812010  0.11594184  1
  Cl  Cl488  1  -0.00327689  0.78256081  0.12047265  1
  Cl  Cl489  1  0.50686053  0.11060318  0.11462079  1
  Cl  Cl490  1  0.49776425  0.44929345  0.12646081  1
  Cl  Cl491  1  0.50094482  0.78164220  0.11727506  1
  Cl  Cl492  1  0.00300019  0.22173670  0.88646644  1
  Cl  Cl493  1  -0.00206241  0.55764354  0.89031886  1
  Cl  Cl494  1  -0.00260078  0.88821244  0.88740706  1
  Cl  Cl495  1  0.50379417  0.22001336  0.87951229  1
  Cl  Cl496  1  0.49596927  0.54991378  0.88098746  1
  Cl  Cl497  1  0.50381063  0.88851904  0.88297188  1
  Cl  Cl498  1  -0.00227118  0.11388975  0.38529253  1
  Cl  Cl499  1  0.00459977  0.44991671  0.38199300  1
  Cl  Cl500  1  -0.00592544  0.77654089  0.39456649  1
  Cl  Cl501  1  0.49926868  0.11316648  0.38464693  1
  Cl  Cl502  1  0.50566279  0.44336578  0.39591892  1
  Cl  Cl503  1  0.49776983  0.78328319  0.38047174  1
  Cl  Cl504  1  0.36296783  0.14385617  0.75205607  1
  Cl  Cl505  1  0.36123112  0.47537207  0.74844196  1
  Cl  Cl506  1  0.36082451  0.80933962  0.74819877  1
  Cl  Cl507  1  0.86107049  0.14389481  0.75144661  1
  Cl  Cl508  1  0.86199594  0.47535213  0.74728085  1
  Cl  Cl509  1  0.86323952  0.80852930  0.75050932  1
  Cl  Cl510  1  0.13729532  0.19120495  0.25220777  1
  Cl  Cl511  1  0.13614898  0.52279149  0.25076946  1
  Cl  Cl512  1  0.14029978  0.85819637  0.25133689  1
  Cl  Cl513  1  0.64051931  0.19200950  0.25246214  1
  Cl  Cl514  1  0.63799472  0.52321440  0.25046268  1
  Cl  Cl515  1  0.63629083  0.85719559  0.25006740  1
  Cl  Cl516  1  0.13614957  0.14413759  0.74537835  1
  Cl  Cl517  1  0.13929106  0.47499886  0.75031428  1
  Cl  Cl518  1  0.13661412  0.80859994  0.75191426  1
  Cl  Cl519  1  0.63767186  0.14408768  0.74873100  1
  Cl  Cl520  1  0.63740808  0.47555240  0.75221887  1
  Cl  Cl521  1  0.63837324  0.80825781  0.74868202  1
  Cl  Cl522  1  0.35955339  0.19141341  0.25111328  1
  Cl  Cl523  1  0.36365368  0.52288423  0.25048135  1
  Cl  Cl524  1  0.36293814  0.85763235  0.25018234  1
  Cl  Cl525  1  0.86222450  0.19124070  0.24843734  1
  Cl  Cl526  1  0.86498809  0.52269854  0.25143155  1
  Cl  Cl527  1  0.86239422  0.85610661  0.24838377  1
  Cl  Cl528  1  0.11152687  0.30858511  0.74999455  1
  Cl  Cl529  1  0.11196385  0.64164081  0.74968139  1
  Cl  Cl530  1  0.11339669  0.97644599  0.74911916  1
  Cl  Cl531  1  0.61298844  0.30911538  0.75045536  1
  Cl  Cl532  1  0.61268891  0.64168469  0.75089555  1
  Cl  Cl533  1  0.61108969  0.97654738  0.74878652  1
  Cl  Cl534  1  0.39020184  0.02454656  0.25038036  1
  Cl  Cl535  1  0.38709570  0.35678170  0.25049803  1
  Cl  Cl536  1  0.38548960  0.68974689  0.24826492  1
  Cl  Cl537  1  0.88755011  0.02439773  0.24808939  1
  Cl  Cl538  1  0.88796910  0.35712611  0.25014893  1
  Cl  Cl539  1  0.89047739  0.69114105  0.25074165  1
  Cl  Cl540  1  0.38793544  0.30933608  0.74657037  1
  Cl  Cl541  1  0.38709697  0.64187876  0.74915504  1
  Cl  Cl542  1  0.38692387  0.97678162  0.74945015  1
  Cl  Cl543  1  0.88673426  0.30961490  0.74798287  1
  Cl  Cl544  1  0.88940779  0.64118767  0.74892940  1
  Cl  Cl545  1  0.88692000  0.97661090  0.75189348  1
  Cl  Cl546  1  0.11189657  0.02469383  0.25147328  1
  Cl  Cl547  1  0.11198146  0.35600545  0.25291357  1
  Cl  Cl548  1  0.11268585  0.68923131  0.25044312  1
  Cl  Cl549  1  0.61231028  0.02477440  0.24955455  1
  Cl  Cl550  1  0.61347867  0.35591271  0.25376244  1
  Cl  Cl551  1  0.61425887  0.68979171  0.25125043  1
