# generated using pymatgen
data_H8PbC4(N3Cl2)2
_symmetry_space_group_name_H-M   'P 1'
_cell_length_a   16.63362281
_cell_length_b   22.53157393
_cell_length_c   21.59830469
_cell_angle_alpha   90.00058464
_cell_angle_beta   90.03799137
_cell_angle_gamma   89.99095238
_symmetry_Int_Tables_number   1
_chemical_formula_structural   H8PbC4(N3Cl2)2
_chemical_formula_sum   'H192 Pb24 C96 N144 Cl96'
_cell_volume   8094.64751361
_cell_formula_units_Z   24
loop_
 _symmetry_equiv_pos_site_id
 _symmetry_equiv_pos_as_xyz
  1  'x, y, z'
loop_
 _atom_site_type_symbol
 _atom_site_label
 _atom_site_symmetry_multiplicity
 _atom_site_fract_x
 _atom_site_fract_y
 _atom_site_fract_z
 _atom_site_occupancy
  H  H0  1  0.00198457  0.03210659  0.67544972  1
  H  H1  1  -0.01750079  0.36444716  0.67919798  1
  H  H2  1  -0.00125458  0.69334550  0.67886887  1
  H  H3  1  0.50822989  0.02299518  0.67053344  1
  H  H4  1  0.51683850  0.36045684  0.67758098  1
  H  H5  1  0.47422312  0.70166787  0.65884604  1
  H  H6  1  -0.00537461  0.30048512  0.17711652  1
  H  H7  1  -0.01511136  0.63846301  0.17758566  1
  H  H8  1  0.00101366  0.96983433  0.18259999  1
  H  H9  1  0.51147603  0.31356429  0.17536402  1
  H  H10  1  0.51996891  0.63178908  0.18072078  1
  H  H11  1  0.49732462  0.97260476  0.17874828  1
  H  H12  1  0.03517095  0.03303873  0.83838363  1
  H  H13  1  0.00372021  0.35422626  0.82224431  1
  H  H14  1  0.00662726  0.69633712  0.82252683  1
  H  H15  1  0.53214841  0.02811369  0.84377253  1
  H  H16  1  0.50019804  0.36237571  0.82486410  1
  H  H17  1  0.50909783  0.69733896  0.81642620  1
  H  H18  1  -0.01290215  0.30250051  0.31908412  1
  H  H19  1  0.01610801  0.63751520  0.32479894  1
  H  H20  1  0.01451018  0.96983929  0.32500953  1
  H  H21  1  0.51371539  0.30043928  0.32091436  1
  H  H22  1  0.47983072  0.64247358  0.32643718  1
  H  H23  1  0.48813793  0.97150978  0.32185268  1
  H  H24  1  0.24348701  0.18975999  0.67186396  1
  H  H25  1  0.24667312  0.52348309  0.68407987  1
  H  H26  1  0.25129283  0.85969822  0.67406116  1
  H  H27  1  0.74692964  0.19295051  0.67882374  1
  H  H28  1  0.75008515  0.53288690  0.66900313  1
  H  H29  1  0.74735826  0.86015171  0.67201154  1
  H  H30  1  0.21148993  0.13486257  0.16068323  1
  H  H31  1  0.23280487  0.47354197  0.17937384  1
  H  H32  1  0.26332513  0.80692102  0.17304688  1
  H  H33  1  0.71459378  0.13417206  0.16208907  1
  H  H34  1  0.77290065  0.46143020  0.17703861  1
  H  H35  1  0.73953391  0.80307713  0.18446885  1
  H  H36  1  0.27168916  0.19462558  0.82156689  1
  H  H37  1  0.25589186  0.52770782  0.82881340  1
  H  H38  1  0.24703241  0.85943515  0.82514292  1
  H  H39  1  0.72965699  0.19200254  0.82517737  1
  H  H40  1  0.74742362  0.52003918  0.81655764  1
  H  H41  1  0.76670571  0.86601475  0.82060651  1
  H  H42  1  0.24793560  0.14294110  0.33016926  1
  H  H43  1  0.26154279  0.46859409  0.31981120  1
  H  H44  1  0.27499976  0.80439816  0.34566859  1
  H  H45  1  0.74442931  0.13708250  0.32535039  1
  H  H46  1  0.74392317  0.48441586  0.32561541  1
  H  H47  1  0.76194039  0.80907410  0.32169027  1
  H  H48  1  0.11333318  0.05762668  0.59537724  1
  H  H49  1  0.11862183  0.38145271  0.61740412  1
  H  H50  1  0.10420362  0.72876145  0.59962808  1
  H  H51  1  0.60558237  0.06033063  0.58474841  1
  H  H52  1  0.61428333  0.39683929  0.59024144  1
  H  H53  1  0.58795244  0.72720287  0.58274457  1
  H  H54  1  0.37318665  0.28241474  0.12575820  1
  H  H55  1  0.37829990  0.61467689  0.12704898  1
  H  H56  1  0.38227608  0.94113975  0.10344776  1
  H  H57  1  0.87066011  0.27805879  0.10569479  1
  H  H58  1  0.88617662  0.60616911  0.09043711  1
  H  H59  1  0.88541118  0.94550346  0.10351366  1
  H  H60  1  0.42099009  0.06494961  0.91898692  1
  H  H61  1  0.37754215  0.39135990  0.89516227  1
  H  H62  1  0.36865475  0.71669475  0.87018375  1
  H  H63  1  0.91948148  0.05978003  0.91277829  1
  H  H64  1  0.86801284  0.38319181  0.87634326  1
  H  H65  1  0.87202341  0.71798854  0.88285712  1
  H  H66  1  0.12626011  0.28383960  0.37305522  1
  H  H67  1  0.11445202  0.60710530  0.41390224  1
  H  H68  1  0.12010240  0.94049080  0.40811755  1
  H  H69  1  0.62147403  0.27511801  0.40403962  1
  H  H70  1  0.62413177  0.61641277  0.37125815  1
  H  H71  1  0.61908570  0.94425836  0.38587205  1
  H  H72  1  0.37170510  0.22101489  0.60867548  1
  H  H73  1  0.37419637  0.55506901  0.62120634  1
  H  H74  1  0.37894846  0.89042998  0.60895543  1
  H  H75  1  0.87305039  0.21610703  0.61074833  1
  H  H76  1  0.87367188  0.55505557  0.60056886  1
  H  H77  1  0.87864706  0.88402527  0.60948180  1
  H  H78  1  0.07787238  0.11217511  0.10075599  1
  H  H79  1  0.13708130  0.43971812  0.09201812  1
  H  H80  1  0.13981461  0.77458736  0.10686249  1
  H  H81  1  0.58179803  0.11319152  0.10170346  1
  H  H82  1  0.63205826  0.44592171  0.12526153  1
  H  H83  1  0.63646284  0.77808945  0.09861812  1
  H  H84  1  0.13083580  0.21606526  0.87645006  1
  H  H85  1  0.12382091  0.55268199  0.89006484  1
  H  H86  1  0.11566010  0.88508985  0.88560511  1
  H  H87  1  0.64017351  0.23191639  0.91481345  1
  H  H88  1  0.62290723  0.55117086  0.88266870  1
  H  H89  1  0.62620227  0.88323557  0.87066553  1
  H  H90  1  0.38079790  0.11428914  0.38908686  1
  H  H91  1  0.37641081  0.44300866  0.39659326  1
  H  H92  1  0.41507993  0.78106078  0.39489797  1
  H  H93  1  0.88493539  0.12030419  0.38008348  1
  H  H94  1  0.88208678  0.45306580  0.37379537  1
  H  H95  1  0.89082238  0.78004861  0.38734079  1
  H  H96  1  0.37494012  0.27848217  0.37690681  1
  H  H97  1  0.38356031  0.60761220  0.41489344  1
  H  H98  1  0.37123445  0.94139510  0.39844428  1
  H  H99  1  0.88053435  0.28072579  0.40175598  1
  H  H100  1  0.87274954  0.61283413  0.37150730  1
  H  H101  1  0.87516847  0.95018661  0.37946125  1
  H  H102  1  0.16760964  0.05617515  0.89914793  1
  H  H103  1  0.11454169  0.38834199  0.90084907  1
  H  H104  1  0.11803063  0.72591362  0.90286771  1
  H  H105  1  0.66841836  0.05440191  0.89886984  1
  H  H106  1  0.62490176  0.38771776  0.89445265  1
  H  H107  1  0.61343752  0.72418991  0.90148640  1
  H  H108  1  0.11994335  0.27913174  0.10971209  1
  H  H109  1  0.12909469  0.61852768  0.12991211  1
  H  H110  1  0.13299393  0.94575981  0.12100234  1
  H  H111  1  0.61813538  0.27595458  0.09625746  1
  H  H112  1  0.62302136  0.60562827  0.09409159  1
  H  H113  1  0.63007867  0.94942043  0.11601654  1
  H  H114  1  0.36436125  0.04472670  0.62666335  1
  H  H115  1  0.37331210  0.37956398  0.62924662  1
  H  H116  1  0.34104464  0.72584024  0.60120134  1
  H  H117  1  0.86678258  0.05098023  0.61520933  1
  H  H118  1  0.87265394  0.39484778  0.59672127  1
  H  H119  1  0.85834754  0.71396707  0.62404233  1
  H  H120  1  0.13376583  0.11116000  0.40509693  1
  H  H121  1  0.12843576  0.44579320  0.37848187  1
  H  H122  1  0.17068883  0.77009246  0.42735640  1
  H  H123  1  0.64064917  0.10131007  0.40724170  1
  H  H124  1  0.63755752  0.44925164  0.40733541  1
  H  H125  1  0.64292295  0.77492744  0.39363101  1
  H  H126  1  0.37504250  0.22731535  0.90715306  1
  H  H127  1  0.37149868  0.55817548  0.90346376  1
  H  H128  1  0.36431660  0.89311652  0.89940457  1
  H  H129  1  0.87710661  0.21100827  0.86291651  1
  H  H130  1  0.87201080  0.54781607  0.88686970  1
  H  H131  1  0.87035306  0.89314712  0.90426504  1
  H  H132  1  0.32638293  0.10683479  0.08565803  1
  H  H133  1  0.37758895  0.45447599  0.13777692  1
  H  H134  1  0.38851023  0.77931775  0.10460189  1
  H  H135  1  0.82979924  0.10535758  0.08803154  1
  H  H136  1  0.87541586  0.43628437  0.08883045  1
  H  H137  1  0.88043855  0.78896571  0.13392219  1
  H  H138  1  0.12355952  0.21807299  0.59949950  1
  H  H139  1  0.12584971  0.55075049  0.61028908  1
  H  H140  1  0.13021361  0.89110251  0.60420065  1
  H  H141  1  0.62346342  0.22390281  0.61009679  1
  H  H142  1  0.62573584  0.55925868  0.60322424  1
  H  H143  1  0.63092734  0.89143998  0.59758209  1
  H  H144  1  0.47177085  0.58310704  0.50997083  1
  H  H145  1  0.71776932  0.08300288  0.50808655  1
  H  H146  1  0.15684820  0.41115278  0.49008783  1
  H  H147  1  0.27148221  0.07682376  -0.02269376  1
  H  H148  1  0.15960706  0.58511324  0.99711623  1
  H  H149  1  0.88071969  0.74125317  0.51530030  1
  H  H150  1  0.04392602  0.41767111  1.00139784  1
  H  H151  1  0.53309880  0.75655607  0.47450347  1
  H  H152  1  0.69358181  0.90643076  0.49355392  1
  H  H153  1  0.82010900  0.56862185  0.99354432  1
  H  H154  1  0.52142515  0.08277130  0.48703297  1
  H  H155  1  0.96767788  0.57713007  -0.00830128  1
  H  H156  1  0.24246274  0.74750792  0.52839157  1
  H  H157  1  0.71341575  0.41967906  0.50524922  1
  H  H158  1  0.54459870  0.57774140  -0.00729275  1
  H  H159  1  0.54284962  0.24669656  -0.00304017  1
  H  H160  1  0.18230830  0.57243146  0.50509521  1
  H  H161  1  0.84311774  0.91922104  0.50546840  1
  H  H162  1  0.54692418  0.24533513  0.50782923  1
  H  H163  1  0.07915728  0.25160472  0.99743917  1
  H  H164  1  0.04840981  0.75169777  1.00381737  1
  H  H165  1  0.52877197  0.42135112  0.49451083  1
  H  H166  1  0.57807852  0.41569804  0.99966751  1
  H  H167  1  0.35066007  0.08213793  0.49843740  1
  H  H168  1  0.97269946  0.09006116  1.02151028  1
  H  H169  1  0.82804608  0.25138048  0.50163517  1
  H  H170  1  0.86501633  0.08181061  0.48596295  1
  H  H171  1  0.31977627  0.40946958  0.50213323  1
  H  H172  1  0.73075277  0.25322119  1.00816679  1
  H  H173  1  0.30365119  0.91575178  1.00374214  1
  H  H174  1  0.02789791  0.57988419  0.50877757  1
  H  H175  1  0.70948538  0.75176104  -0.00473455  1
  H  H176  1  0.48491913  0.09080097  1.02261209  1
  H  H177  1  0.63905810  0.91025430  -0.01421136  1
  H  H178  1  0.53858284  0.75613793  1.00204779  1
  H  H179  1  0.95090908  0.25722603  0.50973188  1
  H  H180  1  0.33388787  0.59039056  0.51206191  1
  H  H181  1  0.03407866  0.76190613  0.49648872  1
  H  H182  1  0.86796404  0.76140906  1.01906512  1
  H  H183  1  0.14646509  0.91667404  0.99725090  1
  H  H184  1  0.21872818  0.40880867  -0.00647910  1
  H  H185  1  0.77540119  0.07490074  -0.02055164  1
  H  H186  1  0.66890364  0.58932423  0.99006422  1
  H  H187  1  0.37521672  0.42170153  1.02430730  1
  H  H188  1  0.34157232  0.74541491  0.00110491  1
  H  H189  1  0.88155182  0.24898212  0.97465762  1
  H  H190  1  0.79790918  0.92054368  1.00856756  1
  H  H191  1  0.67510552  0.24829807  0.50352535  1
  Pb  Pb192  1  0.24879518  0.04813854  0.75049967  1
  Pb  Pb193  1  0.24109470  0.38409401  0.75489081  1
  Pb  Pb194  1  0.23866075  0.72027849  0.75478567  1
  Pb  Pb195  1  0.74346187  0.05128661  0.74737183  1
  Pb  Pb196  1  0.74507010  0.38243386  0.73864011  1
  Pb  Pb197  1  0.73696924  0.71758568  0.75161249  1
  Pb  Pb198  1  0.25305797  0.28427089  0.24608202  1
  Pb  Pb199  1  0.25528343  0.61663180  0.26616773  1
  Pb  Pb200  1  0.25319510  0.94482053  0.25207745  1
  Pb  Pb201  1  0.75615128  0.27875788  0.25497924  1
  Pb  Pb202  1  0.75796330  0.61720520  0.22850713  1
  Pb  Pb203  1  0.75521644  0.95219605  0.25141259  1
  Pb  Pb204  1  0.00030788  0.21416871  0.74265268  1
  Pb  Pb205  1  -0.00901922  0.55163135  0.74719593  1
  Pb  Pb206  1  -0.00934457  0.88633920  0.74890173  1
  Pb  Pb207  1  0.49192048  0.21801711  0.75662577  1
  Pb  Pb208  1  0.49508161  0.55076241  0.74958102  1
  Pb  Pb209  1  0.49537064  0.88394844  0.75199457  1
  Pb  Pb210  1  0.00654488  0.11608979  0.25063429  1
  Pb  Pb211  1  0.00539258  0.44982848  0.23268999  1
  Pb  Pb212  1  0.01088944  0.78336111  0.25540626  1
  Pb  Pb213  1  0.49665633  0.11559910  0.25040102  1
  Pb  Pb214  1  0.51066656  0.44872162  0.25848844  1
  Pb  Pb215  1  0.50933609  0.78269101  0.23776126  1
  C  C216  1  -0.00660081  0.04580625  0.62799661  1
  C  C217  1  -0.00906107  0.37930944  0.63179140  1
  C  C218  1  -0.01372773  0.70992795  0.63250635  1
  C  C219  1  0.49269005  0.04072511  0.62538341  1
  C  C220  1  0.50182119  0.37784051  0.63219720  1
  C  C221  1  0.46752961  0.71777916  0.61166122  1
  C  C222  1  -0.00428681  0.28642104  0.12912108  1
  C  C223  1  0.00045633  0.62145891  0.13205860  1
  C  C224  1  0.00633009  0.95426691  0.13543076  1
  C  C225  1  0.50094464  0.29280949  0.13102737  1
  C  C226  1  0.50698033  0.61783337  0.13368309  1
  C  C227  1  0.50364403  0.95525757  0.13239539  1
  C  C228  1  0.04107976  0.04899875  0.88573621  1
  C  C229  1  -0.00426260  0.37332514  0.86774412  1
  C  C230  1  -0.00097104  0.71256173  0.86945214  1
  C  C231  1  0.54030841  0.04839569  0.88906661  1
  C  C232  1  0.50110844  0.37967123  0.87171953  1
  C  C233  1  0.49649048  0.71245726  0.86313442  1
  C  C234  1  -0.00204686  0.28961032  0.36664993  1
  C  C235  1  0.00153765  0.62074107  0.37056122  1
  C  C236  1  0.00275970  0.95420223  0.37137892  1
  C  C237  1  0.50309650  0.28546015  0.36794825  1
  C  C238  1  0.49526738  0.62370146  0.37121833  1
  C  C239  1  0.49277242  0.95344026  0.36828424  1
  C  C240  1  0.24653263  0.20930471  0.62626698  1
  C  C241  1  0.24849510  0.54078815  0.63714139  1
  C  C242  1  0.25380044  0.87965755  0.62859630  1
  C  C243  1  0.74732247  0.21050042  0.63188336  1
  C  C244  1  0.74985500  0.54908856  0.62190240  1
  C  C245  1  0.75224366  0.87761138  0.62526656  1
  C  C246  1  0.20489325  0.11829795  0.11359272  1
  C  C247  1  0.24997303  0.45659309  0.13413994  1
  C  C248  1  0.26437138  0.78789354  0.12705586  1
  C  C249  1  0.70837685  0.11822525  0.11476680  1
  C  C250  1  0.76026780  0.44816176  0.12988716  1
  C  C251  1  0.75282009  0.78981428  0.13714403  1
  C  C252  1  0.25934152  0.21153172  0.86774232  1
  C  C253  1  0.24990378  0.54543882  0.87518884  1
  C  C254  1  0.24301527  0.87719573  0.87182069  1
  C  C255  1  0.74908509  0.20997883  0.86960335  1
  C  C256  1  0.74812393  0.53790115  0.86331642  1
  C  C257  1  0.75369591  0.88025386  0.86771218  1
  C  C258  1  0.25490920  0.12392677  0.37583166  1
  C  C259  1  0.25523310  0.45255960  0.36703355  1
  C  C260  1  0.28657015  0.78658897  0.39157252  1
  C  C261  1  0.75689064  0.12103480  0.37193528  1
  C  C262  1  0.75429647  0.46428301  0.37036768  1
  C  C263  1  0.76550189  0.78948230  0.36748637  1
  C  C264  1  0.68879877  0.90304989  0.95385438  1
  C  C265  1  0.99268022  0.59054629  0.03628806  1
  C  C266  1  0.20247809  0.42259682  0.45589221  1
  C  C267  1  0.51032042  0.74225055  0.95875965  1
  C  C268  1  0.97997397  0.26629826  0.46554990  1
  C  C269  1  0.22023601  0.91853115  0.53963150  1
  C  C270  1  0.43928265  0.25329170  0.04965000  1
  C  C271  1  0.73795190  0.76407773  0.03883481  1
  C  C272  1  0.81693176  0.42653763  0.45206887  1
  C  C273  1  0.22579185  0.08782318  0.46879538  1
  C  C274  1  0.23564559  0.08805039  0.01813877  1
  C  C275  1  0.28425739  0.42203277  0.46204063  1
  C  C276  1  0.29402961  0.57506820  0.54860558  1
  C  C277  1  0.81821585  0.76880027  0.05085138  1
  C  C278  1  0.51948674  0.25671408  0.46364773  1
  C  C279  1  0.51869230  0.58992546  0.03720881  1
  C  C280  1  0.15278989  0.09052968  0.02288922  1
  C  C281  1  0.05991712  0.26742444  0.45369199  1
  C  C282  1  0.42198613  0.07051700  0.54455123  1
  C  C283  1  0.03699979  0.26166724  0.03446812  1
  C  C284  1  0.28114577  0.58027374  0.96853681  1
  C  C285  1  0.05499635  0.92628590  0.04587664  1
  C  C286  1  0.21435031  0.24631607  0.53626026  1
  C  C287  1  1.00907975  0.07855143  0.98119054  1
  C  C288  1  0.01905294  0.92336700  0.46687825  1
  C  C289  1  0.76930271  0.90759756  0.96540074  1
  C  C290  1  0.95554576  0.26246417  0.03496789  1
  C  C291  1  0.41403325  0.74481143  0.52091850  1
  C  C292  1  0.78963268  0.57830854  0.53052364  1
  C  C293  1  0.93763316  0.40979736  0.95221220  1
  C  C294  1  0.70881249  0.57992242  0.53150831  1
  C  C295  1  0.32264166  0.42985443  0.05313143  1
  C  C296  1  0.22339302  0.75012730  0.03737311  1
  C  C297  1  0.69798845  0.42506221  0.04355706  1
  C  C298  1  0.49685785  0.74620470  0.51509069  1
  C  C299  1  0.00554137  0.74505219  0.53854086  1
  C  C300  1  0.73943456  0.08783912  0.01948108  1
  C  C301  1  0.59670135  0.07952929  0.97615111  1
  C  C302  1  0.19131262  0.90716625  0.96039628  1
  C  C303  1  0.65660870  0.09178442  0.02342437  1
  C  C304  1  0.24333439  0.42373399  0.03763334  1
  C  C305  1  0.82606424  0.24043128  0.94604955  1
  C  C306  1  0.35032674  0.75731406  0.47646902  1
  C  C307  1  0.70654061  0.57230789  0.95298539  1
  C  C308  1  0.79016651  0.24198414  0.54139349  1
  C  C309  1  0.01679503  0.07244337  0.53193734  1
  C  C310  1  0.47662519  0.92077469  0.03975808  1
  C  C311  1  0.09195675  0.07692793  0.97675574  1
  N  N312  1  0.53982415  0.91971454  0.45699452  1
  N  N313  1  0.78612470  0.56939358  0.95399510  1
  N  N314  1  0.81757303  0.09784713  0.45707872  1
  N  N315  1  0.30398141  0.09088686  0.46311299  1
  N  N316  1  0.92738321  0.73852489  0.54787447  1
  N  N317  1  0.71061136  0.24497392  0.54206465  1
  N  N318  1  0.94292947  0.74163187  0.95652124  1
  N  N319  1  0.43233861  0.73876799  0.94889673  1
  N  N320  1  0.74128837  0.08284482  0.46326188  1
  N  N321  1  0.53899155  0.40832041  0.96254869  1
  N  N322  1  0.44129551  0.25755989  0.45431963  1
  N  N323  1  0.02034285  0.74528576  0.96174018  1
  N  N324  1  0.43174128  0.40636423  0.55076805  1
  N  N325  1  0.46067586  0.40925195  0.96390199  1
  N  N326  1  0.19941959  0.24122813  0.95340738  1
  N  N327  1  0.29745173  0.91781530  0.53960989  1
  N  N328  1  0.20269802  0.57710095  0.96329649  1
  N  N329  1  0.93229430  0.58838040  0.45064220  1
  N  N330  1  0.97795647  0.92557211  0.03892100  1
  N  N331  1  0.80104014  0.90137105  0.53583806  1
  N  N332  1  0.55375457  0.92395714  0.04293297  1
  N  N333  1  0.27047396  0.75146785  0.48513853  1
  N  N334  1  0.94242524  0.92702583  0.45885184  1
  N  N335  1  0.06987318  0.59476814  0.04906211  1
  N  N336  1  0.73246368  0.75160597  0.45776462  1
  N  N337  1  0.80881569  0.75313918  0.45553166  1
  N  N338  1  0.30224853  0.75336649  0.03754451  1
  N  N339  1  0.27091525  0.91075174  0.96373756  1
  N  N340  1  0.72284474  0.91381730  0.53479715  1
  N  N341  1  0.73919404  0.42683436  0.46228859  1
  N  N342  1  0.21453125  0.57266238  0.54552864  1
  N  N343  1  0.49015314  0.58956240  0.46437089  1
  N  N344  1  0.29162644  0.24737289  0.53781775  1
  N  N345  1  0.93946990  0.06969842  0.53729693  1
  N  N346  1  0.46349364  0.91827565  0.46078360  1
  N  N347  1  0.50781326  0.41244018  0.53929840  1
  N  N348  1  0.77389024  0.42156776  0.03084301  1
  N  N349  1  0.96951946  0.40842143  0.53563698  1
  N  N350  1  0.04477606  0.40379874  0.54210361  1
  N  N351  1  0.49903741  0.07622380  0.53190341  1
  N  N352  1  0.51644956  0.08573306  0.98072536  1
  N  N353  1  0.44100719  0.59219423  0.04824531  1
  N  N354  1  0.27436506  0.24469791  0.96324123  1
  N  N355  1  0.00841484  0.58641700  0.46343225  1
  N  N356  1  0.56605126  0.59262697  0.45102259  1
  N  N357  1  0.51710725  0.25350303  0.04000634  1
  N  N358  1  0.74988159  0.24749805  0.96251928  1
  N  N359  1  0.01591440  0.41025684  0.95938640  1
  N  N360  1  0.05166542  0.05779900  0.58642007  1
  N  N361  1  0.05966449  0.38522032  0.60145587  1
  N  N362  1  0.04226524  0.72755900  0.59111952  1
  N  N363  1  0.54346424  0.05421093  0.58058665  1
  N  N364  1  0.55210194  0.39310586  0.58751783  1
  N  N365  1  0.52751011  0.72912446  0.57166999  1
  N  N366  1  0.42929765  0.27678900  0.10635290  1
  N  N367  1  0.43550861  0.60944600  0.10811721  1
  N  N368  1  0.44353258  0.93998800  0.09358771  1
  N  N369  1  0.93063864  0.27704516  0.09232387  1
  N  N370  1  0.94862003  0.60670527  0.08689322  1
  N  N371  1  0.94742882  0.94357555  0.09610285  1
  N  N372  1  0.48259081  0.06305140  0.92825146  1
  N  N373  1  0.43780490  0.39291648  0.90677017  1
  N  N374  1  0.42541907  0.72022688  0.88908411  1
  N  N375  1  0.98007547  0.06093741  0.92463895  1
  N  N376  1  0.92493381  0.38800807  0.89504344  1
  N  N377  1  0.93012149  0.72344286  0.89832496  1
  N  N378  1  0.07020725  0.28119336  0.39407455  1
  N  N379  1  0.05217749  0.60868453  0.41618096  1
  N  N380  1  0.05819181  0.93983516  0.41462860  1
  N  N381  1  0.55934546  0.27351376  0.41084518  1
  N  N382  1  0.56859591  0.61195955  0.39255933  1
  N  N383  1  0.55919544  0.94122630  0.39957413  1
  N  N384  1  0.31189810  0.22385320  0.59508992  1
  N  N385  1  0.31502436  0.55686895  0.60583630  1
  N  N386  1  0.31873984  0.89284224  0.59621623  1
  N  N387  1  0.81330787  0.22236371  0.59762612  1
  N  N388  1  0.81471746  0.55977158  0.58578919  1
  N  N389  1  0.81945878  0.88882357  0.59471589  1
  N  N390  1  0.13589323  0.10969145  0.08329057  1
  N  N391  1  0.19940843  0.44064425  0.08861343  1
  N  N392  1  0.19972732  0.77146651  0.09271839  1
  N  N393  1  0.63950305  0.11104806  0.08383249  1
  N  N394  1  0.68742835  0.44109249  0.10386902  1
  N  N395  1  0.69859398  0.77730304  0.09309711  1
  N  N396  1  0.18875151  0.22096371  0.89409094  1
  N  N397  1  0.18259673  0.55487534  0.90589367  1
  N  N398  1  0.17413859  0.88811319  0.90261456  1
  N  N399  1  0.70226360  0.22523773  0.91654241  1
  N  N400  1  0.68285358  0.55400899  0.89640758  1
  N  N401  1  0.68061750  0.88641695  0.89318576  1
  N  N402  1  0.32274410  0.11373916  0.40564087  1
  N  N403  1  0.31568969  0.44089781  0.40644436  1
  N  N404  1  0.35915980  0.77687251  0.41680772  1
  N  N405  1  0.82810487  0.11313514  0.39800784  1
  N  N406  1  0.82638822  0.44844070  0.39474395  1
  N  N407  1  0.83094651  0.77652958  0.39968392  1
  N  N408  1  0.43292714  0.27578374  0.39506183  1
  N  N409  1  0.44535192  0.61111318  0.41730848  1
  N  N410  1  0.43293967  0.93958315  0.40624821  1
  N  N411  1  0.94196099  0.28006164  0.40989390  1
  N  N412  1  0.92861321  0.60818564  0.39230108  1
  N  N413  1  0.93224923  0.94624081  0.39791513  1
  N  N414  1  0.10969717  0.05824624  0.91633054  1
  N  N415  1  0.05282237  0.38549864  0.90853845  1
  N  N416  1  0.05609821  0.72461496  0.91025206  1
  N  N417  1  0.61105662  0.05866809  0.91753004  1
  N  N418  1  0.56452448  0.38869697  0.90729275  1
  N  N419  1  0.55106474  0.72611995  0.90666670  1
  N  N420  1  0.06060909  0.27694056  0.09461994  1
  N  N421  1  0.07309824  0.61340214  0.10893215  1
  N  N422  1  0.07489327  0.94316219  0.10448217  1
  N  N423  1  0.55623438  0.28015477  0.08895741  1
  N  N424  1  0.56108293  0.60568518  0.08920963  1
  N  N425  1  0.57090938  0.94558096  0.10151564  1
  N  N426  1  0.41791459  0.05085034  0.60346145  1
  N  N427  1  0.42857326  0.38652098  0.60923704  1
  N  N428  1  0.39826102  0.72701840  0.58200264  1
  N  N429  1  0.92462356  0.05293686  0.59839722  1
  N  N430  1  0.93442937  0.39359135  0.59118628  1
  N  N431  1  0.91570316  0.71450122  0.60482346  1
  N  N432  1  0.19500498  0.10800857  0.41499811  1
  N  N433  1  0.18615071  0.44154600  0.39670579  1
  N  N434  1  0.23192222  0.77424183  0.43423504  1
  N  N435  1  0.70241799  0.10706119  0.41440656  1
  N  N436  1  0.69965546  0.45232912  0.41306424  1
  N  N437  1  0.70439297  0.77441517  0.40354643  1
  N  N438  1  0.31312082  0.22585466  0.91067059  1
  N  N439  1  0.31080374  0.56091511  0.91405604  1
  N  N440  1  0.30286752  0.88921339  0.91019316  1
  N  N441  1  0.82532705  0.21891751  0.88788042  1
  N  N442  1  0.81149416  0.54518762  0.89960272  1
  N  N443  1  0.80835033  0.89309906  0.91143216  1
  N  N444  1  0.26537478  0.10510179  0.07457882  1
  N  N445  1  0.32505097  0.44996630  0.11287050  1
  N  N446  1  0.32822964  0.77761289  0.09244554  1
  N  N447  1  0.76897254  0.10469264  0.07615503  1
  N  N448  1  0.81303938  0.43611034  0.08600702  1
  N  N449  1  0.82594926  0.78447095  0.11179339  1
  N  N450  1  0.18393054  0.22333709  0.58937633  1
  N  N451  1  0.18686710  0.54795936  0.59907625  1
  N  N452  1  0.19049917  0.89546673  0.59300581  1
  N  N453  1  0.68415418  0.22229343  0.59687611  1
  N  N454  1  0.68439821  0.56220747  0.58716338  1
  N  N455  1  0.69203228  0.88856488  0.58680141  1
  Cl  Cl456  1  0.23353713  0.05950218  0.61741139  1
  Cl  Cl457  1  0.24269719  0.38606005  0.62279614  1
  Cl  Cl458  1  0.21962331  0.72672806  0.61647604  1
  Cl  Cl459  1  0.72684634  0.06407586  0.60345941  1
  Cl  Cl460  1  0.73876696  0.39703315  0.59833673  1
  Cl  Cl461  1  0.72870120  0.72329220  0.62117092  1
  Cl  Cl462  1  0.24548281  0.27576347  0.11915986  1
  Cl  Cl463  1  0.25403364  0.61809932  0.13380906  1
  Cl  Cl464  1  0.26088682  0.93724358  0.11069416  1
  Cl  Cl465  1  0.74012565  0.26657554  0.10519088  1
  Cl  Cl466  1  0.75819794  0.60336317  0.09217409  1
  Cl  Cl467  1  0.76146973  0.94809538  0.11785408  1
  Cl  Cl468  1  0.30071913  0.05693350  0.88416918  1
  Cl  Cl469  1  0.24231446  0.39306655  0.89017732  1
  Cl  Cl470  1  0.23816668  0.72488463  0.88808563  1
  Cl  Cl471  1  0.79338114  0.05581012  0.87810230  1
  Cl  Cl472  1  0.74167901  0.38764639  0.87008992  1
  Cl  Cl473  1  0.73868092  0.71804176  0.88845854  1
  Cl  Cl474  1  0.25072677  0.27607832  0.37644336  1
  Cl  Cl475  1  0.24415689  0.60652219  0.40812926  1
  Cl  Cl476  1  0.24480072  0.94187237  0.38476071  1
  Cl  Cl477  1  0.74671458  0.27648165  0.39661209  1
  Cl  Cl478  1  0.74866646  0.61101182  0.35883519  1
  Cl  Cl479  1  0.74295879  0.94043941  0.38856202  1
  Cl  Cl480  1  -0.00266188  0.21366628  0.60917417  1
  Cl  Cl481  1  0.00554062  0.56238485  0.60648459  1
  Cl  Cl482  1  0.00330367  0.88443061  0.61407662  1
  Cl  Cl483  1  0.50214184  0.22363950  0.62131586  1
  Cl  Cl484  1  0.49527787  0.56466839  0.60665396  1
  Cl  Cl485  1  0.50940094  0.89125675  0.61948062  1
  Cl  Cl486  1  -0.04832642  0.11056156  0.12017012  1
  Cl  Cl487  1  0.00960546  0.43916611  0.09485761  1
  Cl  Cl488  1  0.01847330  0.77325482  0.11539753  1
  Cl  Cl489  1  0.45138548  0.11119873  0.10968924  1
  Cl  Cl490  1  0.50906115  0.44000723  0.12576682  1
  Cl  Cl491  1  0.51290124  0.77748456  0.10345891  1
  Cl  Cl492  1  0.00672513  0.21799339  0.87500586  1
  Cl  Cl493  1  -0.00439697  0.55410454  0.88493137  1
  Cl  Cl494  1  -0.00839839  0.89035035  0.88097985  1
  Cl  Cl495  1  0.51364697  0.23051299  0.90219625  1
  Cl  Cl496  1  0.49813712  0.55421040  0.88395728  1
  Cl  Cl497  1  0.48585028  0.89871724  0.88431475  1
  Cl  Cl498  1  0.01216934  0.11634745  0.38371244  1
  Cl  Cl499  1  0.00572449  0.44956253  0.36257089  1
  Cl  Cl500  1  0.02761870  0.77661058  0.39094005  1
  Cl  Cl501  1  0.51882644  0.10092785  0.39387456  1
  Cl  Cl502  1  0.51423459  0.44036881  0.40089776  1
  Cl  Cl503  1  0.52725995  0.77588333  0.37124490  1
  Cl  Cl504  1  0.36006631  0.14952307  0.73832173  1
  Cl  Cl505  1  0.36540179  0.47722980  0.75230975  1
  Cl  Cl506  1  0.36263422  0.81161680  0.75275029  1
  Cl  Cl507  1  0.86265372  0.14678066  0.73986508  1
  Cl  Cl508  1  0.86078695  0.48047905  0.74289138  1
  Cl  Cl509  1  0.85973307  0.81232882  0.74818439  1
  Cl  Cl510  1  0.14797190  0.17946738  0.24749094  1
  Cl  Cl511  1  0.14297090  0.51720704  0.24846081  1
  Cl  Cl512  1  0.14552660  0.85104431  0.24419289  1
  Cl  Cl513  1  0.64708023  0.18328466  0.24740323  1
  Cl  Cl514  1  0.64281881  0.51801142  0.23876189  1
  Cl  Cl515  1  0.64583481  0.85013553  0.25119127  1
  Cl  Cl516  1  0.13887795  0.14989444  0.75859730  1
  Cl  Cl517  1  0.14290104  0.48582704  0.75622406  1
  Cl  Cl518  1  0.14284062  0.81995554  0.74893302  1
  Cl  Cl519  1  0.64163985  0.14847700  0.75467771  1
  Cl  Cl520  1  0.63819944  0.48623194  0.74033894  1
  Cl  Cl521  1  0.63938213  0.82067651  0.75578650  1
  Cl  Cl522  1  0.37308051  0.18855028  0.26526211  1
  Cl  Cl523  1  0.36624878  0.52022994  0.25206609  1
  Cl  Cl524  1  0.36184274  0.85176242  0.25754659  1
  Cl  Cl525  1  0.86699102  0.19385619  0.26759935  1
  Cl  Cl526  1  0.86720597  0.51944020  0.24448015  1
  Cl  Cl527  1  0.87517843  0.85667043  0.24782139  1
  Cl  Cl528  1  0.10376852  0.31906974  0.74684297  1
  Cl  Cl529  1  0.10450227  0.65139069  0.74901771  1
  Cl  Cl530  1  0.10758621  0.98415793  0.75947786  1
  Cl  Cl531  1  0.60955962  0.31480575  0.74915916  1
  Cl  Cl532  1  0.59934018  0.65450418  0.74508062  1
  Cl  Cl533  1  0.60791747  0.98499189  0.76204128  1
  Cl  Cl534  1  0.39396845  0.02080120  0.25092400  1
  Cl  Cl535  1  0.38645712  0.35605627  0.24941775  1
  Cl  Cl536  1  0.38827671  0.68826693  0.25104635  1
  Cl  Cl537  1  0.88249735  0.02525660  0.27151735  1
  Cl  Cl538  1  0.88608095  0.35344089  0.24029291  1
  Cl  Cl539  1  0.89026245  0.68762063  0.25003068  1
  Cl  Cl540  1  0.38979505  0.31323213  0.75524472  1
  Cl  Cl541  1  0.38010482  0.64682882  0.74489239  1
  Cl  Cl542  1  0.38022223  0.97937354  0.73303321  1
  Cl  Cl543  1  0.88102798  0.31139174  0.75084680  1
  Cl  Cl544  1  0.88469446  0.64564912  0.75750677  1
  Cl  Cl545  1  0.88214493  0.97684726  0.72632647  1
  Cl  Cl546  1  0.10806860  0.01683477  0.24580376  1
  Cl  Cl547  1  0.11037884  0.34621345  0.24847698  1
  Cl  Cl548  1  0.11389999  0.67950367  0.25053112  1
  Cl  Cl549  1  0.61759997  0.02013485  0.24101979  1
  Cl  Cl550  1  0.61009468  0.35094207  0.25254938  1
  Cl  Cl551  1  0.60946190  0.68330617  0.24743612  1
