# generated using pymatgen
data_H8PbC4(N3Cl2)2
_symmetry_space_group_name_H-M   'P 1'
_cell_length_a   16.62656020
_cell_length_b   22.51996176
_cell_length_c   21.59665174
_cell_angle_alpha   90.00037292
_cell_angle_beta   90.00265840
_cell_angle_gamma   90.00602952
_symmetry_Int_Tables_number   1
_chemical_formula_structural   H8PbC4(N3Cl2)2
_chemical_formula_sum   'H192 Pb24 C96 N144 Cl96'
_cell_volume   8086.42345196
_cell_formula_units_Z   24
loop_
 _symmetry_equiv_pos_site_id
 _symmetry_equiv_pos_as_xyz
  1  'x, y, z'
loop_
 _atom_site_type_symbol
 _atom_site_label
 _atom_site_symmetry_multiplicity
 _atom_site_fract_x
 _atom_site_fract_y
 _atom_site_fract_z
 _atom_site_occupancy
  H  H0  1  0.00595342  0.02642126  0.67481386  1
  H  H1  1  -0.00013104  0.36238346  0.67888473  1
  H  H2  1  -0.00003992  0.69392626  0.68269496  1
  H  H3  1  0.50573928  0.03088791  0.67798973  1
  H  H4  1  0.49136673  0.36126421  0.67441332  1
  H  H5  1  0.49462432  0.69757878  0.67704678  1
  H  H6  1  -0.00056063  0.30714227  0.17851989  1
  H  H7  1  0.01231868  0.63273225  0.17385296  1
  H  H8  1  0.00509105  0.97003461  0.17779149  1
  H  H9  1  0.51381709  0.30646862  0.17910957  1
  H  H10  1  0.49225397  0.63769890  0.18263049  1
  H  H11  1  0.50888190  0.96995020  0.17827896  1
  H  H12  1  0.01049682  0.03158244  0.82087014  1
  H  H13  1  0.00906706  0.36019107  0.82259507  1
  H  H14  1  0.01154743  0.69073417  0.82433133  1
  H  H15  1  0.49633737  0.02806991  0.82290991  1
  H  H16  1  0.49744919  0.36278730  0.81919244  1
  H  H17  1  0.49411338  0.69789011  0.82462621  1
  H  H18  1  -0.02092801  0.30651509  0.32400884  1
  H  H19  1  0.00585719  0.63984137  0.32169844  1
  H  H20  1  0.01956011  0.96856893  0.32671876  1
  H  H21  1  0.51551809  0.29968225  0.32036122  1
  H  H22  1  0.48785146  0.64167232  0.32499108  1
  H  H23  1  0.49234172  0.96865643  0.32013904  1
  H  H24  1  0.24177103  0.19576473  0.67917651  1
  H  H25  1  0.26516634  0.53271728  0.67968620  1
  H  H26  1  0.26047430  0.85864962  0.67629409  1
  H  H27  1  0.75053627  0.19578915  0.68416207  1
  H  H28  1  0.73636850  0.52962154  0.67384492  1
  H  H29  1  0.73922811  0.86435852  0.67125822  1
  H  H30  1  0.24387920  0.13498069  0.18073249  1
  H  H31  1  0.25799430  0.47372878  0.17800621  1
  H  H32  1  0.24911662  0.80599610  0.17928863  1
  H  H33  1  0.75600810  0.14105880  0.17911885  1
  H  H34  1  0.73963865  0.46998792  0.17815865  1
  H  H35  1  0.74613718  0.80480902  0.17861591  1
  H  H36  1  0.24415353  0.19959733  0.82125074  1
  H  H37  1  0.26677939  0.53211724  0.81951408  1
  H  H38  1  0.24798130  0.86095858  0.81838210  1
  H  H39  1  0.75458000  0.19166820  0.82222295  1
  H  H40  1  0.73228967  0.52593608  0.82530160  1
  H  H41  1  0.75282920  0.86093535  0.82150353  1
  H  H42  1  0.24287756  0.13876105  0.31828406  1
  H  H43  1  0.25393829  0.46967595  0.32011764  1
  H  H44  1  0.26405158  0.80279182  0.32312008  1
  H  H45  1  0.75286173  0.13732697  0.32414431  1
  H  H46  1  0.74985427  0.47218641  0.32338493  1
  H  H47  1  0.75166512  0.80659952  0.32239742  1
  H  H48  1  0.11497666  0.05803567  0.59520407  1
  H  H49  1  0.13332170  0.38469831  0.61612300  1
  H  H50  1  0.13154608  0.71976081  0.61726021  1
  H  H51  1  0.61318331  0.05488441  0.59568439  1
  H  H52  1  0.63443200  0.38373507  0.62778101  1
  H  H53  1  0.63180219  0.71735230  0.62103124  1
  H  H54  1  0.37722313  0.28513154  0.12117765  1
  H  H55  1  0.36859683  0.61575408  0.11251460  1
  H  H56  1  0.36943661  0.95058687  0.12683056  1
  H  H57  1  0.86771894  0.27960778  0.11668437  1
  H  H58  1  0.87513831  0.61585908  0.12040668  1
  H  H59  1  0.86615910  0.94853004  0.12408773  1
  H  H60  1  0.36922307  0.05594645  0.89014795  1
  H  H61  1  0.38256546  0.38851772  0.89678193  1
  H  H62  1  0.37194673  0.72277656  0.89371871  1
  H  H63  1  0.86939807  0.04801880  0.87191569  1
  H  H64  1  0.88446334  0.38941739  0.89161639  1
  H  H65  1  0.87064342  0.71264666  0.87384952  1
  H  H66  1  0.12159242  0.28302657  0.37276509  1
  H  H67  1  0.12199911  0.61255090  0.39882030  1
  H  H68  1  0.12212425  0.93876884  0.41245335  1
  H  H69  1  0.61789715  0.27364355  0.40547927  1
  H  H70  1  0.62614421  0.61419376  0.37533456  1
  H  H71  1  0.62842506  0.95004814  0.37856603  1
  H  H72  1  0.37801651  0.21785355  0.62201638  1
  H  H73  1  0.36873607  0.56202847  0.59356310  1
  H  H74  1  0.36830176  0.88852063  0.59329378  1
  H  H75  1  0.87599090  0.21802999  0.61593028  1
  H  H76  1  0.87534667  0.54960433  0.61716366  1
  H  H77  1  0.87466883  0.88716489  0.61324801  1
  H  H78  1  0.13869229  0.10931355  0.09582913  1
  H  H79  1  0.11790300  0.45327240  0.12362438  1
  H  H80  1  0.13551341  0.77687947  0.10144421  1
  H  H81  1  0.63581600  0.11157390  0.10570599  1
  H  H82  1  0.61839211  0.44181253  0.10676138  1
  H  H83  1  0.63221876  0.77689618  0.09960677  1
  H  H84  1  0.13482507  0.22404866  0.90255360  1
  H  H85  1  0.12778493  0.55151400  0.87718403  1
  H  H86  1  0.13444329  0.88999758  0.89819203  1
  H  H87  1  0.64083774  0.22324681  0.90117667  1
  H  H88  1  0.63186269  0.56044840  0.90993859  1
  H  H89  1  0.63659958  0.88721760  0.89882842  1
  H  H90  1  0.37760336  0.11496733  0.38028639  1
  H  H91  1  0.36189555  0.44208174  0.40182887  1
  H  H92  1  0.36938170  0.77511206  0.40612626  1
  H  H93  1  0.88413058  0.11245897  0.38741956  1
  H  H94  1  0.86500150  0.44455931  0.40138111  1
  H  H95  1  0.86371403  0.77667385  0.39986845  1
  H  H96  1  0.37400956  0.28516023  0.36949544  1
  H  H97  1  0.38128726  0.61241091  0.40824626  1
  H  H98  1  0.38059666  0.94232349  0.39851621  1
  H  H99  1  0.87937259  0.27586795  0.41113631  1
  H  H100  1  0.87439679  0.61507899  0.38268245  1
  H  H101  1  0.87798349  0.95080573  0.37851327  1
  H  H102  1  0.11393428  0.06143162  0.90663657  1
  H  H103  1  0.13287528  0.38723012  0.89339257  1
  H  H104  1  0.11529624  0.72419009  0.90835734  1
  H  H105  1  0.61874051  0.05297604  0.89358350  1
  H  H106  1  0.63080303  0.38637495  0.88199958  1
  H  H107  1  0.62046652  0.71839013  0.89079852  1
  H  H108  1  0.11672945  0.27952227  0.10357418  1
  H  H109  1  0.12025673  0.60663259  0.09211323  1
  H  H110  1  0.11218171  0.93936041  0.09606754  1
  H  H111  1  0.62240345  0.27472114  0.09773101  1
  H  H112  1  0.61826185  0.61542366  0.11446294  1
  H  H113  1  0.61511517  0.94137162  0.09643133  1
  H  H114  1  0.36681901  0.04976073  0.62471216  1
  H  H115  1  0.39144847  0.39462274  0.58902965  1
  H  H116  1  0.38593463  0.72613881  0.59474618  1
  H  H117  1  0.86846837  0.04908176  0.61771649  1
  H  H118  1  0.88612496  0.39076324  0.59876729  1
  H  H119  1  0.88329557  0.72225367  0.60507286  1
  H  H120  1  0.13032606  0.10935534  0.39855768  1
  H  H121  1  0.11500485  0.45070997  0.37632468  1
  H  H122  1  0.12483664  0.78622786  0.37412272  1
  H  H123  1  0.63579256  0.10664301  0.39701224  1
  H  H124  1  0.61749089  0.44854008  0.38677772  1
  H  H125  1  0.61566901  0.78209936  0.38042450  1
  H  H126  1  0.38045799  0.21588693  0.87620924  1
  H  H127  1  0.37458455  0.55986401  0.90145422  1
  H  H128  1  0.38186721  0.88232300  0.88238730  1
  H  H129  1  0.88817669  0.21970476  0.88323072  1
  H  H130  1  0.87522890  0.54743348  0.87358984  1
  H  H131  1  0.88417482  0.88656327  0.88564586  1
  H  H132  1  0.38384477  0.11508269  0.12610788  1
  H  H133  1  0.36335809  0.44095829  0.09654602  1
  H  H134  1  0.38380487  0.78177628  0.11796880  1
  H  H135  1  0.88444959  0.11392530  0.11439035  1
  H  H136  1  0.86730371  0.44929219  0.11335078  1
  H  H137  1  0.87967275  0.77995675  0.11898005  1
  H  H138  1  0.13006633  0.22025273  0.60008563  1
  H  H139  1  0.12400499  0.54827147  0.62848824  1
  H  H140  1  0.12271285  0.88515127  0.62111845  1
  H  H141  1  0.62631589  0.21781414  0.61494395  1
  H  H142  1  0.63019601  0.56120827  0.59062877  1
  H  H143  1  0.62783836  0.89558902  0.59338989  1
  H  H144  1  0.89272762  0.58531002  1.00493867  1
  H  H145  1  0.96397335  0.25139416  0.50798425  1
  H  H146  1  0.57585675  0.59415174  0.00137146  1
  H  H147  1  0.38550122  0.91661578  1.01417057  1
  H  H148  1  0.05961324  0.24524883  -0.00244722  1
  H  H149  1  0.41177378  0.08330366  0.99548563  1
  H  H150  1  0.03991805  0.91273389  -0.00424412  1
  H  H151  1  0.03792656  0.08330683  1.00564832  1
  H  H152  1  0.44622180  0.41841062  1.00306556  1
  H  H153  1  0.82890559  0.41518128  0.00160349  1
  H  H154  1  0.84772427  0.91398470  0.99296586  1
  H  H155  1  0.20153913  0.74689065  -0.00400061  1
  H  H156  1  0.54226409  0.24547210  0.50897366  1
  H  H157  1  0.56901134  0.08483169  1.00304204  1
  H  H158  1  0.29283705  0.40934346  0.50523331  1
  H  H159  1  0.19308094  0.24843447  0.49250054  1
  H  H160  1  0.88479391  0.74611628  0.98730922  1
  H  H161  1  0.71408813  0.58319971  1.00943759  1
  H  H162  1  0.30083812  0.58605632  1.00659046  1
  H  H163  1  0.29179231  0.59295496  0.49739385  1
  H  H164  1  0.54973570  0.25235804  -0.00335349  1
  H  H165  1  0.64159890  0.75257087  0.48928834  1
  H  H166  1  0.21265350  0.08291604  -0.00703619  1
  H  H167  1  0.13826108  0.41935877  0.48403753  1
  H  H168  1  0.83196488  0.24634472  0.50401419  1
  H  H169  1  0.54532777  0.90834035  -0.00672828  1
  H  H170  1  0.84638996  0.08215348  0.49391915  1
  H  H171  1  0.29183372  0.91461795  0.49349435  1
  H  H172  1  0.88309053  0.08014212  0.98573970  1
  H  H173  1  0.90331675  0.25353794  0.00928962  1
  H  H174  1  0.13991331  0.75390525  0.48902330  1
  H  H175  1  0.85108655  0.57875347  0.50918294  1
  H  H176  1  0.45771877  0.58389401  0.50751357  1
  H  H177  1  0.65263445  0.42095414  0.49519901  1
  H  H178  1  0.84467754  0.91805454  0.50497839  1
  H  H179  1  0.41577408  0.59550507  -0.00115909  1
  H  H180  1  0.44437402  0.91278908  0.50603060  1
  H  H181  1  0.35960772  0.24613749  -0.00855046  1
  H  H182  1  0.38317865  0.25294699  0.48487366  1
  H  H183  1  0.67200911  0.24412191  0.50267000  1
  H  H184  1  0.28963666  0.40964341  -0.00570046  1
  H  H185  1  0.08271580  0.41853567  0.99647345  1
  H  H186  1  0.13777697  0.58088336  0.51596043  1
  H  H187  1  0.79913994  0.74425670  0.50549414  1
  H  H188  1  0.54575949  0.08431010  0.49085987  1
  H  H189  1  0.47263731  0.42082495  0.49097991  1
  H  H190  1  0.03895091  0.74667920  1.00751764  1
  H  H191  1  0.38550753  0.07989625  0.51109984  1
  Pb  Pb192  1  0.25409825  0.05057694  0.75430755  1
  Pb  Pb193  1  0.25679712  0.38332398  0.74771591  1
  Pb  Pb194  1  0.25123098  0.71474696  0.75187225  1
  Pb  Pb195  1  0.74779250  0.04570718  0.74159212  1
  Pb  Pb196  1  0.76007143  0.38370814  0.74903119  1
  Pb  Pb197  1  0.75677620  0.71727940  0.74521827  1
  Pb  Pb198  1  0.24344664  0.28438700  0.24243305  1
  Pb  Pb199  1  0.24644637  0.62001455  0.25403606  1
  Pb  Pb200  1  0.24608660  0.95087489  0.25669127  1
  Pb  Pb201  1  0.74852073  0.28511589  0.25814008  1
  Pb  Pb202  1  0.74538663  0.61873411  0.24358449  1
  Pb  Pb203  1  0.74462804  0.95195291  0.24476681  1
  Pb  Pb204  1  0.00440881  0.21404027  0.74827478  1
  Pb  Pb205  1  0.00202574  0.54653287  0.74854649  1
  Pb  Pb206  1  0.00630309  0.88430158  0.75782815  1
  Pb  Pb207  1  0.51030077  0.21791671  0.75698967  1
  Pb  Pb208  1  0.50854134  0.55305167  0.75222648  1
  Pb  Pb209  1  0.50175979  0.88024726  0.74422460  1
  Pb  Pb210  1  -0.00322207  0.11579986  0.24848672  1
  Pb  Pb211  1  -0.00578064  0.45384903  0.25134346  1
  Pb  Pb212  1  -0.00364959  0.78481590  0.24575272  1
  Pb  Pb213  1  0.50143583  0.11829646  0.24774756  1
  Pb  Pb214  1  0.49273722  0.45058320  0.25060189  1
  Pb  Pb215  1  0.49753287  0.78641490  0.25167434  1
  C  C216  1  -0.00395786  0.04401498  0.62894119  1
  C  C217  1  0.00648662  0.37809862  0.63159636  1
  C  C218  1  0.00491718  0.71091232  0.63581368  1
  C  C219  1  0.49468161  0.04574953  0.63089856  1
  C  C220  1  0.50565674  0.37869273  0.62880969  1
  C  C221  1  0.50411203  0.71319027  0.63025659  1
  C  C222  1  -0.00600060  0.28965967  0.13177194  1
  C  C223  1  0.00164950  0.61846906  0.12667611  1
  C  C224  1  -0.00528841  0.95384909  0.13112718  1
  C  C225  1  0.50482311  0.28991674  0.13255145  1
  C  C226  1  0.49310377  0.62345597  0.13457640  1
  C  C227  1  0.49721260  0.95449607  0.13147912  1
  C  C228  1  -0.00191774  0.04599063  0.86799172  1
  C  C229  1  0.00918878  0.37808201  0.86923178  1
  C  C230  1  -0.00079245  0.70804536  0.87044159  1
  C  C231  1  0.49424241  0.04555869  0.86986241  1
  C  C232  1  0.50385511  0.37887396  0.86628284  1
  C  C233  1  0.49555948  0.71328976  0.87220367  1
  C  C234  1  -0.00693227  0.28950226  0.36974033  1
  C  C235  1  0.00098949  0.62290211  0.36830905  1
  C  C236  1  0.00621582  0.95310908  0.37294401  1
  C  C237  1  0.50175874  0.28601693  0.36748969  1
  C  C238  1  0.49838531  0.62416456  0.37088292  1
  C  C239  1  0.50032975  0.95371944  0.36739928  1
  C  C240  1  0.24962166  0.21068024  0.63181838  1
  C  C241  1  0.25263611  0.54771490  0.63273322  1
  C  C242  1  0.25086246  0.87583784  0.62995620  1
  C  C243  1  0.75108606  0.21022407  0.63617113  1
  C  C244  1  0.74754879  0.54573943  0.62732296  1
  C  C245  1  0.74772339  0.88120265  0.62471778  1
  C  C246  1  0.25600887  0.12079080  0.13357091  1
  C  C247  1  0.24606893  0.45708815  0.13167094  1
  C  C248  1  0.25633964  0.78903886  0.13259563  1
  C  C249  1  0.75849231  0.12288124  0.13287638  1
  C  C250  1  0.74235580  0.45374194  0.13102958  1
  C  C251  1  0.75263608  0.78799702  0.13200876  1
  C  C252  1  0.25416171  0.21277726  0.86881720  1
  C  C253  1  0.25617195  0.54734923  0.86648713  1
  C  C254  1  0.25473280  0.87703051  0.86548398  1
  C  C255  1  0.76116381  0.20983101  0.86852795  1
  C  C256  1  0.74596512  0.54277839  0.87116682  1
  C  C257  1  0.75849095  0.87742683  0.86851015  1
  C  C258  1  0.25034794  0.12251211  0.36524397  1
  C  C259  1  0.24281730  0.45493690  0.36731526  1
  C  C260  1  0.25159469  0.78791722  0.36985126  1
  C  C261  1  0.75809921  0.11980945  0.37065678  1
  C  C262  1  0.74346614  0.45562113  0.37026858  1
  C  C263  1  0.74296160  0.78939890  0.36902456  1
  C  C264  1  0.18717111  0.57231249  0.54795932  1
  C  C265  1  0.31214749  0.23699577  0.95792978  1
  C  C266  1  0.45367604  0.60157041  0.03937502  1
  C  C267  1  0.80174498  0.09251327  0.04261606  1
  C  C268  1  0.78703327  0.42510358  0.03880822  1
  C  C269  1  0.01876536  0.92213920  0.46874131  1
  C  C270  1  0.43502764  0.26190750  0.45266750  1
  C  C271  1  0.24114629  0.09377012  0.03714359  1
  C  C272  1  0.72133954  0.91590733  0.53030631  1
  C  C273  1  0.30694430  0.23698152  0.54387307  1
  C  C274  1  0.71063710  0.23475858  0.54203447  1
  C  C275  1  0.51494732  0.07302740  0.53367764  1
  C  C276  1  0.55939427  0.73969010  0.54281475  1
  C  C277  1  0.93450582  0.73763693  0.95389489  1
  C  C278  1  0.53559978  0.60159097  0.04029062  1
  C  C279  1  0.22624288  0.23797012  0.53456682  1
  C  C280  1  0.53216429  0.07467960  0.96276186  1
  C  C281  1  0.23283421  0.75842099  0.03861252  1
  C  C282  1  0.76789410  0.75715149  0.46327148  1
  C  C283  1  0.51552717  0.92287523  0.03544223  1
  C  C284  1  0.26362131  0.42358412  0.46255115  1
  C  C285  1  0.02263073  0.59003420  0.03031462  1
  C  C286  1  0.53825809  0.74084346  0.96303858  1
  C  C287  1  0.93300067  0.07216770  0.95242462  1
  C  C288  1  0.70555520  0.42271933  0.03828152  1
  C  C289  1  0.57393489  0.40857902  0.54654421  1
  C  C290  1  0.47861258  0.40777327  0.96070245  1
  C  C291  1  0.27320509  0.57524808  0.96235634  1
  C  C292  1  0.01612828  0.07775297  0.53496673  1
  C  C293  1  0.94204675  0.59334789  0.03841600  1
  C  C294  1  0.23137794  0.23929533  0.96564488  1
  C  C295  1  0.43461677  0.92654573  0.04604889  1
  C  C296  1  0.95242728  0.59237753  0.45748487  1
  C  C297  1  0.72499721  0.08574343  0.46398930  1
  C  C298  1  0.51535167  0.25802812  0.46504949  1
  C  C299  1  0.79271547  0.23563784  0.54265175  1
  C  C300  1  0.43390719  0.07095446  0.54385529  1
  C  C301  1  0.45783618  0.74220952  0.96387597  1
  C  C302  1  0.80271073  0.75904653  0.04352880  1
  C  C303  1  0.02549253  0.25791107  0.03846749  1
  C  C304  1  0.18930996  0.76208634  0.45675757  1
  C  C305  1  0.55752986  0.92810097  0.45570656  1
  C  C306  1  0.47673344  0.92508094  0.46413623  1
  C  C307  1  0.26981241  0.75846809  0.46628660  1
  C  C308  1  0.81366367  0.57335036  0.95325087  1
  C  C309  1  0.26119039  0.42444026  0.03709699  1
  C  C310  1  0.56081515  0.58902423  0.45404432  1
  C  C311  1  0.93271942  0.92591139  0.04519111  1
  N  N312  1  0.79962756  0.91093508  0.53743810  1
  N  N313  1  0.97567634  0.74248304  0.54191537  1
  N  N314  1  0.01290176  0.74161778  0.96436420  1
  N  N315  1  0.72664555  0.90686573  0.96267678  1
  N  N316  1  0.80448464  0.90687472  0.95669625  1
  N  N317  1  0.68880936  0.75910107  0.45537042  1
  N  N318  1  0.22584413  0.09239173  0.46035222  1
  N  N319  1  0.04483487  0.40898881  0.95952139  1
  N  N320  1  0.05163606  0.74116246  0.54601057  1
  N  N321  1  0.31932123  0.09533888  0.04706868  1
  N  N322  1  0.73567165  0.24347200  0.96224678  1
  N  N323  1  0.96635807  0.40962130  0.96013549  1
  N  N324  1  0.03017570  0.59122342  0.46363230  1
  N  N325  1  0.69637083  0.42831178  0.45879209  1
  N  N326  1  0.49655473  0.41236837  0.53461189  1
  N  N327  1  0.30131495  0.09426022  0.45413593  1
  N  N328  1  0.94249894  0.92603670  0.45896219  1
  N  N329  1  0.98443373  0.25631670  0.46306505  1
  N  N330  1  0.18512387  0.42707876  0.45282531  1
  N  N331  1  0.80384951  0.57180201  0.54165245  1
  N  N332  1  0.45264368  0.07643837  0.95981248  1
  N  N333  1  0.77405527  0.42673527  0.46484510  1
  N  N334  1  0.73646928  0.57735820  0.96507086  1
  N  N335  1  0.81186673  0.24216957  0.95626577  1
  N  N336  1  0.72437556  0.09122850  0.03831578  1
  N  N337  1  0.55756914  0.40772171  0.95557866  1
  N  N338  1  0.72661376  0.57589214  0.53141343  1
  N  N339  1  0.01097226  0.92257864  0.03669341  1
  N  N340  1  0.94612481  0.25846152  0.04387181  1
  N  N341  1  0.52289654  0.25820018  0.03945538  1
  N  N342  1  0.22867750  0.90754960  0.96027634  1
  N  N343  1  0.93915308  0.07480647  0.54163019  1
  N  N344  1  0.05711337  0.40516113  0.54202491  1
  N  N345  1  0.44558059  0.26251208  0.04611661  1
  N  N346  1  0.30450004  0.90469157  0.95500673  1
  N  N347  1  0.19033934  0.90695420  0.54529827  1
  N  N348  1  0.72576921  0.75719682  0.03602107  1
  N  N349  1  0.06101520  0.25860292  0.45111693  1
  N  N350  1  0.80353094  0.08952632  0.45967381  1
  N  N351  1  0.48273015  0.74286555  0.53320761  1
  N  N352  1  0.26536697  0.57636209  0.53699173  1
  N  N353  1  0.18298015  0.42886394  0.04588922  1
  N  N354  1  0.98086699  0.40734541  0.53648105  1
  N  N355  1  0.31175102  0.75900093  0.04446868  1
  N  N356  1  0.19494949  0.57339771  0.95368589  1
  N  N357  1  0.01134176  0.07694548  0.96284306  1
  N  N358  1  0.26756194  0.90834377  0.53720396  1
  N  N359  1  0.48313672  0.59033472  0.46433326  1
  N  N360  1  0.05319769  0.05943165  0.58741850  1
  N  N361  1  0.07440245  0.38697281  0.60089896  1
  N  N362  1  0.07145956  0.72142362  0.60391030  1
  N  N363  1  0.55134744  0.05729767  0.58831220  1
  N  N364  1  0.57980715  0.38921872  0.60564620  1
  N  N365  1  0.57519881  0.72228493  0.60217132  1
  N  N366  1  0.43482593  0.27987111  0.10466358  1
  N  N367  1  0.42841637  0.61482370  0.09840837  1
  N  N368  1  0.42476344  0.94616100  0.10558808  1
  N  N369  1  0.92690091  0.28014224  0.10061092  1
  N  N370  1  0.93046035  0.61086283  0.09958640  1
  N  N371  1  0.92242929  0.94406471  0.10418927  1
  N  N372  1  0.42942683  0.05743020  0.90298401  1
  N  N373  1  0.44392550  0.39052189  0.90614924  1
  N  N374  1  0.43110170  0.72563784  0.90846553  1
  N  N375  1  0.92482205  0.05430948  0.89306881  1
  N  N376  1  0.94509523  0.39133365  0.90356608  1
  N  N377  1  0.92615716  0.71886931  0.89484178  1
  N  N378  1  0.06536270  0.27674355  0.39230409  1
  N  N379  1  0.06036628  0.61075709  0.40673380  1
  N  N380  1  0.06007795  0.93832866  0.41727994  1
  N  N381  1  0.55594121  0.27323696  0.41167104  1
  N  N382  1  0.57041252  0.60920010  0.39591738  1
  N  N383  1  0.57118662  0.94501302  0.39724909  1
  N  N384  1  0.32079091  0.22084299  0.60278806  1
  N  N385  1  0.30579637  0.56210419  0.58972552  1
  N  N386  1  0.30610392  0.88699076  0.58728805  1
  N  N387  1  0.81650856  0.22029239  0.60145823  1
  N  N388  1  0.81747835  0.55245509  0.59933112  1
  N  N389  1  0.81653252  0.88873351  0.59539269  1
  N  N390  1  0.20100929  0.10919612  0.08977891  1
  N  N391  1  0.17539654  0.44910316  0.10510371  1
  N  N392  1  0.19721102  0.77621383  0.09246649  1
  N  N393  1  0.69739423  0.11080254  0.09609664  1
  N  N394  1  0.67854426  0.43990066  0.09385166  1
  N  N395  1  0.69444268  0.77614052  0.09238413  1
  N  N396  1  0.19648692  0.22466421  0.91192661  1
  N  N397  1  0.18609901  0.55615288  0.89413719  1
  N  N398  1  0.19650199  0.89061457  0.90483302  1
  N  N399  1  0.70306745  0.22298539  0.90822756  1
  N  N400  1  0.69367377  0.55504724  0.91541939  1
  N  N401  1  0.69837333  0.88898567  0.90753547  1
  N  N402  1  0.31837843  0.11315646  0.39549934  1
  N  N403  1  0.29984306  0.44100436  0.40951477  1
  N  N404  1  0.30735712  0.77397381  0.41396670  1
  N  N405  1  0.82476228  0.11123681  0.40249649  1
  N  N406  1  0.80303917  0.44315053  0.40948041  1
  N  N407  1  0.80192671  0.77546564  0.40961432  1
  N  N408  1  0.42848087  0.27921705  0.39194408  1
  N  N409  1  0.44358743  0.61397532  0.41397525  1
  N  N410  1  0.44197560  0.94132845  0.40789298  1
  N  N411  1  0.94158344  0.27809833  0.41494263  1
  N  N412  1  0.93277692  0.61110851  0.39935056  1
  N  N413  1  0.93475745  0.94552006  0.39798386  1
  N  N414  1  0.05152474  0.05794943  0.91168075  1
  N  N415  1  0.07213652  0.38862276  0.90497107  1
  N  N416  1  0.05273308  0.72030082  0.91396723  1
  N  N417  1  0.55832289  0.05656521  0.90661758  1
  N  N418  1  0.57146729  0.38984248  0.89672247  1
  N  N419  1  0.56178620  0.72345012  0.90703250  1
  N  N420  1  0.05556660  0.27611998  0.09340156  1
  N  N421  1  0.05871455  0.60550556  0.08326532  1
  N  N422  1  0.04992901  0.94164981  0.08920169  1
  N  N423  1  0.56056477  0.27769711  0.09073237  1
  N  N424  1  0.55870379  0.61504007  0.09972796  1
  N  N425  1  0.55310215  0.94065504  0.08892314  1
  N  N426  1  0.42287223  0.05436276  0.60435991  1
  N  N427  1  0.45375453  0.39146139  0.58455720  1
  N  N428  1  0.44828332  0.72583872  0.58889451  1
  N  N429  1  0.92657934  0.05386968  0.60147658  1
  N  N430  1  0.94830859  0.39055667  0.59169603  1
  N  N431  1  0.94524080  0.72396239  0.59744252  1
  N  N432  1  0.19253083  0.10979495  0.40543455  1
  N  N433  1  0.17261454  0.44728684  0.39454889  1
  N  N434  1  0.17954488  0.78018239  0.39567528  1
  N  N435  1  0.69633428  0.10457800  0.40884810  1
  N  N436  1  0.67643399  0.44625174  0.40157393  1
  N  N437  1  0.67401676  0.78022028  0.39780542  1
  N  N438  1  0.32494596  0.22042693  0.89669736  1
  N  N439  1  0.31279987  0.55957410  0.90910526  1
  N  N440  1  0.32237788  0.88583929  0.89660845  1
  N  N441  1  0.82897204  0.22139933  0.89828130  1
  N  N442  1  0.82002058  0.55362443  0.89470178  1
  N  N443  1  0.82504900  0.88823911  0.89988853  1
  N  N444  1  0.32682340  0.11237180  0.10730942  1
  N  N445  1  0.30130075  0.44192851  0.08920217  1
  N  N446  1  0.32456318  0.77820213  0.10288895  1
  N  N447  1  0.82540474  0.11076741  0.09993125  1
  N  N448  1  0.80862284  0.44430313  0.09774458  1
  N  N449  1  0.82197309  0.77688418  0.10191589  1
  N  N450  1  0.19147156  0.22140206  0.59089869  1
  N  N451  1  0.17922033  0.55418117  0.60721543  1
  N  N452  1  0.18061498  0.88851540  0.60364721  1
  N  N453  1  0.68611144  0.21911424  0.60039578  1
  N  N454  1  0.69209833  0.56047959  0.58544837  1
  N  N455  1  0.68881548  0.89717771  0.58414626  1
  Cl  Cl456  1  0.23577872  0.05368680  0.62408132  1
  Cl  Cl457  1  0.26672783  0.39226449  0.61014169  1
  Cl  Cl458  1  0.26007447  0.72320467  0.61752166  1
  Cl  Cl459  1  0.73823336  0.05282727  0.60600086  1
  Cl  Cl460  1  0.76344214  0.38955933  0.61652125  1
  Cl  Cl461  1  0.76077933  0.72227074  0.60846487  1
  Cl  Cl462  1  0.24403712  0.28276252  0.11061224  1
  Cl  Cl463  1  0.24313178  0.60953646  0.11997718  1
  Cl  Cl464  1  0.23222718  0.94319472  0.12593587  1
  Cl  Cl465  1  0.74177658  0.27313735  0.12452939  1
  Cl  Cl466  1  0.73968124  0.60294397  0.10726780  1
  Cl  Cl467  1  0.73838761  0.94364633  0.11388546  1
  Cl  Cl468  1  0.23867587  0.05964734  0.89186275  1
  Cl  Cl469  1  0.25685035  0.38906912  0.88451009  1
  Cl  Cl470  1  0.23603201  0.72590966  0.88760390  1
  Cl  Cl471  1  0.74070573  0.04804822  0.87241724  1
  Cl  Cl472  1  0.75990378  0.39073323  0.88303721  1
  Cl  Cl473  1  0.74426518  0.71143312  0.87216157  1
  Cl  Cl474  1  0.24578198  0.28499737  0.37432412  1
  Cl  Cl475  1  0.25602072  0.61062874  0.39862472  1
  Cl  Cl476  1  0.25359265  0.93801315  0.39681942  1
  Cl  Cl477  1  0.75119404  0.27378177  0.39443270  1
  Cl  Cl478  1  0.75274203  0.61592351  0.37474225  1
  Cl  Cl479  1  0.75349981  0.94885482  0.37918700  1
  Cl  Cl480  1  0.00147393  0.22409621  0.61021343  1
  Cl  Cl481  1  -0.00334103  0.55333081  0.61762185  1
  Cl  Cl482  1  -0.00264753  0.89100987  0.62670453  1
  Cl  Cl483  1  0.50407161  0.22373932  0.62457161  1
  Cl  Cl484  1  0.49294289  0.56148571  0.60123556  1
  Cl  Cl485  1  0.49308121  0.89159006  0.60960083  1
  Cl  Cl486  1  0.01415476  0.10641895  0.10408224  1
  Cl  Cl487  1  -0.00599691  0.44743025  0.11929903  1
  Cl  Cl488  1  0.01217141  0.77349323  0.10460236  1
  Cl  Cl489  1  0.51285724  0.11033418  0.11183502  1
  Cl  Cl490  1  0.48746280  0.43995836  0.11642409  1
  Cl  Cl491  1  0.51070659  0.77880569  0.12070886  1
  Cl  Cl492  1  0.01284013  0.22468090  0.88755421  1
  Cl  Cl493  1  0.00249259  0.55175394  0.87967911  1
  Cl  Cl494  1  0.01224971  0.89103479  0.89890245  1
  Cl  Cl495  1  0.51987282  0.22712575  0.89612519  1
  Cl  Cl496  1  0.50549597  0.56233438  0.88782942  1
  Cl  Cl497  1  0.51353532  0.88636387  0.87962480  1
  Cl  Cl498  1  0.00891441  0.10909909  0.38238084  1
  Cl  Cl499  1  -0.01275638  0.44721142  0.38345924  1
  Cl  Cl500  1  -0.01604946  0.78028175  0.37331922  1
  Cl  Cl501  1  0.50910670  0.10932254  0.38047741  1
  Cl  Cl502  1  0.48669868  0.44340885  0.39634106  1
  Cl  Cl503  1  0.49076966  0.77873334  0.38302729  1
  Cl  Cl504  1  0.36361488  0.14617764  0.75364992  1
  Cl  Cl505  1  0.36059413  0.48275063  0.74879347  1
  Cl  Cl506  1  0.36155878  0.81614841  0.75668745  1
  Cl  Cl507  1  0.86625582  0.14380304  0.74604772  1
  Cl  Cl508  1  0.85801080  0.48528262  0.75261515  1
  Cl  Cl509  1  0.86018313  0.81248323  0.75284517  1
  Cl  Cl510  1  0.14692684  0.18337602  0.25052149  1
  Cl  Cl511  1  0.13511450  0.51882377  0.25415384  1
  Cl  Cl512  1  0.13489967  0.84969042  0.25851720  1
  Cl  Cl513  1  0.64219064  0.18110594  0.25573543  1
  Cl  Cl514  1  0.63002498  0.52019055  0.25609946  1
  Cl  Cl515  1  0.64209642  0.85183345  0.25702098  1
  Cl  Cl516  1  0.14239177  0.15137714  0.75523244  1
  Cl  Cl517  1  0.13937376  0.48063239  0.74702982  1
  Cl  Cl518  1  0.14017104  0.81646303  0.74484259  1
  Cl  Cl519  1  0.64511573  0.15111674  0.75251842  1
  Cl  Cl520  1  0.63872143  0.47993034  0.74291822  1
  Cl  Cl521  1  0.64320995  0.81672994  0.74130868  1
  Cl  Cl522  1  0.37008697  0.19225709  0.24516914  1
  Cl  Cl523  1  0.35705737  0.51857375  0.25170226  1
  Cl  Cl524  1  0.35801132  0.85076613  0.24617337  1
  Cl  Cl525  1  0.86379005  0.18579329  0.24933658  1
  Cl  Cl526  1  0.85141796  0.51509214  0.24892192  1
  Cl  Cl527  1  0.86191651  0.85474052  0.23997664  1
  Cl  Cl528  1  0.11450870  0.31582577  0.74732571  1
  Cl  Cl529  1  0.11221280  0.64716154  0.74964793  1
  Cl  Cl530  1  0.10333428  0.98318864  0.75244253  1
  Cl  Cl531  1  0.61125024  0.31520943  0.74840557  1
  Cl  Cl532  1  0.60908234  0.64683841  0.74121362  1
  Cl  Cl533  1  0.60367101  0.98672444  0.74575224  1
  Cl  Cl534  1  0.38172966  0.02217594  0.24174215  1
  Cl  Cl535  1  0.38327094  0.35421942  0.25405601  1
  Cl  Cl536  1  0.38808812  0.68428022  0.24952028  1
  Cl  Cl537  1  0.89230244  0.02158954  0.25153673  1
  Cl  Cl538  1  0.88855417  0.34970633  0.24567369  1
  Cl  Cl539  1  0.88432550  0.68435422  0.23529942  1
  Cl  Cl540  1  0.39188652  0.31413390  0.74990365  1
  Cl  Cl541  1  0.39115169  0.64995351  0.75128606  1
  Cl  Cl542  1  0.38765608  0.98077022  0.75190834  1
  Cl  Cl543  1  0.89554598  0.31650411  0.75355725  1
  Cl  Cl544  1  0.89060906  0.64775935  0.75292569  1
  Cl  Cl545  1  0.88288107  0.97767860  0.75562159  1
  Cl  Cl546  1  0.10893556  0.01613955  0.25039913  1
  Cl  Cl547  1  0.10957681  0.35402709  0.25387898  1
  Cl  Cl548  1  0.10604173  0.68311702  0.25069786  1
  Cl  Cl549  1  0.60408593  0.01279017  0.25032268  1
  Cl  Cl550  1  0.60711886  0.35210592  0.25114218  1
  Cl  Cl551  1  0.61100597  0.68708718  0.25911283  1
