# generated using pymatgen
data_H8PbC4(N3Cl2)2
_symmetry_space_group_name_H-M   'P 1'
_cell_length_a   16.62105738
_cell_length_b   22.50165976
_cell_length_c   21.58891106
_cell_angle_alpha   89.99969042
_cell_angle_beta   89.98282344
_cell_angle_gamma   90.00230436
_symmetry_Int_Tables_number   1
_chemical_formula_structural   H8PbC4(N3Cl2)2
_chemical_formula_sum   'H192 Pb24 C96 N144 Cl96'
_cell_volume   8074.28211847
_cell_formula_units_Z   24
loop_
 _symmetry_equiv_pos_site_id
 _symmetry_equiv_pos_as_xyz
  1  'x, y, z'
loop_
 _atom_site_type_symbol
 _atom_site_label
 _atom_site_symmetry_multiplicity
 _atom_site_fract_x
 _atom_site_fract_y
 _atom_site_fract_z
 _atom_site_occupancy
  H  H0  1  -0.00589567  0.03184697  0.67985213  1
  H  H1  1  0.00318566  0.36549434  0.68341485  1
  H  H2  1  -0.00746184  0.69934858  0.68157070  1
  H  H3  1  0.50862259  0.03127283  0.68295238  1
  H  H4  1  0.49525134  0.36623032  0.67816392  1
  H  H5  1  0.50755593  0.69940486  0.68243676  1
  H  H6  1  -0.00434628  0.30097258  0.18092429  1
  H  H7  1  -0.00336066  0.63387056  0.18077344  1
  H  H8  1  -0.00455378  0.96737682  0.17765186  1
  H  H9  1  0.49345887  0.30301765  0.17975906  1
  H  H10  1  0.50117786  0.63432668  0.18083426  1
  H  H11  1  0.50056729  0.96833590  0.18087551  1
  H  H12  1  -0.00088230  0.03195742  0.81942437  1
  H  H13  1  -0.00774622  0.36479432  0.81771110  1
  H  H14  1  0.00779278  0.69888848  0.82115678  1
  H  H15  1  0.49670308  0.03276956  0.81911467  1
  H  H16  1  0.50341612  0.36657163  0.81987471  1
  H  H17  1  0.49272973  0.69668406  0.82057202  1
  H  H18  1  -0.00069895  0.30126326  0.31876955  1
  H  H19  1  0.00627579  0.63300732  0.31751143  1
  H  H20  1  0.00298044  0.96832394  0.32032483  1
  H  H21  1  0.50700764  0.29981522  0.31973868  1
  H  H22  1  0.50135210  0.63429261  0.31926110  1
  H  H23  1  0.50154623  0.96691759  0.32024738  1
  H  H24  1  0.24864821  0.20169426  0.67840931  1
  H  H25  1  0.24564481  0.53163533  0.68007901  1
  H  H26  1  0.24393953  0.86509105  0.68023348  1
  H  H27  1  0.74717380  0.19947581  0.68313572  1
  H  H28  1  0.74485060  0.53207062  0.68073074  1
  H  H29  1  0.75107846  0.86602849  0.67973363  1
  H  H30  1  0.25108801  0.13385177  0.18129261  1
  H  H31  1  0.24971351  0.46890044  0.18152688  1
  H  H32  1  0.25122417  0.80259966  0.18170375  1
  H  H33  1  0.75038475  0.13520268  0.18020184  1
  H  H34  1  0.75283682  0.46956705  0.17852965  1
  H  H35  1  0.74396202  0.80054808  0.17729714  1
  H  H36  1  0.25289537  0.19937326  0.81849686  1
  H  H37  1  0.25313932  0.53129270  0.81894881  1
  H  H38  1  0.25247006  0.86634780  0.81931080  1
  H  H39  1  0.75068949  0.19775701  0.82242091  1
  H  H40  1  0.74980233  0.53237978  0.81910859  1
  H  H41  1  0.75173027  0.86484840  0.82077260  1
  H  H42  1  0.25283074  0.13514868  0.31933739  1
  H  H43  1  0.24362611  0.46583555  0.31825452  1
  H  H44  1  0.24688497  0.80122803  0.31936866  1
  H  H45  1  0.74543152  0.13375641  0.31832421  1
  H  H46  1  0.75880577  0.46660166  0.32055350  1
  H  H47  1  0.75712445  0.80364331  0.31870157  1
  H  H48  1  0.12170783  0.05392635  0.61127718  1
  H  H49  1  0.12604025  0.38596803  0.61211719  1
  H  H50  1  0.12939363  0.71902806  0.62194001  1
  H  H51  1  0.62118945  0.05406221  0.60281907  1
  H  H52  1  0.63008525  0.38620225  0.61851957  1
  H  H53  1  0.62420367  0.72269362  0.60726168  1
  H  H54  1  0.38368347  0.27582418  0.09704558  1
  H  H55  1  0.37665677  0.61221039  0.10823111  1
  H  H56  1  0.37667805  0.94715221  0.11108664  1
  H  H57  1  0.88050803  0.27718114  0.10091868  1
  H  H58  1  0.87787780  0.61080463  0.10433583  1
  H  H59  1  0.87763074  0.94392201  0.10191334  1
  H  H60  1  0.37293155  0.05399067  0.89073776  1
  H  H61  1  0.37713910  0.38700611  0.89025259  1
  H  H62  1  0.37928401  0.72353723  0.90099187  1
  H  H63  1  0.87274521  0.05318613  0.88775844  1
  H  H64  1  0.87940635  0.38830848  0.89769178  1
  H  H65  1  0.86916769  0.71846196  0.87758490  1
  H  H66  1  0.12297422  0.27876636  0.38948828  1
  H  H67  1  0.11535961  0.60992190  0.39874949  1
  H  H68  1  0.11791855  0.94328297  0.40030571  1
  H  H69  1  0.61205581  0.27630920  0.40317836  1
  H  H70  1  0.61642814  0.61174713  0.39697622  1
  H  H71  1  0.62341055  0.94540807  0.39278380  1
  H  H72  1  0.37897950  0.22142771  0.61222586  1
  H  H73  1  0.38016407  0.55143709  0.61929820  1
  H  H74  1  0.38023301  0.88417485  0.62187876  1
  H  H75  1  0.87880071  0.21781517  0.61982844  1
  H  H76  1  0.88058186  0.55179684  0.62218066  1
  H  H77  1  0.87633685  0.88925376  0.60880413  1
  H  H78  1  0.12537360  0.11110751  0.11165386  1
  H  H79  1  0.12373749  0.44672821  0.11190248  1
  H  H80  1  0.12592686  0.77818271  0.11164931  1
  H  H81  1  0.62929173  0.11175159  0.10617452  1
  H  H82  1  0.62232226  0.44740017  0.11476790  1
  H  H83  1  0.63286822  0.77483562  0.09548742  1
  H  H84  1  0.11870330  0.21741873  0.88166334  1
  H  H85  1  0.12424351  0.55294089  0.88585921  1
  H  H86  1  0.12333657  0.88753356  0.88670902  1
  H  H87  1  0.62204328  0.22119342  0.88910221  1
  H  H88  1  0.62503567  0.55351840  0.89228522  1
  H  H89  1  0.62237499  0.88572134  0.88653002  1
  H  H90  1  0.37431059  0.11129629  0.39136732  1
  H  H91  1  0.37799573  0.44795695  0.37891680  1
  H  H92  1  0.37231712  0.78002787  0.38852716  1
  H  H93  1  0.87872979  0.11615384  0.37943283  1
  H  H94  1  0.86726973  0.44265980  0.40255090  1
  H  H95  1  0.87034355  0.77706130  0.39891308  1
  H  H96  1  0.36655463  0.28522269  0.37291398  1
  H  H97  1  0.36773391  0.61296484  0.38225066  1
  H  H98  1  0.37470098  0.94665420  0.38603487  1
  H  H99  1  0.87385823  0.27878593  0.39012645  1
  H  H100  1  0.86783436  0.61575944  0.37443184  1
  H  H101  1  0.87017876  0.94720371  0.38361784  1
  H  H102  1  0.12168733  0.05425101  0.89281909  1
  H  H103  1  0.12745248  0.38536240  0.87936504  1
  H  H104  1  0.11607592  0.72424319  0.90338997  1
  H  H105  1  0.62234908  0.05309326  0.88657811  1
  H  H106  1  0.62628514  0.38906932  0.89203694  1
  H  H107  1  0.62630972  0.71879162  0.88196938  1
  H  H108  1  0.12835249  0.27940505  0.11545050  1
  H  H109  1  0.12647616  0.61284393  0.11548957  1
  H  H110  1  0.12647291  0.94681871  0.11313814  1
  H  H111  1  0.62948204  0.28308272  0.12096324  1
  H  H112  1  0.62560954  0.61216178  0.10754667  1
  H  H113  1  0.62616385  0.94664908  0.11241471  1
  H  H114  1  0.37348621  0.05146894  0.62122458  1
  H  H115  1  0.38290599  0.38986950  0.59656853  1
  H  H116  1  0.37543749  0.71871841  0.61934270  1
  H  H117  1  0.87288890  0.05413810  0.60666689  1
  H  H118  1  0.87633291  0.38595620  0.61643163  1
  H  H119  1  0.88211744  0.72375247  0.59997045  1
  H  H120  1  0.12458765  0.11375866  0.38752551  1
  H  H121  1  0.12996002  0.44511988  0.39582007  1
  H  H122  1  0.12274349  0.77787612  0.39090538  1
  H  H123  1  0.63004053  0.11063731  0.39521818  1
  H  H124  1  0.62026374  0.44867982  0.37741055  1
  H  H125  1  0.62308412  0.78287477  0.38109745  1
  H  H126  1  0.36776227  0.22213460  0.89681760  1
  H  H127  1  0.37334369  0.55422882  0.89424523  1
  H  H128  1  0.37217798  0.88990274  0.89344767  1
  H  H129  1  0.87091322  0.22182198  0.89566612  1
  H  H130  1  0.87410907  0.55497661  0.89197729  1
  H  H131  1  0.87080609  0.89026226  0.89654297  1
  H  H132  1  0.37467636  0.11168937  0.10789935  1
  H  H133  1  0.37304508  0.44537200  0.10884009  1
  H  H134  1  0.37603685  0.77991666  0.11134989  1
  H  H135  1  0.87784715  0.11220413  0.11082405  1
  H  H136  1  0.87110926  0.44492652  0.10234315  1
  H  H137  1  0.87963373  0.78179941  0.11843067  1
  H  H138  1  0.13053982  0.22170441  0.60131335  1
  H  H139  1  0.13374222  0.55718766  0.59844066  1
  H  H140  1  0.13256873  0.89247244  0.59936616  1
  H  H141  1  0.62974122  0.22166767  0.60788564  1
  H  H142  1  0.63282486  0.55767534  0.59952390  1
  H  H143  1  0.62738222  0.88757033  0.60841302  1
  H  H144  1  0.95017537  0.74916826  0.49457040  1
  H  H145  1  0.20195672  0.91785915  0.49736795  1
  H  H146  1  0.08861051  0.91999880  0.00570626  1
  H  H147  1  0.80176723  0.75386178  0.50109847  1
  H  H148  1  0.16675826  0.08530325  0.49287287  1
  H  H149  1  0.04786706  0.58343905  0.50639615  1
  H  H150  1  0.19038620  0.25582190  0.50074564  1
  H  H151  1  0.83276406  0.08424098  0.00636623  1
  H  H152  1  0.19132655  0.42137154  0.50682232  1
  H  H153  1  0.07737991  0.41008505  0.49965076  1
  H  H154  1  0.80950981  0.41759386  -0.00195336  1
  H  H155  1  0.84732614  0.24535945  0.50760931  1
  H  H156  1  0.54116461  0.25071394  0.50915493  1
  H  H157  1  0.85731453  0.58178390  0.50895448  1
  H  H158  1  0.30743740  0.24758326  1.00515612  1
  H  H159  1  0.89028578  0.74614200  0.98752776  1
  H  H160  1  0.94566241  0.41588552  1.00397626  1
  H  H161  1  0.04649489  0.74845364  1.00990102  1
  H  H162  1  0.16429469  0.58152005  0.99610996  1
  H  H163  1  0.66411232  0.25100172  0.99497050  1
  H  H164  1  0.64101790  0.41975129  0.48669993  1
  H  H165  1  0.56953120  0.75296354  0.49881907  1
  H  H166  1  0.20404895  0.58131397  0.49667516  1
  H  H167  1  0.15158429  0.24720627  0.98819104  1
  H  H168  1  0.79831662  0.41726272  0.50926561  1
  H  H169  1  0.16989918  0.75021666  0.49537803  1
  H  H170  1  0.32574170  0.08330048  0.50059552  1
  H  H171  1  0.58672083  0.91797374  0.00162933  1
  H  H172  1  0.44916186  0.74514938  1.00375430  1
  H  H173  1  0.40109879  0.58444463  0.48924829  1
  H  H174  1  0.69968723  0.58395437  0.49813651  1
  H  H175  1  0.41129107  0.91740697  0.49906426  1
  H  H176  1  0.05004878  0.91991381  0.50280720  1
  H  H177  1  0.58014700  0.08066318  0.99945615  1
  H  H178  1  0.34553021  0.24885240  0.50389478  1
  H  H179  1  0.45645332  0.25264230  -0.00415888  1
  H  H180  1  0.55698690  0.58591641  0.50550794  1
  H  H181  1  0.68481189  0.24651115  0.49759538  1
  H  H182  1  0.32810586  0.75458694  -0.00026867  1
  H  H183  1  0.55532270  0.07935915  0.49603943  1
  H  H184  1  0.41975320  0.91947428  0.00028168  1
  H  H185  1  0.33118561  0.75104275  0.49886353  1
  H  H186  1  0.68835621  0.08273645  0.50389291  1
  H  H187  1  0.85170758  0.08609081  0.49198173  1
  H  H188  1  0.17506357  0.75790240  0.00419924  1
  H  H189  1  0.17246664  0.08278604  0.00232467  1
  H  H190  1  0.91801540  0.40978208  0.50243757  1
  H  H191  1  0.17055723  0.41860617  0.00244227  1
  Pb  Pb192  1  0.24861408  0.04534804  0.74892806  1
  Pb  Pb193  1  0.25325636  0.38058091  0.74862320  1
  Pb  Pb194  1  0.24905167  0.71552696  0.75671326  1
  Pb  Pb195  1  0.74879314  0.04870330  0.74906269  1
  Pb  Pb196  1  0.75086289  0.37926283  0.75399762  1
  Pb  Pb197  1  0.75089145  0.71176798  0.74074623  1
  Pb  Pb198  1  0.24724437  0.28710615  0.24712845  1
  Pb  Pb199  1  0.24833504  0.61921630  0.25218867  1
  Pb  Pb200  1  0.24541550  0.95271617  0.25512243  1
  Pb  Pb201  1  0.74954901  0.28531434  0.25113014  1
  Pb  Pb202  1  0.74205136  0.61943934  0.25260433  1
  Pb  Pb203  1  0.74947130  0.95487756  0.24857178  1
  Pb  Pb204  1  0.00236436  0.21215822  0.74893784  1
  Pb  Pb205  1  0.00209987  0.54559685  0.74896090  1
  Pb  Pb206  1  -0.00453712  0.88136307  0.74868498  1
  Pb  Pb207  1  0.49705595  0.21377195  0.75376883  1
  Pb  Pb208  1  0.50258839  0.54635145  0.74683330  1
  Pb  Pb209  1  0.50223188  0.88011496  0.75187483  1
  Pb  Pb210  1  -0.00009970  0.12098487  0.24845333  1
  Pb  Pb211  1  -0.00529025  0.45273469  0.25182854  1
  Pb  Pb212  1  -0.00586490  0.78448223  0.25143355  1
  Pb  Pb213  1  0.49770313  0.11939348  0.25139868  1
  Pb  Pb214  1  0.49845716  0.45248293  0.24651383  1
  Pb  Pb215  1  0.49848028  0.78897982  0.24487773  1
  C  C216  1  -0.00352091  0.04655833  0.63229594  1
  C  C217  1  0.00176655  0.37946952  0.63528149  1
  C  C218  1  0.00174661  0.71393269  0.63413400  1
  C  C219  1  0.50070631  0.04589756  0.63543389  1
  C  C220  1  0.50265501  0.38047363  0.63062442  1
  C  C221  1  0.50274322  0.71346510  0.63458223  1
  C  C222  1  0.00175424  0.28642013  0.13318213  1
  C  C223  1  0.00017746  0.61941104  0.13316712  1
  C  C224  1  0.00030202  0.95279860  0.12996788  1
  C  C225  1  0.50184600  0.28801329  0.13242174  1
  C  C226  1  0.50118232  0.61995984  0.13296630  1
  C  C227  1  0.50113825  0.95350938  0.13298059  1
  C  C228  1  -0.00194608  0.04636199  0.86709693  1
  C  C229  1  0.00003586  0.37957504  0.86517741  1
  C  C230  1  -0.00291529  0.71373981  0.86841305  1
  C  C231  1  0.49784479  0.04708045  0.86696496  1
  C  C232  1  0.50214501  0.38067579  0.86765589  1
  C  C233  1  0.49874622  0.71189864  0.86794719  1
  C  C234  1  -0.00169988  0.28659573  0.36637671  1
  C  C235  1  -0.00329828  0.61963524  0.36516964  1
  C  C236  1  -0.00262103  0.95357801  0.36797624  1
  C  C237  1  0.49528434  0.28716220  0.36737039  1
  C  C238  1  0.49436928  0.61944587  0.36691484  1
  C  C239  1  0.49924586  0.95281849  0.36818002  1
  C  C240  1  0.25277133  0.21552616  0.63014470  1
  C  C241  1  0.25297130  0.54625540  0.63247793  1
  C  C242  1  0.25198064  0.87984163  0.63278081  1
  C  C243  1  0.75217607  0.21357276  0.63515441  1
  C  C244  1  0.75265475  0.54712005  0.63322345  1
  C  C245  1  0.75194673  0.88057334  0.63204653  1
  C  C246  1  0.25048491  0.11911359  0.13350088  1
  C  C247  1  0.24882566  0.45351899  0.13399026  1
  C  C248  1  0.25051870  0.78734646  0.13391477  1
  C  C249  1  0.75286470  0.12004679  0.13254429  1
  C  C250  1  0.74903050  0.45454157  0.13102223  1
  C  C251  1  0.75203854  0.78593477  0.13000000  1
  C  C252  1  0.24587732  0.21361102  0.86632298  1
  C  C253  1  0.25022694  0.54647154  0.86652931  1
  C  C254  1  0.24900662  0.88092152  0.86687562  1
  C  C255  1  0.74737852  0.21348834  0.86975449  1
  C  C256  1  0.74964959  0.54666667  0.86700882  1
  C  C257  1  0.74848279  0.88011441  0.86813777  1
  C  C258  1  0.25020125  0.11957204  0.36695856  1
  C  C259  1  0.25038360  0.45280439  0.36623339  1
  C  C260  1  0.24686743  0.78615549  0.36726608  1
  C  C261  1  0.75172178  0.11993841  0.36630352  1
  C  C262  1  0.74808318  0.45189153  0.36792197  1
  C  C263  1  0.75052991  0.78836940  0.36606395  1
  C  C264  1  0.96197535  0.07408184  0.53851677  1
  C  C265  1  0.30479063  0.43018133  0.45607459  1
  C  C266  1  0.45798886  0.07219404  0.96083846  1
  C  C267  1  0.29124869  0.76146724  0.04078686  1
  C  C268  1  0.20762763  0.57228679  0.95825813  1
  C  C269  1  0.03600997  0.25991171  0.45962213  1
  C  C270  1  0.97700459  0.40573189  0.96089481  1
  C  C271  1  0.96700298  0.92524449  0.03450784  1
  C  C272  1  0.80960008  0.57205942  0.54466307  1
  C  C273  1  0.21204743  0.09331948  0.04087437  1
  C  C274  1  0.72292845  0.09396473  0.46277838  1
  C  C275  1  0.55460526  0.40573082  0.54117547  1
  C  C276  1  0.51085464  0.26166688  0.46595701  1
  C  C277  1  0.31073343  0.90616202  0.54432809  1
  C  C278  1  0.21043044  0.42802437  0.04123046  1
  C  C279  1  0.80469114  0.09558296  0.45701580  1
  C  C280  1  0.53761551  0.40817227  0.96056503  1
  C  C281  1  0.80497510  0.76017455  0.04123398  1
  C  C282  1  0.53653839  0.92719245  0.46234414  1
  C  C283  1  0.45499465  0.92727307  0.46188907  1
  C  C284  1  0.93638461  0.59699527  0.45308028  1
  C  C285  1  0.53286098  0.74052836  0.53835446  1
  C  C286  1  0.45162078  0.73833597  0.54401351  1
  C  C287  1  0.70367937  0.90729287  0.95926920  1
  C  C288  1  0.72058383  0.23745669  0.53859605  1
  C  C289  1  0.80245550  0.23643634  0.54319662  1
  C  C290  1  0.28918088  0.76058577  0.46034386  1
  C  C291  1  0.04532148  0.59290437  0.04198029  1
  C  C292  1  0.43080560  0.26504700  0.45379372  1
  C  C293  1  0.69813864  0.42568986  0.04073939  1
  C  C294  1  0.98133333  0.73900812  0.53770305  1
  C  C295  1  0.03993876  0.40210634  0.54002425  1
  C  C296  1  0.46118544  0.92866367  0.03848063  1
  C  C297  1  0.27463435  0.23828160  0.96258592  1
  C  C298  1  0.28161204  0.90830877  0.96116768  1
  C  C299  1  0.52361367  0.07040220  0.53926681  1
  C  C300  1  0.95686103  0.07305583  0.95943049  1
  C  C301  1  0.71509738  0.90765070  0.53926559  1
  C  C302  1  0.52382129  0.59468635  0.46297776  1
  C  C303  1  0.01772013  0.73973160  0.96559870  1
  C  C304  1  0.01681779  0.59440349  0.46347437  1
  C  C305  1  0.76898115  0.42639809  0.46514757  1
  C  C306  1  0.95801408  0.40177866  0.54140032  1
  C  C307  1  0.78409326  0.24333192  0.96370230  1
  C  C308  1  0.54353442  0.92804623  0.03915929  1
  C  C309  1  0.28749776  0.09338105  0.46108904  1
  C  C310  1  0.53949483  0.07188129  0.96117429  1
  C  C311  1  0.22408638  0.42959771  0.46406035  1
  N  N312  1  0.23227267  0.57293751  0.53808770  1
  N  N313  1  0.20937131  0.76059295  0.46018593  1
  N  N314  1  0.02104453  0.92621036  0.46144993  1
  N  N315  1  0.73047499  0.57349873  0.53794276  1
  N  N316  1  0.19545059  0.23716572  0.95598719  1
  N  N317  1  0.05028713  0.26091539  0.04192777  1
  N  N318  1  0.47655103  0.74043542  0.96140299  1
  N  N319  1  0.29139838  0.09386770  0.03908946  1
  N  N320  1  0.97403348  0.25994123  0.03724628  1
  N  N321  1  0.03473728  0.07363101  0.96240840  1
  N  N322  1  0.48328772  0.25864599  0.03849093  1
  N  N323  1  0.22215352  0.23289320  0.53402507  1
  N  N324  1  0.78762078  0.57264401  0.96096201  1
  N  N325  1  0.46268434  0.59454759  0.03900792  1
  N  N326  1  0.44461343  0.59449150  0.45648751  1
  N  N327  1  0.47753702  0.40741274  0.53308517  1
  N  N328  1  0.05594894  0.40549679  0.95476793  1
  N  N329  1  0.28968057  0.42695565  0.03985664  1
  N  N330  1  0.20356989  0.90693911  0.96006547  1
  N  N331  1  0.79249510  0.90798887  0.53799355  1
  N  N332  1  0.56087165  0.26228199  0.04497407  1
  N  N333  1  0.30990438  0.57050259  0.54373954  1
  N  N334  1  0.71134695  0.57236311  0.96101130  1
  N  N335  1  0.30038467  0.24075619  0.54048663  1
  N  N336  1  0.28690996  0.57354669  0.96168181  1
  N  N337  1  0.53898347  0.59409819  0.03893220  1
  N  N338  1  0.93915317  0.73849288  0.95538953  1
  N  N339  1  0.06017732  0.73721845  0.54455456  1
  N  N340  1  0.69516284  0.76275085  0.45488419  1
  N  N341  1  0.78113095  0.90936350  0.96357280  1
  N  N342  1  0.77703616  0.42539878  0.03752113  1
  N  N343  1  0.69029852  0.42791475  0.45519252  1
  N  N344  1  0.21165835  0.75899272  0.04227224  1
  N  N345  1  0.55417147  0.73856100  0.95638682  1
  N  N346  1  0.04594944  0.92694692  0.03935955  1
  N  N347  1  0.72809459  0.75758902  0.03261666  1
  N  N348  1  0.95818216  0.25997249  0.46079879  1
  N  N349  1  0.44468987  0.07019669  0.54553229  1
  N  N350  1  0.20783104  0.09445168  0.45865641  1
  N  N351  1  0.94333975  0.92716303  0.45721806  1
  N  N352  1  0.77287231  0.76039633  0.45969210  1
  N  N353  1  0.71426117  0.09375684  0.03858696  1
  N  N354  1  0.70504142  0.24211903  0.96039482  1
  N  N355  1  0.46017559  0.40698933  0.96152857  1
  N  N356  1  0.96776533  0.59236693  0.03700339  1
  N  N357  1  0.04007217  0.07402415  0.53882281  1
  N  N358  1  0.23202911  0.90836933  0.53774504  1
  N  N359  1  0.79264451  0.09371799  0.04179624  1
  N  N360  1  0.06120334  0.05676464  0.59865742  1
  N  N361  1  0.06601195  0.38849830  0.59885535  1
  N  N362  1  0.07085814  0.72195386  0.60502554  1
  N  N363  1  0.55948662  0.05613175  0.59422318  1
  N  N364  1  0.57244044  0.38954291  0.60067019  1
  N  N365  1  0.56370872  0.72453208  0.59602606  1
  N  N366  1  0.44579426  0.27699782  0.09055275  1
  N  N367  1  0.43767989  0.61011825  0.09732759  1
  N  N368  1  0.43647426  0.94432239  0.09723205  1
  N  N369  1  0.94261255  0.27565368  0.09349368  1
  N  N370  1  0.93950496  0.60917039  0.09517095  1
  N  N371  1  0.93849388  0.94090711  0.09061372  1
  N  N372  1  0.43300734  0.05726531  0.90400233  1
  N  N373  1  0.43785344  0.38989995  0.90235411  1
  N  N374  1  0.44075864  0.72195090  0.90860606  1
  N  N375  1  0.93230210  0.05654004  0.90194352  1
  N  N376  1  0.94125613  0.39015656  0.90628234  1
  N  N377  1  0.92709964  0.72218257  0.89576812  1
  N  N378  1  0.06258783  0.27604606  0.40266215  1
  N  N379  1  0.05349909  0.60891477  0.40720287  1
  N  N380  1  0.05583116  0.94397708  0.40819914  1
  N  N381  1  0.55030826  0.27565853  0.41061201  1
  N  N382  1  0.55492254  0.60995986  0.40737829  1
  N  N383  1  0.56300700  0.94255523  0.40600299  1
  N  N384  1  0.31946043  0.22309217  0.59753300  1
  N  N385  1  0.32215116  0.55503134  0.60290866  1
  N  N386  1  0.32303684  0.88904902  0.60335164  1
  N  N387  1  0.82049541  0.22185585  0.60337136  1
  N  N388  1  0.82335980  0.55587110  0.60393671  1
  N  N389  1  0.81575611  0.89085991  0.59716215  1
  N  N390  1  0.18538982  0.10866941  0.09850462  1
  N  N391  1  0.18367424  0.44375559  0.09886345  1
  N  N392  1  0.18666189  0.77805289  0.09886052  1
  N  N393  1  0.69029442  0.10964843  0.09554692  1
  N  N394  1  0.68069567  0.44315468  0.09864650  1
  N  N395  1  0.69501150  0.77420869  0.08922038  1
  N  N396  1  0.17798751  0.22304827  0.89645907  1
  N  N397  1  0.18374858  0.55640770  0.90000330  1
  N  N398  1  0.18351031  0.88983134  0.90014256  1
  N  N399  1  0.68175565  0.22324179  0.90257826  1
  N  N400  1  0.68615722  0.55611939  0.90290110  1
  N  N401  1  0.68126009  0.88979553  0.90147418  1
  N  N402  1  0.31403259  0.10887282  0.40400697  1
  N  N403  1  0.32024914  0.44398272  0.39714638  1
  N  N404  1  0.31248523  0.77637933  0.40251573  1
  N  N405  1  0.82080529  0.11168493  0.39683178  1
  N  N406  1  0.80533557  0.44118548  0.41101748  1
  N  N407  1  0.80841687  0.77764859  0.40655773  1
  N  N408  1  0.42216012  0.28069101  0.39406780  1
  N  N409  1  0.42678844  0.60945038  0.39730429  1
  N  N410  1  0.43311016  0.94346696  0.40171352  1
  N  N411  1  0.93457020  0.27681116  0.40154483  1
  N  N412  1  0.92454084  0.61197648  0.39358501  1
  N  N413  1  0.92922598  0.94313423  0.39845826  1
  N  N414  1  0.06042563  0.05667347  0.90335517  1
  N  N415  1  0.06834445  0.38930768  0.89493297  1
  N  N416  1  0.05426356  0.72498677  0.91148324  1
  N  N417  1  0.56315914  0.05635106  0.90150355  1
  N  N418  1  0.56627448  0.39190260  0.90417553  1
  N  N419  1  0.56745773  0.72242263  0.89767543  1
  N  N420  1  0.06879588  0.27742069  0.10150151  1
  N  N421  1  0.06756419  0.60927984  0.10013985  1
  N  N422  1  0.06704569  0.94441084  0.09811961  1
  N  N423  1  0.57160887  0.27841155  0.10411773  1
  N  N424  1  0.56443949  0.61009856  0.09701942  1
  N  N425  1  0.56653871  0.94338019  0.09832690  1
  N  N426  1  0.43234077  0.05486827  0.60551226  1
  N  N427  1  0.44509116  0.39125116  0.59005264  1
  N  N428  1  0.43386833  0.72225146  0.60218044  1
  N  N429  1  0.93326026  0.05750022  0.59489227  1
  N  N430  1  0.93559574  0.38787330  0.60094085  1
  N  N431  1  0.94417933  0.72499677  0.59221323  1
  N  N432  1  0.18506114  0.11026509  0.40058400  1
  N  N433  1  0.19068964  0.44356510  0.40662984  1
  N  N434  1  0.18346577  0.77619314  0.40269153  1
  N  N435  1  0.69118026  0.10926217  0.40590322  1
  N  N436  1  0.67821541  0.44283361  0.39512311  1
  N  N437  1  0.68201441  0.77862890  0.39625629  1
  N  N438  1  0.30629556  0.22349023  0.90695260  1
  N  N439  1  0.31184110  0.55723962  0.90388464  1
  N  N440  1  0.31137388  0.89238650  0.90497861  1
  N  N441  1  0.81050105  0.22573815  0.90777384  1
  N  N442  1  0.81296584  0.55693304  0.90273447  1
  N  N443  1  0.80920220  0.89205806  0.90548453  1
  N  N444  1  0.31360404  0.10971864  0.09717784  1
  N  N445  1  0.31186088  0.44298637  0.09797666  1
  N  N446  1  0.31576489  0.77728661  0.09808400  1
  N  N447  1  0.81737411  0.11040313  0.09824140  1
  N  N448  1  0.80956438  0.44446512  0.09271854  1
  N  N449  1  0.82233593  0.77717440  0.10054158  1
  N  N450  1  0.19214080  0.22603992  0.59191682  1
  N  N451  1  0.19603723  0.55673259  0.59124810  1
  N  N452  1  0.19482369  0.89078655  0.59188385  1
  N  N453  1  0.69051102  0.22331579  0.59635133  1
  N  N454  1  0.69523619  0.55789146  0.59235175  1
  N  N455  1  0.68739810  0.89102789  0.59575871  1
  Cl  Cl456  1  0.24588211  0.05422685  0.61212722  1
  Cl  Cl457  1  0.25413825  0.38494290  0.61364034  1
  Cl  Cl458  1  0.25200711  0.72053131  0.61904163  1
  Cl  Cl459  1  0.74608320  0.05312318  0.61508711  1
  Cl  Cl460  1  0.75334203  0.39039175  0.61903277  1
  Cl  Cl461  1  0.75886892  0.72344634  0.60395854  1
  Cl  Cl462  1  0.25902252  0.27516828  0.10998546  1
  Cl  Cl463  1  0.25162129  0.61603010  0.12035273  1
  Cl  Cl464  1  0.25001395  0.94641522  0.12402481  1
  Cl  Cl465  1  0.75668436  0.28068597  0.11323951  1
  Cl  Cl466  1  0.75092224  0.61373109  0.12190172  1
  Cl  Cl467  1  0.75316313  0.94921374  0.11814978  1
  Cl  Cl468  1  0.24586853  0.05215381  0.88111362  1
  Cl  Cl469  1  0.25256284  0.38381870  0.88087597  1
  Cl  Cl470  1  0.24769606  0.72751126  0.89662544  1
  Cl  Cl471  1  0.75043962  0.05445190  0.88176297  1
  Cl  Cl472  1  0.75630033  0.38760610  0.89190820  1
  Cl  Cl473  1  0.74842149  0.71895103  0.87144481  1
  Cl  Cl474  1  0.24139138  0.27756224  0.38645377  1
  Cl  Cl475  1  0.24019251  0.61036987  0.39355726  1
  Cl  Cl476  1  0.23850180  0.94234450  0.39564328  1
  Cl  Cl477  1  0.74441987  0.27969591  0.38465377  1
  Cl  Cl478  1  0.73752032  0.60967328  0.39316467  1
  Cl  Cl479  1  0.74619337  0.94752193  0.38002385  1
  Cl  Cl480  1  0.00849495  0.21769616  0.61733688  1
  Cl  Cl481  1  0.01209214  0.55535944  0.61340163  1
  Cl  Cl482  1  0.00941262  0.89259159  0.60822360  1
  Cl  Cl483  1  0.50330694  0.22036743  0.62008656  1
  Cl  Cl484  1  0.50943655  0.55668061  0.60884627  1
  Cl  Cl485  1  0.50406231  0.88499311  0.62003805  1
  Cl  Cl486  1  -0.00090628  0.11092669  0.11662087  1
  Cl  Cl487  1  -0.00584662  0.44615192  0.11578884  1
  Cl  Cl488  1  0.00536394  0.77975239  0.11378820  1
  Cl  Cl489  1  0.50250422  0.11360213  0.11660592  1
  Cl  Cl490  1  0.49713151  0.44531062  0.11862656  1
  Cl  Cl491  1  0.50011765  0.77557909  0.10788581  1
  Cl  Cl492  1  -0.00520979  0.21552771  0.88042815  1
  Cl  Cl493  1  -0.00213053  0.55277640  0.87962880  1
  Cl  Cl494  1  -0.00159709  0.88742332  0.88415641  1
  Cl  Cl495  1  0.49225955  0.22427915  0.89258344  1
  Cl  Cl496  1  0.50022160  0.55048158  0.87730587  1
  Cl  Cl497  1  0.49626040  0.88676140  0.88540144  1
  Cl  Cl498  1  0.00364413  0.11651351  0.38023598  1
  Cl  Cl499  1  -0.00517534  0.44451190  0.38561646  1
  Cl  Cl500  1  -0.00588033  0.77736361  0.38765427  1
  Cl  Cl501  1  0.50359093  0.11134016  0.38449387  1
  Cl  Cl502  1  0.50141280  0.45144576  0.37893392  1
  Cl  Cl503  1  0.49841325  0.78197437  0.37768061  1
  Cl  Cl504  1  0.36243610  0.14515609  0.74650930  1
  Cl  Cl505  1  0.36015728  0.47851839  0.74671279  1
  Cl  Cl506  1  0.36292311  0.81008440  0.74677782  1
  Cl  Cl507  1  0.86131679  0.14385726  0.74844752  1
  Cl  Cl508  1  0.86500512  0.47859121  0.74604301  1
  Cl  Cl509  1  0.86461177  0.81133107  0.74914828  1
  Cl  Cl510  1  0.13948616  0.18954855  0.25024925  1
  Cl  Cl511  1  0.14064429  0.52334310  0.24945701  1
  Cl  Cl512  1  0.14075985  0.85643800  0.25185162  1
  Cl  Cl513  1  0.63947178  0.18916764  0.24593790  1
  Cl  Cl514  1  0.63824213  0.52165701  0.25260955  1
  Cl  Cl515  1  0.63696640  0.85470429  0.25077443  1
  Cl  Cl516  1  0.13933712  0.14582663  0.75024601  1
  Cl  Cl517  1  0.13704714  0.47715151  0.75088257  1
  Cl  Cl518  1  0.14187576  0.80922899  0.75047979  1
  Cl  Cl519  1  0.63920553  0.14394589  0.75222405  1
  Cl  Cl520  1  0.64072344  0.47780033  0.74772622  1
  Cl  Cl521  1  0.63679391  0.81153017  0.75014407  1
  Cl  Cl522  1  0.36299858  0.18844004  0.25215738  1
  Cl  Cl523  1  0.36279546  0.52252171  0.25435820  1
  Cl  Cl524  1  0.36156698  0.85480247  0.25130295  1
  Cl  Cl525  1  0.86308602  0.18915247  0.25186193  1
  Cl  Cl526  1  0.86034317  0.52219366  0.25475884  1
  Cl  Cl527  1  0.86319312  0.85485486  0.24837476  1
  Cl  Cl528  1  0.11333866  0.30999975  0.75304365  1
  Cl  Cl529  1  0.11349486  0.64643975  0.74922980  1
  Cl  Cl530  1  0.11376068  0.97817019  0.74842014  1
  Cl  Cl531  1  0.61532523  0.31097466  0.74884291  1
  Cl  Cl532  1  0.61217140  0.64525027  0.74922902  1
  Cl  Cl533  1  0.60980678  0.97807841  0.75203995  1
  Cl  Cl534  1  0.38823491  0.02274406  0.25147383  1
  Cl  Cl535  1  0.38594642  0.35627143  0.25458238  1
  Cl  Cl536  1  0.38553366  0.68869202  0.25224038  1
  Cl  Cl537  1  0.88828206  0.02174982  0.25242377  1
  Cl  Cl538  1  0.88808946  0.35656898  0.25040681  1
  Cl  Cl539  1  0.89017292  0.69020043  0.25360877  1
  Cl  Cl540  1  0.38885860  0.31016466  0.75058104  1
  Cl  Cl541  1  0.38756550  0.64382192  0.74522673  1
  Cl  Cl542  1  0.38561873  0.97743595  0.74700069  1
  Cl  Cl543  1  0.88781621  0.31085149  0.74667440  1
  Cl  Cl544  1  0.88759883  0.64537280  0.75028471  1
  Cl  Cl545  1  0.88993199  0.97535935  0.74912186  1
  Cl  Cl546  1  0.11326511  0.02200072  0.24927861  1
  Cl  Cl547  1  0.11366564  0.35590727  0.24848629  1
  Cl  Cl548  1  0.11485976  0.68920896  0.24842054  1
  Cl  Cl549  1  0.61360265  0.02207853  0.25040365  1
  Cl  Cl550  1  0.61103967  0.35552239  0.24801098  1
  Cl  Cl551  1  0.61053400  0.68818399  0.25326552  1
