# generated using pymatgen
data_H8PbC4(N3Cl2)2
_symmetry_space_group_name_H-M   'P 1'
_cell_length_a   16.62348529
_cell_length_b   22.50369287
_cell_length_c   21.58924326
_cell_angle_alpha   89.99949351
_cell_angle_beta   89.99034414
_cell_angle_gamma   90.00129499
_symmetry_Int_Tables_number   1
_chemical_formula_structural   H8PbC4(N3Cl2)2
_chemical_formula_sum   'H192 Pb24 C96 N144 Cl96'
_cell_volume   8076.31573268
_cell_formula_units_Z   24
loop_
 _symmetry_equiv_pos_site_id
 _symmetry_equiv_pos_as_xyz
  1  'x, y, z'
loop_
 _atom_site_type_symbol
 _atom_site_label
 _atom_site_symmetry_multiplicity
 _atom_site_fract_x
 _atom_site_fract_y
 _atom_site_fract_z
 _atom_site_occupancy
  H  H0  1  0.00735389  0.03033630  0.67666831  1
  H  H1  1  0.01207820  0.36594492  0.68181735  1
  H  H2  1  -0.00100421  0.69957505  0.67939717  1
  H  H3  1  0.49708089  0.03044113  0.68179504  1
  H  H4  1  0.49085551  0.36345597  0.67803563  1
  H  H5  1  0.49194879  0.69928476  0.67831866  1
  H  H6  1  -0.00660845  0.29988731  0.18040306  1
  H  H7  1  0.00006710  0.63849367  0.18131205  1
  H  H8  1  -0.00082112  0.96734641  0.18054166  1
  H  H9  1  0.50873488  0.30149780  0.17836531  1
  H  H10  1  0.49851696  0.63585316  0.17974043  1
  H  H11  1  0.49866674  0.96657713  0.18067890  1
  H  H12  1  0.00363975  0.03145753  0.81759848  1
  H  H13  1  -0.00811533  0.36460593  0.82076331  1
  H  H14  1  0.00133610  0.70164851  0.82308896  1
  H  H15  1  0.49703217  0.03130636  0.82030679  1
  H  H16  1  0.50963562  0.36390301  0.82051898  1
  H  H17  1  0.49758696  0.69800540  0.82106598  1
  H  H18  1  0.00347218  0.30047966  0.32000083  1
  H  H19  1  -0.00548179  0.63756788  0.32014257  1
  H  H20  1  0.00144928  0.96906305  0.32232129  1
  H  H21  1  0.50112862  0.30125244  0.31915166  1
  H  H22  1  0.49999842  0.63417513  0.32101848  1
  H  H23  1  0.50593032  0.96777108  0.31939602  1
  H  H24  1  0.24283226  0.19994918  0.68216228  1
  H  H25  1  0.24475917  0.53205155  0.68105692  1
  H  H26  1  0.24130371  0.86715468  0.67780250  1
  H  H27  1  0.74602563  0.19887200  0.67822513  1
  H  H28  1  0.75066797  0.53006542  0.68164771  1
  H  H29  1  0.75452604  0.86449318  0.67822535  1
  H  H30  1  0.24614228  0.13716421  0.17919607  1
  H  H31  1  0.25880579  0.46721773  0.17729001  1
  H  H32  1  0.24269287  0.80268150  0.17926925  1
  H  H33  1  0.74518800  0.13382171  0.18096469  1
  H  H34  1  0.74952122  0.46955676  0.18270893  1
  H  H35  1  0.76336950  0.80034078  0.17386710  1
  H  H36  1  0.24990187  0.19712968  0.82193463  1
  H  H37  1  0.23613438  0.53040660  0.81977789  1
  H  H38  1  0.25648343  0.86515850  0.81797636  1
  H  H39  1  0.74965908  0.18992142  0.82295724  1
  H  H40  1  0.76322981  0.53242261  0.81904993  1
  H  H41  1  0.74485690  0.86480227  0.82099937  1
  H  H42  1  0.26148586  0.13363174  0.31862130  1
  H  H43  1  0.24858466  0.46949800  0.31727704  1
  H  H44  1  0.25449801  0.80361506  0.32116324  1
  H  H45  1  0.73974689  0.13332900  0.32114359  1
  H  H46  1  0.75015308  0.46878022  0.31914239  1
  H  H47  1  0.75480730  0.80177201  0.32370954  1
  H  H48  1  0.11711592  0.05625394  0.59356649  1
  H  H49  1  0.11716582  0.38978678  0.59818288  1
  H  H50  1  0.13101172  0.72190607  0.61652392  1
  H  H51  1  0.62318872  0.05159046  0.61305758  1
  H  H52  1  0.62785348  0.38210618  0.62075094  1
  H  H53  1  0.63221987  0.71866693  0.62581693  1
  H  H54  1  0.37295666  0.28210261  0.11991255  1
  H  H55  1  0.37716315  0.61063097  0.10786203  1
  H  H56  1  0.38125653  0.94649167  0.10567634  1
  H  H57  1  0.88022988  0.27646239  0.10251445  1
  H  H58  1  0.87404665  0.61636380  0.11295729  1
  H  H59  1  0.87777891  0.94554810  0.10949513  1
  H  H60  1  0.37334503  0.05610729  0.89346032  1
  H  H61  1  0.37261617  0.38337101  0.87887054  1
  H  H62  1  0.37956697  0.72269252  0.89627448  1
  H  H63  1  0.87145976  0.05017969  0.87993359  1
  H  H64  1  0.88202931  0.39025095  0.90211935  1
  H  H65  1  0.87660806  0.72108676  0.89155878  1
  H  H66  1  0.11618156  0.27767845  0.39980043  1
  H  H67  1  0.12265564  0.61423109  0.38683074  1
  H  H68  1  0.12411354  0.94494571  0.39388357  1
  H  H69  1  0.61959178  0.27641771  0.39523489  1
  H  H70  1  0.62504353  0.61012159  0.38998311  1
  H  H71  1  0.62288862  0.94403200  0.39771479  1
  H  H72  1  0.38253707  0.21739056  0.62730429  1
  H  H73  1  0.37145611  0.55440833  0.61183421  1
  H  H74  1  0.37681586  0.88413244  0.62010540  1
  H  H75  1  0.87985617  0.21985068  0.61603616  1
  H  H76  1  0.87437318  0.55444453  0.60931516  1
  H  H77  1  0.87540029  0.88714945  0.60440649  1
  H  H78  1  0.13195771  0.11135812  0.09885244  1
  H  H79  1  0.12349736  0.44623529  0.11788752  1
  H  H80  1  0.12529854  0.77794205  0.10097026  1
  H  H81  1  0.62769603  0.11002295  0.10536866  1
  H  H82  1  0.62536232  0.44292696  0.11163829  1
  H  H83  1  0.62195334  0.78562780  0.12477045  1
  H  H84  1  0.12484038  0.22258880  0.89049282  1
  H  H85  1  0.13053656  0.55963897  0.90498525  1
  H  H86  1  0.12118441  0.88143585  0.87671858  1
  H  H87  1  0.62638399  0.22040385  0.89150310  1
  H  H88  1  0.62396479  0.55107472  0.87540179  1
  H  H89  1  0.62622663  0.88908734  0.89832361  1
  H  H90  1  0.37298154  0.10964933  0.40036921  1
  H  H91  1  0.37354960  0.44667165  0.38656511  1
  H  H92  1  0.36572820  0.77557448  0.40194624  1
  H  H93  1  0.88192168  0.11647222  0.37031637  1
  H  H94  1  0.87320818  0.44588395  0.39042759  1
  H  H95  1  0.86886659  0.77808826  0.40192056  1
  H  H96  1  0.37126237  0.28041786  0.38486714  1
  H  H97  1  0.37684718  0.61489280  0.39318020  1
  H  H98  1  0.37414925  0.94660270  0.38340364  1
  H  H99  1  0.86765764  0.27986384  0.38030320  1
  H  H100  1  0.87464613  0.61283619  0.39571494  1
  H  H101  1  0.87507984  0.94552896  0.39170790  1
  H  H102  1  0.12033827  0.05543137  0.89327172  1
  H  H103  1  0.12925703  0.38358379  0.87875689  1
  H  H104  1  0.12544408  0.72131304  0.89189877  1
  H  H105  1  0.62206406  0.05292876  0.89263232  1
  H  H106  1  0.61868744  0.39139596  0.90398766  1
  H  H107  1  0.62872188  0.72082852  0.88519331  1
  H  H108  1  0.12832904  0.28256329  0.12010467  1
  H  H109  1  0.12380738  0.61242576  0.10951987  1
  H  H110  1  0.12746695  0.94655691  0.11299242  1
  H  H111  1  0.61996132  0.27275379  0.09791481  1
  H  H112  1  0.62658167  0.61424570  0.11127741  1
  H  H113  1  0.63042566  0.94798476  0.11652296  1
  H  H114  1  0.37302987  0.05455441  0.60990889  1
  H  H115  1  0.38188066  0.39226316  0.59645845  1
  H  H116  1  0.38705184  0.72769299  0.59349788  1
  H  H117  1  0.87104187  0.05076099  0.61699038  1
  H  H118  1  0.87173363  0.38231240  0.62951971  1
  H  H119  1  0.88291315  0.72433442  0.60069306  1
  H  H120  1  0.12534954  0.11469445  0.37933180  1
  H  H121  1  0.12380198  0.44515323  0.38807364  1
  H  H122  1  0.11797350  0.78410651  0.37946166  1
  H  H123  1  0.63767294  0.10942167  0.40657964  1
  H  H124  1  0.62455592  0.44541568  0.38928424  1
  H  H125  1  0.62140928  0.77969836  0.38533392  1
  H  H126  1  0.37344104  0.22164184  0.89367474  1
  H  H127  1  0.37510850  0.54980852  0.87494070  1
  H  H128  1  0.36896033  0.88822801  0.89722641  1
  H  H129  1  0.87490348  0.22102515  0.88898503  1
  H  H130  1  0.86983116  0.56017674  0.90212168  1
  H  H131  1  0.87484151  0.88293876  0.88690171  1
  H  H132  1  0.37963558  0.11501559  0.11741750  1
  H  H133  1  0.37037810  0.44058612  0.09683892  1
  H  H134  1  0.37376390  0.78044872  0.11625633  1
  H  H135  1  0.87615878  0.11351302  0.11456511  1
  H  H136  1  0.87501562  0.44602886  0.11448794  1
  H  H137  1  0.86522543  0.77558260  0.08893392  1
  H  H138  1  0.13560409  0.22254019  0.59958970  1
  H  H139  1  0.12323733  0.55635038  0.60696501  1
  H  H140  1  0.12995563  0.88959955  0.59865265  1
  H  H141  1  0.63219925  0.22343239  0.59970203  1
  H  H142  1  0.62609396  0.55563812  0.61030417  1
  H  H143  1  0.62637274  0.88680685  0.61050478  1
  H  H144  1  0.58436724  0.58558496  0.00557352  1
  H  H145  1  0.93292460  0.58649203  0.49862898  1
  H  H146  1  0.68767477  0.23214395  0.99803193  1
  H  H147  1  0.14215531  0.75459039  0.49226931  1
  H  H148  1  0.46261348  0.75155299  0.49369520  1
  H  H149  1  0.60176184  0.41808188  0.51534485  1
  H  H150  1  0.42519882  0.07644380  0.50331111  1
  H  H151  1  0.65258632  0.75282676  0.49479546  1
  H  H152  1  0.14244843  0.91049865  0.99007813  1
  H  H153  1  0.82802421  0.41706857  0.49949654  1
  H  H154  1  0.07068874  0.59807407  0.00162228  1
  H  H155  1  0.54315135  0.41312025  1.00511393  1
  H  H156  1  0.71314916  0.08215052  0.51107476  1
  H  H157  1  0.20902807  0.58242971  1.00443804  1
  H  H158  1  0.91835315  0.59209228  0.00052084  1
  H  H159  1  0.17873188  0.58534596  0.50428921  1
  H  H160  1  0.42557634  0.58198470  -0.00091978  1
  H  H161  1  0.40749535  0.91702613  0.49479033  1
  H  H162  1  0.89758040  0.25346411  0.48860642  1
  H  H163  1  0.83017008  0.42090334  0.00228020  1
  H  H164  1  0.79647964  0.58924558  1.00550529  1
  H  H165  1  0.57858343  0.07866038  0.50119823  1
  H  H166  1  0.29824627  0.75705602  0.50518428  1
  H  H167  1  0.42834202  0.57391312  0.49091928  1
  H  H168  1  0.40597139  0.24954138  0.49568458  1
  H  H169  1  0.04507628  0.41630938  0.49219844  1
  H  H170  1  0.06376945  0.08128047  1.00296120  1
  H  H171  1  0.59862946  0.75110636  0.99272220  1
  H  H172  1  0.43363155  0.75317187  1.00363800  1
  H  H173  1  0.55039015  0.24871310  -0.00440420  1
  H  H174  1  0.10324192  0.40975129  0.98778283  1
  H  H175  1  0.17386980  0.42396244  0.49520550  1
  H  H176  1  0.45479635  0.40400253  0.49488073  1
  H  H177  1  0.57685650  0.59596818  0.49604255  1
  H  H178  1  0.43722662  0.92153949  -0.00600109  1
  H  H179  1  0.94894238  0.41393296  1.00915737  1
  H  H180  1  0.30649306  0.91428388  1.00520697  1
  H  H181  1  0.20090537  0.08672761  -0.00278484  1
  H  H182  1  0.30332614  0.08396731  0.50630593  1
  H  H183  1  0.32694239  0.42067956  0.49859795  1
  H  H184  1  0.90224195  0.07774291  0.99269176  1
  H  H185  1  0.89722781  0.08074482  0.50752913  1
  H  H186  1  0.92414006  0.91384058  -0.00028973  1
  H  H187  1  0.67786013  0.42762113  0.00355549  1
  H  H188  1  0.81686581  0.23353514  0.99651090  1
  H  H189  1  0.94227895  0.25065478  -0.00719621  1
  H  H190  1  0.05270152  0.25024733  0.50699285  1
  H  H191  1  0.20492199  0.24738764  0.49258271  1
  Pb  Pb192  1  0.24922348  0.04577269  0.75023414  1
  Pb  Pb193  1  0.25155889  0.37832570  0.73828271  1
  Pb  Pb194  1  0.25479217  0.71690086  0.74398394  1
  Pb  Pb195  1  0.74989138  0.04458238  0.75061511  1
  Pb  Pb196  1  0.74959805  0.38055889  0.76082444  1
  Pb  Pb197  1  0.75253906  0.71179090  0.74617888  1
  Pb  Pb198  1  0.25108835  0.28750400  0.25544780  1
  Pb  Pb199  1  0.24621934  0.61900028  0.24862762  1
  Pb  Pb200  1  0.25008911  0.95388645  0.24882719  1
  Pb  Pb201  1  0.74702425  0.28172678  0.24217440  1
  Pb  Pb202  1  0.74973111  0.62240794  0.24993039  1
  Pb  Pb203  1  0.75095751  0.95379196  0.25375292  1
  Pb  Pb204  1  0.00006730  0.21314328  0.74734390  1
  Pb  Pb205  1  0.00477488  0.54997120  0.75449396  1
  Pb  Pb206  1  -0.00136256  0.87858178  0.74620311  1
  Pb  Pb207  1  0.50204934  0.21195379  0.75509998  1
  Pb  Pb208  1  0.49959847  0.54716534  0.74495727  1
  Pb  Pb209  1  0.50351518  0.88002941  0.75212483  1
  Pb  Pb210  1  0.00431026  0.11949187  0.24281942  1
  Pb  Pb211  1  -0.00511989  0.45123458  0.24968584  1
  Pb  Pb212  1  -0.00178147  0.78885218  0.24616627  1
  Pb  Pb213  1  0.49960299  0.11697311  0.25996056  1
  Pb  Pb214  1  0.50036611  0.45327995  0.24877440  1
  Pb  Pb215  1  0.49785182  0.78740980  0.25454865  1
  C  C216  1  -0.00185430  0.04565468  0.62951507  1
  C  C217  1  0.00036138  0.37931705  0.63446028  1
  C  C218  1  0.00421663  0.71447408  0.63198370  1
  C  C219  1  0.49726897  0.04559398  0.63390740  1
  C  C220  1  0.50016172  0.37891100  0.63079239  1
  C  C221  1  0.50361543  0.71392179  0.63124208  1
  C  C222  1  0.00045134  0.28629989  0.13257667  1
  C  C223  1  -0.00003719  0.62309919  0.13353649  1
  C  C224  1  0.00101771  0.95283689  0.13271388  1
  C  C225  1  0.50094595  0.28668124  0.13109678  1
  C  C226  1  0.50121803  0.62008361  0.13215737  1
  C  C227  1  0.50315193  0.95338096  0.13262013  1
  C  C228  1  -0.00178157  0.04590877  0.86543973  1
  C  C229  1  0.00155887  0.37969148  0.86806519  1
  C  C230  1  0.00117655  0.71492549  0.87140612  1
  C  C231  1  0.49729701  0.04610695  0.86812948  1
  C  C232  1  0.50095508  0.37866702  0.86785622  1
  C  C233  1  0.50247111  0.71390149  0.86857513  1
  C  C234  1  -0.00490458  0.28601539  0.36766244  1
  C  C235  1  -0.00298595  0.62152905  0.36744829  1
  C  C236  1  0.00000279  0.95329820  0.36958750  1
  C  C237  1  0.49730606  0.28606029  0.36670839  1
  C  C238  1  0.50060070  0.61913146  0.36885081  1
  C  C239  1  0.50101690  0.95273499  0.36696177  1
  C  C240  1  0.25344735  0.21340333  0.63462960  1
  C  C241  1  0.24638659  0.54766048  0.63352086  1
  C  C242  1  0.24965004  0.88073094  0.63011672  1
  C  C243  1  0.75307397  0.21365970  0.63093524  1
  C  C244  1  0.75029221  0.54600589  0.63426587  1
  C  C245  1  0.75191352  0.87961434  0.63080845  1
  C  C246  1  0.25211823  0.12158060  0.13186181  1
  C  C247  1  0.25054386  0.45208044  0.13024999  1
  C  C248  1  0.24698183  0.78720788  0.13196077  1
  C  C249  1  0.75014576  0.11930009  0.13343726  1
  C  C250  1  0.74930037  0.45343113  0.13523219  1
  C  C251  1  0.74962762  0.78680887  0.12680507  1
  C  C252  1  0.24962812  0.21319635  0.86909119  1
  C  C253  1  0.24680061  0.54544071  0.86681730  1
  C  C254  1  0.24851205  0.87897294  0.86581517  1
  C  C255  1  0.75037569  0.20887823  0.86928139  1
  C  C256  1  0.75202100  0.54711113  0.86623054  1
  C  C257  1  0.74825942  0.87891022  0.86880821  1
  C  C258  1  0.25316662  0.11947898  0.36627405  1
  C  C259  1  0.24808755  0.45472913  0.36522095  1
  C  C260  1  0.24631163  0.78876236  0.36871417  1
  C  C261  1  0.75312293  0.11981862  0.36830746  1
  C  C262  1  0.74916580  0.45356228  0.36678204  1
  C  C263  1  0.74779694  0.78695866  0.37115685  1
  C  C264  1  0.28971768  0.42824584  0.45792928  1
  C  C265  1  0.21088241  0.24353221  0.96043832  1
  C  C266  1  0.45422468  0.92695421  0.45757410  1
  C  C267  1  0.19187981  0.90175449  0.95581554  1
  C  C268  1  0.78572728  0.42773748  0.46036200  1
  C  C269  1  0.29442225  0.75931478  0.04187846  1
  C  C270  1  0.82020368  0.09616260  0.45303166  1
  C  C271  1  0.47233967  0.93002670  0.03558440  1
  C  C272  1  0.27341336  0.90408083  0.96310769  1
  C  C273  1  0.01594553  0.40561234  0.53603921  1
  C  C274  1  0.47086650  0.74204304  0.96328182  1
  C  C275  1  0.79389353  0.90437126  0.96012455  1
  C  C276  1  0.44282910  0.25831904  0.04323587  1
  C  C277  1  0.27330672  0.42191906  0.03521991  1
  C  C278  1  0.04096979  0.73866697  0.96417357  1
  C  C279  1  0.04691663  0.92653684  0.04061209  1
  C  C280  1  0.78479382  0.90818665  0.53775773  1
  C  C281  1  0.72006127  0.09133432  0.03907178  1
  C  C282  1  0.22539951  0.90715808  0.53422827  1
  C  C283  1  0.95659180  0.59788733  0.04098987  1
  C  C284  1  0.79220453  0.42756000  0.04266202  1
  C  C285  1  0.96516385  0.92543311  0.03771173  1
  C  C286  1  0.45256343  0.25990578  0.45811108  1
  C  C287  1  0.18934013  0.76306490  0.45679403  1
  C  C288  1  0.05206247  0.74132197  0.54187359  1
  C  C289  1  0.23563723  0.23775882  0.53589440  1
  C  C290  1  0.96058204  0.73866078  0.96403534  1
  C  C291  1  0.77684675  0.75828928  0.46706265  1
  C  C292  1  0.05606234  0.26242307  0.04306078  1
  C  C293  1  0.93563071  0.40324522  0.54851446  1
  C  C294  1  0.02134418  0.26024300  0.46397608  1
  C  C295  1  0.74064521  0.09366881  0.46689056  1
  C  C296  1  0.97866009  0.40528478  0.96513694  1
  C  C297  1  0.76309307  0.76039913  0.03018915  1
  C  C298  1  0.94697820  0.06897446  0.95694585  1
  C  C299  1  0.72740844  0.24241665  0.53588860  1
  C  C300  1  0.31604528  0.23597308  0.54729264  1
  C  C301  1  0.54044758  0.07123721  0.54138568  1
  C  C302  1  0.02880137  0.07072188  0.96183063  1
  C  C303  1  0.03531632  0.92339327  0.46176305  1
  C  C304  1  0.76818972  0.57556705  0.96219582  1
  C  C305  1  0.27371258  0.09432481  0.46264620  1
  C  C306  1  0.30612367  0.90514047  0.54151074  1
  C  C307  1  0.68322873  0.76409022  0.04191860  1
  C  C308  1  0.56782644  0.74020868  0.54568823  1
  C  C309  1  0.46390471  0.59279322  0.03831364  1
  C  C310  1  0.97498403  0.26076525  0.03515356  1
  C  C311  1  0.55343710  0.93049618  0.04139818  1
  N  N312  1  0.95798564  0.92350362  0.46235897  1
  N  N313  1  0.51835830  0.40787255  0.96174360  1
  N  N314  1  0.80476070  0.24114912  0.54031135  1
  N  N315  1  0.02220814  0.07408721  0.53353505  1
  N  N316  1  0.03634780  0.59569964  0.04092851  1
  N  N317  1  0.19515917  0.09576709  0.45567724  1
  N  N318  1  0.46088084  0.07382924  0.54180523  1
  N  N319  1  0.68985541  0.57170552  0.95384496  1
  N  N320  1  0.29229877  0.57124542  0.54060655  1
  N  N321  1  0.31015603  0.57124920  0.95238877  1
  N  N322  1  0.97507359  0.74208668  0.53528265  1
  N  N323  1  0.94512356  0.07163083  0.54237757  1
  N  N324  1  0.53339964  0.92617673  0.46303232  1
  N  N325  1  0.71129493  0.57501785  0.54146147  1
  N  N326  1  0.44100257  0.40523524  0.95451741  1
  N  N327  1  0.28821586  0.24312068  0.96288407  1
  N  N328  1  0.46249824  0.60094351  0.46314658  1
  N  N329  1  0.47915113  0.41259623  0.53775755  1
  N  N330  1  0.54123886  0.58690987  0.45836903  1
  N  N331  1  0.55043986  0.74127447  0.95847528  1
  N  N332  1  0.79752980  0.09286535  0.04086241  1
  N  N333  1  0.21012744  0.42646103  0.45708546  1
  N  N334  1  0.70748927  0.90832335  0.53843986  1
  N  N335  1  0.30711392  0.09461691  0.04328726  1
  N  N336  1  0.21382900  0.57112699  0.54036343  1
  N  N337  1  0.94243995  0.26060364  0.45599960  1
  N  N338  1  0.46023023  0.07227971  0.96226558  1
  N  N339  1  0.54354175  0.59431072  0.04049028  1
  N  N340  1  0.05724270  0.40436041  0.95570213  1
  N  N341  1  0.96685730  0.59304685  0.45960558  1
  N  N342  1  0.53637383  0.07182486  0.96189662  1
  N  N343  1  0.79261655  0.24936691  0.95574275  1
  N  N344  1  0.23299909  0.57536548  0.96095679  1
  N  N345  1  0.26857118  0.75965696  0.46333312  1
  N  N346  1  0.22945845  0.09307769  0.03868889  1
  N  N347  1  0.71243950  0.42559620  0.04275933  1
  N  N348  1  0.48995625  0.74294234  0.53563553  1
  N  N349  1  0.71667879  0.90701997  0.96479403  1
  N  N350  1  0.55729367  0.40050138  0.54346215  1
  N  N351  1  0.78824193  0.57401116  0.54092027  1
  N  N352  1  0.70616120  0.42793630  0.46088581  1
  N  N353  1  0.71006924  0.24844117  0.95674709  1
  N  N354  1  0.19617088  0.42395286  0.04070344  1
  N  N355  1  0.69841390  0.76004356  0.46046721  1
  N  N356  1  0.52119804  0.25680494  0.03662127  1
  N  N357  1  0.04529372  0.59443895  0.45850680  1
  N  N358  1  0.21720210  0.75830873  0.03599381  1
  N  N359  1  0.53171308  0.25885662  0.46232632  1
  N  N360  1  0.05515049  0.05761225  0.58785480  1
  N  N361  1  0.05548415  0.39037993  0.59096972  1
  N  N362  1  0.07274773  0.72459500  0.60048487  1
  N  N363  1  0.56337609  0.05529476  0.59893972  1
  N  N364  1  0.56999768  0.38931433  0.60352852  1
  N  N365  1  0.57649503  0.72311532  0.60517659  1
  N  N366  1  0.43008173  0.27643618  0.10163179  1
  N  N367  1  0.43744827  0.60855430  0.09535168  1
  N  N368  1  0.44182862  0.94415423  0.09385593  1
  N  N369  1  0.94107586  0.27591095  0.09223750  1
  N  N370  1  0.93382993  0.61272655  0.09888330  1
  N  N371  1  0.93800633  0.94210828  0.09644755  1
  N  N372  1  0.43435098  0.05646276  0.90415873  1
  N  N373  1  0.43068078  0.38863224  0.89560786  1
  N  N374  1  0.44075314  0.72515981  0.90742215  1
  N  N375  1  0.92957985  0.05381955  0.89696106  1
  N  N376  1  0.94350049  0.39076213  0.91044773  1
  N  N377  1  0.93571362  0.72435518  0.90732320  1
  N  N378  1  0.05454394  0.27571728  0.40906507  1
  N  N379  1  0.06303811  0.61062704  0.40030317  1
  N  N380  1  0.06400295  0.94147613  0.40602390  1
  N  N381  1  0.55793801  0.27504092  0.40475254  1
  N  N382  1  0.56501590  0.61024847  0.40356163  1
  N  N383  1  0.56084162  0.94217740  0.40601929  1
  N  N384  1  0.32610051  0.22156098  0.60716277  1
  N  N385  1  0.31157815  0.55637235  0.59891554  1
  N  N386  1  0.32021419  0.88932169  0.60052374  1
  N  N387  1  0.82088229  0.22303078  0.60077381  1
  N  N388  1  0.81342813  0.55620670  0.59829391  1
  N  N389  1  0.81500707  0.89085999  0.59323862  1
  N  N390  1  0.19404883  0.11150935  0.09141884  1
  N  N391  1  0.18184398  0.44284681  0.10129687  1
  N  N392  1  0.18728713  0.77605618  0.09325351  1
  N  N393  1  0.68860841  0.10733295  0.09447727  1
  N  N394  1  0.68607922  0.44522592  0.09912230  1
  N  N395  1  0.67607164  0.78006969  0.10174890  1
  N  N396  1  0.18435285  0.22554279  0.90396509  1
  N  N397  1  0.19273725  0.55723967  0.91001075  1
  N  N398  1  0.17841336  0.88637068  0.89513393  1
  N  N399  1  0.68693950  0.22039385  0.90418897  1
  N  N400  1  0.68168433  0.55439411  0.89366365  1
  N  N401  1  0.68789534  0.89059199  0.90668487  1
  N  N402  1  0.31117621  0.10887544  0.40814137  1
  N  N403  1  0.31364019  0.44441894  0.40060714  1
  N  N404  1  0.30363208  0.77869812  0.40992756  1
  N  N405  1  0.82712749  0.11179864  0.39303883  1
  N  N406  1  0.81304176  0.44322781  0.40297478  1
  N  N407  1  0.80777715  0.77485934  0.41197112  1
  N  N408  1  0.43025368  0.27639471  0.39957701  1
  N  N409  1  0.43706821  0.60804612  0.40391274  1
  N  N410  1  0.43318456  0.94282645  0.39879608  1
  N  N411  1  0.92648948  0.27695337  0.39693682  1
  N  N412  1  0.93605201  0.61117097  0.40523403  1
  N  N413  1  0.93569338  0.94237711  0.40366592  1
  N  N414  1  0.05938526  0.05638507  0.90439842  1
  N  N415  1  0.07094433  0.38831636  0.89620829  1
  N  N416  1  0.06643403  0.72450678  0.90760451  1
  N  N417  1  0.56101739  0.05539744  0.90373312  1
  N  N418  1  0.55680098  0.38928454  0.91011396  1
  N  N419  1  0.56903845  0.72390096  0.90009850  1
  N  N420  1  0.07064037  0.27770898  0.10190329  1
  N  N421  1  0.06294862  0.61478920  0.09723361  1
  N  N422  1  0.06800128  0.94310114  0.09817887  1
  N  N423  1  0.55835966  0.27608392  0.09015498  1
  N  N424  1  0.56630920  0.61119836  0.09829458  1
  N  N425  1  0.57169961  0.94428300  0.09992500  1
  N  N426  1  0.43414861  0.05551834  0.59819193  1
  N  N427  1  0.44352364  0.38849577  0.58876059  1
  N  N428  1  0.44945857  0.72443186  0.58791200  1
  N  N429  1  0.92930753  0.05481376  0.60063345  1
  N  N430  1  0.92722133  0.38758017  0.60802534  1
  N  N431  1  0.94503169  0.72487792  0.59277262  1
  N  N432  1  0.18428664  0.11102365  0.39574136  1
  N  N433  1  0.18449083  0.44594176  0.40075353  1
  N  N434  1  0.17569089  0.77934064  0.39756503  1
  N  N435  1  0.69947908  0.10881613  0.41280394  1
  N  N436  1  0.68506483  0.44393946  0.40158757  1
  N  N437  1  0.67984953  0.77828377  0.40133552  1
  N  N438  1  0.31264599  0.22378177  0.90463717  1
  N  N439  1  0.31800050  0.55436782  0.89324204  1
  N  N440  1  0.30748990  0.89000561  0.90656145  1
  N  N441  1  0.81469719  0.22131436  0.90284375  1
  N  N442  1  0.80795342  0.56006243  0.90904543  1
  N  N443  1  0.81577723  0.88750081  0.90211909  1
  N  N444  1  0.32068096  0.11078048  0.10205026  1
  N  N445  1  0.30896355  0.43916301  0.08878709  1
  N  N446  1  0.31512576  0.77661877  0.09999627  1
  N  N447  1  0.81648786  0.11047681  0.10111324  1
  N  N448  1  0.81516219  0.44259074  0.10043179  1
  N  N449  1  0.80339687  0.77423211  0.08181882  1
  N  N450  1  0.19750050  0.22356126  0.59173448  1
  N  N451  1  0.18446067  0.55862752  0.59678919  1
  N  N452  1  0.19122206  0.89226912  0.58838260  1
  N  N453  1  0.69352887  0.22560193  0.59024145  1
  N  N454  1  0.68678997  0.55764302  0.59925353  1
  N  N455  1  0.68676936  0.89038103  0.59766686  1
  Cl  Cl456  1  0.24837303  0.05465803  0.61427125  1
  Cl  Cl457  1  0.25233447  0.39465288  0.60075246  1
  Cl  Cl458  1  0.26358172  0.72737963  0.60295169  1
  Cl  Cl459  1  0.74652294  0.05274485  0.61602894  1
  Cl  Cl460  1  0.74703550  0.38101402  0.62827990  1
  Cl  Cl461  1  0.75896805  0.72391415  0.61135124  1
  Cl  Cl462  1  0.25058230  0.28628049  0.12650157  1
  Cl  Cl463  1  0.24687721  0.60727443  0.10786728  1
  Cl  Cl464  1  0.25353251  0.94668595  0.11514607  1
  Cl  Cl465  1  0.74666178  0.26876009  0.09945596  1
  Cl  Cl466  1  0.75083389  0.61266572  0.11392457  1
  Cl  Cl467  1  0.75434104  0.95041285  0.12343330  1
  Cl  Cl468  1  0.24569488  0.05991552  0.88838656  1
  Cl  Cl469  1  0.24996135  0.38183998  0.87069153  1
  Cl  Cl470  1  0.25586630  0.71779726  0.87471373  1
  Cl  Cl471  1  0.74468587  0.05381118  0.88134891  1
  Cl  Cl472  1  0.74649157  0.39466433  0.89998851  1
  Cl  Cl473  1  0.75103726  0.71761330  0.87710664  1
  Cl  Cl474  1  0.24130886  0.28160013  0.39000023  1
  Cl  Cl475  1  0.24964836  0.61401658  0.38444348  1
  Cl  Cl476  1  0.24947734  0.94758218  0.37999978  1
  Cl  Cl477  1  0.74382169  0.28060094  0.37483175  1
  Cl  Cl478  1  0.75032424  0.61587800  0.38189698  1
  Cl  Cl479  1  0.74810992  0.94627316  0.38524389  1
  Cl  Cl480  1  0.00892501  0.22328308  0.61127023  1
  Cl  Cl481  1  -0.00112198  0.55562923  0.61605431  1
  Cl  Cl482  1  0.00303627  0.88512112  0.61648301  1
  Cl  Cl483  1  0.50951295  0.21840997  0.62375076  1
  Cl  Cl484  1  0.49904786  0.55664569  0.60640025  1
  Cl  Cl485  1  0.50300342  0.88264168  0.62054143  1
  Cl  Cl486  1  0.00876590  0.11184050  0.10786172  1
  Cl  Cl487  1  -0.00340915  0.44600169  0.11316734  1
  Cl  Cl488  1  -0.00218276  0.77800028  0.11240451  1
  Cl  Cl489  1  0.50378984  0.11890553  0.12777889  1
  Cl  Cl490  1  0.50201434  0.44080802  0.10773737  1
  Cl  Cl491  1  0.49426421  0.77928648  0.12201189  1
  Cl  Cl492  1  -0.00323139  0.22370199  0.88039191  1
  Cl  Cl493  1  0.00422192  0.56086337  0.89785922  1
  Cl  Cl494  1  -0.00417056  0.88306684  0.87892374  1
  Cl  Cl495  1  0.50471138  0.22653682  0.89354440  1
  Cl  Cl496  1  0.49968299  0.55458885  0.87912012  1
  Cl  Cl497  1  0.49691087  0.88614389  0.88679729  1
  Cl  Cl498  1  0.00530497  0.11852901  0.37292447  1
  Cl  Cl499  1  0.00074174  0.44578631  0.38399171  1
  Cl  Cl500  1  -0.00693898  0.78318770  0.37829316  1
  Cl  Cl501  1  0.50041143  0.10638744  0.39763746  1
  Cl  Cl502  1  0.49715188  0.44226624  0.39084309  1
  Cl  Cl503  1  0.48915813  0.77098494  0.39613633  1
  Cl  Cl504  1  0.36333839  0.14561220  0.74722881  1
  Cl  Cl505  1  0.36323360  0.47950887  0.74924315  1
  Cl  Cl506  1  0.36035195  0.81099611  0.74614147  1
  Cl  Cl507  1  0.86242798  0.14531099  0.74904109  1
  Cl  Cl508  1  0.86063734  0.47861169  0.75113073  1
  Cl  Cl509  1  0.86200410  0.81170730  0.75092192  1
  Cl  Cl510  1  0.13660414  0.18962727  0.25185150  1
  Cl  Cl511  1  0.14116937  0.52284353  0.24669357  1
  Cl  Cl512  1  0.13878951  0.85427140  0.24991920  1
  Cl  Cl513  1  0.64231803  0.18932281  0.25056061  1
  Cl  Cl514  1  0.63530248  0.52222325  0.25188197  1
  Cl  Cl515  1  0.63409080  0.85555888  0.25049419  1
  Cl  Cl516  1  0.13800133  0.14689053  0.75100995  1
  Cl  Cl517  1  0.14016955  0.48011231  0.74871341  1
  Cl  Cl518  1  0.13926189  0.81123767  0.74970031  1
  Cl  Cl519  1  0.64059116  0.14659037  0.75148999  1
  Cl  Cl520  1  0.63555292  0.47874167  0.75236837  1
  Cl  Cl521  1  0.63688389  0.81006842  0.74707447  1
  Cl  Cl522  1  0.35743584  0.18882688  0.24957996  1
  Cl  Cl523  1  0.36390730  0.52144769  0.25122421  1
  Cl  Cl524  1  0.36120521  0.85331018  0.25076924  1
  Cl  Cl525  1  0.86230208  0.19043755  0.25053342  1
  Cl  Cl526  1  0.85920458  0.51943686  0.24712305  1
  Cl  Cl527  1  0.85638477  0.85200229  0.24880102  1
  Cl  Cl528  1  0.11083521  0.31431888  0.75071412  1
  Cl  Cl529  1  0.11019834  0.64374569  0.74859060  1
  Cl  Cl530  1  0.10945106  0.98001173  0.75046549  1
  Cl  Cl531  1  0.61267812  0.31300670  0.75234569  1
  Cl  Cl532  1  0.61363769  0.64551210  0.74771981  1
  Cl  Cl533  1  0.60932541  0.97913247  0.74802229  1
  Cl  Cl534  1  0.38860149  0.02295249  0.25128706  1
  Cl  Cl535  1  0.38778429  0.35465937  0.25232921  1
  Cl  Cl536  1  0.38992907  0.68600227  0.25185132  1
  Cl  Cl537  1  0.88702652  0.02264128  0.25364075  1
  Cl  Cl538  1  0.89046641  0.35602281  0.24946949  1
  Cl  Cl539  1  0.89126650  0.68478523  0.24954786  1
  Cl  Cl540  1  0.39154448  0.31361662  0.74755292  1
  Cl  Cl541  1  0.39130531  0.64608055  0.74738254  1
  Cl  Cl542  1  0.38656436  0.97771342  0.74893555  1
  Cl  Cl543  1  0.88708225  0.31314003  0.75009999  1
  Cl  Cl544  1  0.88859800  0.64413531  0.75122377  1
  Cl  Cl545  1  0.88834780  0.97948009  0.74938137  1
  Cl  Cl546  1  0.11274800  0.02260333  0.24853416  1
  Cl  Cl547  1  0.11130548  0.35576781  0.24901991  1
  Cl  Cl548  1  0.11217933  0.68825813  0.25372618  1
  Cl  Cl549  1  0.61055314  0.02270414  0.25027577  1
  Cl  Cl550  1  0.61081709  0.35562981  0.24688854  1
  Cl  Cl551  1  0.61076801  0.68737250  0.25107736  1
