# generated using pymatgen
data_H8PbC4(N3Cl2)2
_symmetry_space_group_name_H-M   'P 1'
_cell_length_a   16.62204470
_cell_length_b   22.51370887
_cell_length_c   21.59540929
_cell_angle_alpha   90.00131232
_cell_angle_beta   90.00644199
_cell_angle_gamma   90.00325025
_symmetry_Int_Tables_number   1
_chemical_formula_structural   H8PbC4(N3Cl2)2
_chemical_formula_sum   'H192 Pb24 C96 N144 Cl96'
_cell_volume   8081.51768348
_cell_formula_units_Z   24
loop_
 _symmetry_equiv_pos_site_id
 _symmetry_equiv_pos_as_xyz
  1  'x, y, z'
loop_
 _atom_site_type_symbol
 _atom_site_label
 _atom_site_symmetry_multiplicity
 _atom_site_fract_x
 _atom_site_fract_y
 _atom_site_fract_z
 _atom_site_occupancy
  H  H0  1  -0.00849208  0.03187778  0.68172148  1
  H  H1  1  -0.00053297  0.36270963  0.68233791  1
  H  H2  1  -0.00567686  0.69863290  0.67894141  1
  H  H3  1  0.50955554  0.03027681  0.67817688  1
  H  H4  1  0.50557799  0.36379253  0.67903046  1
  H  H5  1  0.50306966  0.69688718  0.67757762  1
  H  H6  1  -0.00232408  0.30558903  0.17908198  1
  H  H7  1  0.00499644  0.63414760  0.17959696  1
  H  H8  1  0.00299254  0.97050172  0.17831508  1
  H  H9  1  0.49957557  0.30693106  0.17414459  1
  H  H10  1  0.50989233  0.63414727  0.18006508  1
  H  H11  1  0.49719024  0.97032298  0.18140403  1
  H  H12  1  0.00271672  0.02938200  0.82242844  1
  H  H13  1  -0.00645021  0.36216348  0.81919433  1
  H  H14  1  -0.01403826  0.69940506  0.81895465  1
  H  H15  1  0.49346403  0.03410143  0.82234910  1
  H  H16  1  0.48894488  0.36509282  0.82518646  1
  H  H17  1  0.51354035  0.70083816  0.82292222  1
  H  H18  1  -0.00083879  0.30292137  0.32174197  1
  H  H19  1  0.00662960  0.63869164  0.31836144  1
  H  H20  1  -0.00353186  0.97056939  0.32048370  1
  H  H21  1  0.49672874  0.30566956  0.32346712  1
  H  H22  1  0.50586940  0.63867943  0.31988984  1
  H  H23  1  0.49857297  0.97247564  0.32015910  1
  H  H24  1  0.26046729  0.19631356  0.67623434  1
  H  H25  1  0.25105706  0.52949388  0.67814271  1
  H  H26  1  0.25704437  0.86364627  0.68105694  1
  H  H27  1  0.73412272  0.19757275  0.68051151  1
  H  H28  1  0.75902520  0.52854904  0.68102805  1
  H  H29  1  0.74780493  0.85856829  0.67481141  1
  H  H30  1  0.25083437  0.13874493  0.17920383  1
  H  H31  1  0.26554296  0.46792661  0.17462129  1
  H  H32  1  0.24628191  0.80315747  0.17663925  1
  H  H33  1  0.76103744  0.13765399  0.17773560  1
  H  H34  1  0.74444662  0.46817051  0.17867219  1
  H  H35  1  0.75156183  0.80621265  0.18241020  1
  H  H36  1  0.24385421  0.19741681  0.82050086  1
  H  H37  1  0.25643604  0.52826513  0.81983251  1
  H  H38  1  0.26123623  0.86090775  0.82288681  1
  H  H39  1  0.74650176  0.19433161  0.82156313  1
  H  H40  1  0.74430769  0.52838678  0.82076602  1
  H  H41  1  0.73659773  0.86774398  0.81812940  1
  H  H42  1  0.24485976  0.13733599  0.31904548  1
  H  H43  1  0.25365637  0.47105613  0.32082009  1
  H  H44  1  0.25316767  0.80455354  0.32270906  1
  H  H45  1  0.74930260  0.13583369  0.32191767  1
  H  H46  1  0.74632664  0.47066227  0.31744928  1
  H  H47  1  0.73589299  0.80019223  0.32318647  1
  H  H48  1  0.13351849  0.04821469  0.63034953  1
  H  H49  1  0.12362484  0.38638304  0.61284752  1
  H  H50  1  0.13058289  0.71719303  0.62110894  1
  H  H51  1  0.63315511  0.05264318  0.60667066  1
  H  H52  1  0.62232532  0.38953263  0.60342629  1
  H  H53  1  0.62931440  0.72220194  0.60896188  1
  H  H54  1  0.37672466  0.28050594  0.10300294  1
  H  H55  1  0.37083426  0.61651684  0.12375656  1
  H  H56  1  0.38372035  0.94589044  0.10177084  1
  H  H57  1  0.87763107  0.27801190  0.10687693  1
  H  H58  1  0.87012885  0.61250983  0.11744387  1
  H  H59  1  0.87963867  0.94817880  0.10821553  1
  H  H60  1  0.38650245  0.05783601  0.90553149  1
  H  H61  1  0.38457040  0.39126219  0.90791634  1
  H  H62  1  0.37269009  0.71789031  0.87535255  1
  H  H63  1  0.89048178  0.05900056  0.90188019  1
  H  H64  1  0.87891768  0.38877978  0.89691880  1
  H  H65  1  0.88039578  0.72264435  0.90353079  1
  H  H66  1  0.13075767  0.27896918  0.38566244  1
  H  H67  1  0.12302816  0.61183267  0.39480508  1
  H  H68  1  0.12476628  0.94747814  0.38549341  1
  H  H69  1  0.63266764  0.28043166  0.38125344  1
  H  H70  1  0.62307372  0.61376194  0.39593534  1
  H  H71  1  0.62489795  0.94811212  0.39131741  1
  H  H72  1  0.36167683  0.22711732  0.58996160  1
  H  H73  1  0.37906660  0.55365498  0.61040709  1
  H  H74  1  0.37176225  0.88849779  0.60550948  1
  H  H75  1  0.86603472  0.21861247  0.61464756  1
  H  H76  1  0.87631527  0.55670384  0.60570575  1
  H  H77  1  0.87434229  0.88447128  0.60842369  1
  H  H78  1  0.11697425  0.11471130  0.11818144  1
  H  H79  1  0.12456346  0.45132349  0.12622768  1
  H  H80  1  0.12674104  0.77594996  0.10358833  1
  H  H81  1  0.62494775  0.11815388  0.11863899  1
  H  H82  1  0.61579650  0.44742298  0.11448556  1
  H  H83  1  0.62676469  0.78030578  0.11468439  1
  H  H84  1  0.12288293  0.22256457  0.89505263  1
  H  H85  1  0.12906806  0.55270783  0.88812958  1
  H  H86  1  0.12161827  0.88375874  0.87519152  1
  H  H87  1  0.62291523  0.22127949  0.88961662  1
  H  H88  1  0.63476557  0.55301112  0.90264446  1
  H  H89  1  0.62194964  0.89099835  0.89901401  1
  H  H90  1  0.36472592  0.11207703  0.39411236  1
  H  H91  1  0.37927967  0.44443521  0.39006346  1
  H  H92  1  0.36406787  0.77630373  0.40386723  1
  H  H93  1  0.86382798  0.11290566  0.39813460  1
  H  H94  1  0.87351087  0.44616254  0.38682366  1
  H  H95  1  0.87065570  0.78413422  0.38023902  1
  H  H96  1  0.38601066  0.27565191  0.40504378  1
  H  H97  1  0.37453301  0.61364357  0.38317470  1
  H  H98  1  0.37646426  0.94533501  0.39241283  1
  H  H99  1  0.88192737  0.27674026  0.39645907  1
  H  H100  1  0.87432763  0.61781190  0.38340757  1
  H  H101  1  0.87570383  0.94592471  0.39249577  1
  H  H102  1  0.13781627  0.05239963  0.88085460  1
  H  H103  1  0.12780365  0.38496224  0.88175070  1
  H  H104  1  0.12574297  0.71543677  0.87098678  1
  H  H105  1  0.63168571  0.04916237  0.87582273  1
  H  H106  1  0.62892439  0.38163086  0.87662958  1
  H  H107  1  0.61653479  0.72537712  0.90975596  1
  H  H108  1  0.12633917  0.28055264  0.11238265  1
  H  H109  1  0.11702505  0.60875004  0.09789547  1
  H  H110  1  0.12907887  0.94413911  0.10899053  1
  H  H111  1  0.62584943  0.28161799  0.10711755  1
  H  H112  1  0.61579720  0.60640388  0.09499062  1
  H  H113  1  0.63177961  0.94905414  0.11910691  1
  H  H114  1  0.38375389  0.05153195  0.61174145  1
  H  H115  1  0.37389113  0.38525786  0.61507344  1
  H  H116  1  0.38019437  0.72311181  0.60460688  1
  H  H117  1  0.88801436  0.05533860  0.59702615  1
  H  H118  1  0.87395482  0.38543564  0.61441414  1
  H  H119  1  0.88298149  0.72398412  0.60038766  1
  H  H120  1  0.11592988  0.11327643  0.38472411  1
  H  H121  1  0.13100182  0.44586145  0.39282463  1
  H  H122  1  0.11756448  0.78131168  0.38210326  1
  H  H123  1  0.61545539  0.11637864  0.38314459  1
  H  H124  1  0.62443819  0.44568027  0.38916154  1
  H  H125  1  0.62449874  0.77675122  0.40189847  1
  H  H126  1  0.37141584  0.22071755  0.88824928  1
  H  H127  1  0.37807854  0.55031538  0.89425445  1
  H  H128  1  0.36507418  0.89151811  0.90848482  1
  H  H129  1  0.87237134  0.21882958  0.88870100  1
  H  H130  1  0.88227929  0.55039931  0.87724900  1
  H  H131  1  0.86943476  0.88762220  0.88340274  1
  H  H132  1  0.36579683  0.11351867  0.10137194  1
  H  H133  1  0.36804666  0.43983929  0.08954526  1
  H  H134  1  0.37523003  0.77923653  0.11048925  1
  H  H135  1  0.87086277  0.10720469  0.09596184  1
  H  H136  1  0.86467922  0.44314207  0.10635331  1
  H  H137  1  0.87621305  0.78080783  0.11119165  1
  H  H138  1  0.11812884  0.21616902  0.62765357  1
  H  H139  1  0.13073754  0.55592821  0.60466500  1
  H  H140  1  0.12332940  0.88417855  0.62018104  1
  H  H141  1  0.61836646  0.22219242  0.60058523  1
  H  H142  1  0.62784670  0.55140963  0.61658989  1
  H  H143  1  0.62504340  0.88772504  0.60458600  1
  H  H144  1  0.66575992  0.25305651  0.99914327  1
  H  H145  1  0.79891383  0.08369843  -0.00502507  1
  H  H146  1  0.14648518  0.08820120  0.00944560  1
  H  H147  1  0.56447465  0.58212574  0.50165290  1
  H  H148  1  0.94375613  0.75266861  0.49365221  1
  H  H149  1  0.07904485  0.41763305  0.50355167  1
  H  H150  1  0.30478294  0.08117523  -0.00451770  1
  H  H151  1  0.81764938  0.58874739  0.50057160  1
  H  H152  1  0.44893949  0.92053579  -0.00461182  1
  H  H153  1  0.28539786  0.91663640  1.00663477  1
  H  H154  1  0.09662949  0.25213028  0.49408307  1
  H  H155  1  0.31385867  0.91889743  0.49706854  1
  H  H156  1  0.15350509  0.08060072  0.49468743  1
  H  H157  1  0.39084961  0.73847435  0.98571101  1
  H  H158  1  0.53638580  0.76371021  1.00117856  1
  H  H159  1  0.67537492  0.41526083  0.49703826  1
  H  H160  1  0.92264218  0.91549554  0.50103801  1
  H  H161  1  0.64698003  0.41540132  0.00147736  1
  H  H162  1  0.67211145  0.75189892  0.00339543  1
  H  H163  1  0.70231137  0.58055701  1.00807616  1
  H  H164  1  0.09050805  0.91762746  0.49695911  1
  H  H165  1  0.83204133  0.25163066  0.99818311  1
  H  H166  1  0.93840448  0.24667729  0.50470466  1
  H  H167  1  0.11228011  0.74073423  0.98617987  1
  H  H168  1  0.33167743  0.41771690  0.49458601  1
  H  H169  1  0.92606154  0.91796755  -0.00187274  1
  H  H170  1  0.06268756  0.58278075  0.50114405  1
  H  H171  1  0.94218639  0.41802598  1.00297778  1
  H  H172  1  0.61369452  0.07681686  -0.00857083  1
  H  H173  1  0.85683366  0.57807571  0.98571547  1
  H  H174  1  0.14367347  0.75230799  0.49055348  1
  H  H175  1  0.08406538  0.91770781  0.00381867  1
  H  H176  1  0.80417720  0.08465647  0.50819410  1
  H  H177  1  0.32465532  0.57925780  1.00134781  1
  H  H178  1  0.96187667  0.08274359  0.49201274  1
  H  H179  1  0.42848944  0.25105226  -0.00108136  1
  H  H180  1  0.33369802  0.58257591  0.50535263  1
  H  H181  1  0.17864486  0.25380958  0.99646768  1
  H  H182  1  0.42565736  0.08104912  0.49871834  1
  H  H183  1  0.91516635  0.41566800  0.50421095  1
  H  H184  1  0.43693056  0.75249603  0.50115022  1
  H  H185  1  0.28196934  0.25094953  0.49149503  1
  H  H186  1  0.45930567  0.24885820  0.50535893  1
  H  H187  1  0.82414000  0.76607026  0.00346225  1
  H  H188  1  0.67732359  0.91750473  0.50034919  1
  H  H189  1  0.95243599  0.74482329  1.00965538  1
  H  H190  1  0.13626532  0.41917246  1.01113660  1
  H  H191  1  0.53839416  0.57577046  -0.00246675  1
  Pb  Pb192  1  0.25418226  0.04714881  0.75689347  1
  Pb  Pb193  1  0.24735011  0.38232672  0.74925027  1
  Pb  Pb194  1  0.25320937  0.71323810  0.74522402  1
  Pb  Pb195  1  0.75374794  0.04719633  0.75015947  1
  Pb  Pb196  1  0.75188540  0.38016144  0.74998625  1
  Pb  Pb197  1  0.74579272  0.71544063  0.75806057  1
  Pb  Pb198  1  0.24932591  0.28632691  0.25111936  1
  Pb  Pb199  1  0.24292286  0.61824811  0.25027324  1
  Pb  Pb200  1  0.25111526  0.95382530  0.24460862  1
  Pb  Pb201  1  0.75000922  0.28734636  0.24718015  1
  Pb  Pb202  1  0.74738775  0.61986449  0.24738718  1
  Pb  Pb203  1  0.74505013  0.95169548  0.25711945  1
  Pb  Pb204  1  -0.00011429  0.21248790  0.75129552  1
  Pb  Pb205  1  -0.00107372  0.54974475  0.74412747  1
  Pb  Pb206  1  -0.00096653  0.87942377  0.75142272  1
  Pb  Pb207  1  0.49556671  0.21714479  0.74587905  1
  Pb  Pb208  1  0.50113465  0.54543545  0.75725957  1
  Pb  Pb209  1  0.49902303  0.88240165  0.75556189  1
  Pb  Pb210  1  -0.00665106  0.11722110  0.24838111  1
  Pb  Pb211  1  -0.00216938  0.45299492  0.25262493  1
  Pb  Pb212  1  -0.00161985  0.78786728  0.24580000  1
  Pb  Pb213  1  0.49726899  0.12192323  0.24706459  1
  Pb  Pb214  1  0.49731675  0.45272937  0.24700168  1
  Pb  Pb215  1  0.49302891  0.78422543  0.25180938  1
  C  C216  1  0.00426800  0.04525979  0.63445737  1
  C  C217  1  -0.00096485  0.37865478  0.63485402  1
  C  C218  1  0.00238609  0.71318086  0.63149344  1
  C  C219  1  0.50829611  0.04499610  0.63050942  1
  C  C220  1  0.50026025  0.37940321  0.63192115  1
  C  C221  1  0.50374856  0.71348462  0.63049019  1
  C  C222  1  0.00087606  0.28856772  0.13242040  1
  C  C223  1  -0.00281207  0.61907397  0.13217739  1
  C  C224  1  0.00453989  0.95439832  0.13082926  1
  C  C225  1  0.50022575  0.29045318  0.12702708  1
  C  C226  1  0.49898817  0.61910283  0.13308944  1
  C  C227  1  0.50437127  0.95538437  0.13400512  1
  C  C228  1  0.01040444  0.04621747  0.86893420  1
  C  C229  1  0.00040024  0.37826418  0.86628242  1
  C  C230  1  -0.00213146  0.71235499  0.86654699  1
  C  C231  1  0.50492487  0.04691226  0.86982833  1
  C  C232  1  0.50133747  0.37946343  0.87207445  1
  C  C233  1  0.50064113  0.71467625  0.87021528  1
  C  C234  1  0.00465637  0.28683153  0.36907888  1
  C  C235  1  0.00112857  0.62283139  0.36562987  1
  C  C236  1  -0.00091099  0.95476391  0.36802648  1
  C  C237  1  0.50463722  0.28854231  0.36995805  1
  C  C238  1  0.50102745  0.62216415  0.36694376  1
  C  C239  1  0.50010757  0.95607280  0.36742362  1
  C  C240  1  0.24681142  0.21191582  0.62980467  1
  C  C241  1  0.25401746  0.54569900  0.63090693  1
  C  C242  1  0.25098454  0.87851501  0.63361602  1
  C  C243  1  0.73941524  0.21167426  0.63260804  1
  C  C244  1  0.75425156  0.54513297  0.63405404  1
  C  C245  1  0.74861739  0.87598448  0.62807137  1
  C  C246  1  0.24389788  0.12246715  0.13208474  1
  C  C247  1  0.25161726  0.45284223  0.12820517  1
  C  C248  1  0.24974225  0.78645977  0.12983417  1
  C  C249  1  0.75264852  0.12120330  0.13100742  1
  C  C250  1  0.74114826  0.45295183  0.13111552  1
  C  C251  1  0.75223834  0.79009727  0.13498882  1
  C  C252  1  0.24574206  0.21324313  0.86792910  1
  C  C253  1  0.25460317  0.54374516  0.86733376  1
  C  C254  1  0.24956352  0.87765467  0.86911781  1
  C  C255  1  0.74734062  0.21150753  0.86858047  1
  C  C256  1  0.75444834  0.54446469  0.86766212  1
  C  C257  1  0.74258928  0.88153711  0.86604185  1
  C  C258  1  0.24178039  0.12094449  0.36619378  1
  C  C259  1  0.25493595  0.45428385  0.36786184  1
  C  C260  1  0.24464347  0.78814617  0.36954265  1
  C  C261  1  0.74303363  0.12154800  0.36954753  1
  C  C262  1  0.74841413  0.45452851  0.36474946  1
  C  C263  1  0.74401005  0.78692875  0.37094280  1
  C  C264  1  0.98080575  0.73574332  0.96533187  1
  C  C265  1  0.79967832  0.76346301  0.45933141  1
  C  C266  1  0.78971062  0.24076760  0.96096811  1
  C  C267  1  0.69459554  0.42610158  0.03868879  1
  C  C268  1  0.26653826  0.42308875  0.03160923  1
  C  C269  1  0.97289448  0.25832271  0.46350431  1
  C  C270  1  0.96749084  0.25728745  0.03967930  1
  C  C271  1  0.04523322  0.92784827  0.46029223  1
  C  C272  1  0.54814352  0.07179151  0.53682801  1
  C  C273  1  0.48523437  0.40758524  0.96838271  1
  C  C274  1  0.56511097  0.06891672  0.95853902  1
  C  C275  1  0.77627010  0.42510642  0.03725356  1
  C  C276  1  0.07023701  0.06739017  0.54889010  1
  C  C277  1  0.70998851  0.76208885  0.04302048  1
  C  C278  1  0.71932935  0.76094289  0.46634931  1
  C  C279  1  0.27851165  0.90697490  0.53752956  1
  C  C280  1  0.52913571  0.40960768  0.53810103  1
  C  C281  1  0.97486481  0.40695110  0.96078921  1
  C  C282  1  0.27208616  0.09317602  0.03730276  1
  C  C283  1  0.46641935  0.07142103  0.53675925  1
  C  C284  1  0.06168948  0.73330719  0.95396193  1
  C  C285  1  0.54517824  0.25989730  0.03535339  1
  C  C286  1  0.06006860  0.73809889  0.54306906  1
  C  C287  1  0.70735720  0.24128295  0.96142885  1
  C  C288  1  0.19720156  0.90504761  0.54424216  1
  C  C289  1  0.71382073  0.42650229  0.45772078  1
  C  C290  1  0.48467091  0.07203240  0.96729857  1
  C  C291  1  0.17924045  0.23908403  0.54622543  1
  C  C292  1  0.56531906  0.40404782  0.95814138  1
  C  C293  1  0.77039501  0.09510411  0.46635471  1
  C  C294  1  0.48082212  0.92969452  0.03838661  1
  C  C295  1  0.21701206  0.75413882  0.03715972  1
  C  C296  1  0.78241068  0.57565605  0.54071677  1
  C  C297  1  0.68920155  0.09636700  0.45916741  1
  C  C298  1  0.79385900  0.90686498  0.53665900  1
  C  C299  1  0.28735220  0.56977907  0.96126517  1
  C  C300  1  0.73207891  0.57136502  0.96416851  1
  C  C301  1  0.99053233  0.07108775  0.53568126  1
  C  C302  1  0.96451421  0.92747820  0.03767420  1
  C  C303  1  0.96303847  0.92703846  0.46259248  1
  C  C304  1  0.19860576  0.09197159  0.45688339  1
  C  C305  1  0.97914052  0.74082906  0.53445514  1
  C  C306  1  0.06236851  0.07537413  0.95691687  1
  C  C307  1  0.02844392  0.59449705  0.45989911  1
  C  C308  1  0.03873725  0.40631504  0.54139691  1
  C  C309  1  0.18653038  0.42720679  0.04260827  1
  C  C310  1  0.95654636  0.40546870  0.54175885  1
  C  C311  1  0.52915647  0.59340733  0.46093489  1
  N  N312  1  0.20825554  0.57159718  0.95947539  1
  N  N313  1  0.18483126  0.90638558  0.95302233  1
  N  N314  1  0.47081248  0.74245137  0.53929400  1
  N  N315  1  0.05225592  0.25963298  0.45862621  1
  N  N316  1  0.71106690  0.23764671  0.53658655  1
  N  N317  1  0.77160308  0.09114986  0.03734782  1
  N  N318  1  0.05368033  0.40631883  0.95545202  1
  N  N319  1  0.71451742  0.90785767  0.53674778  1
  N  N320  1  0.79181849  0.90520128  0.95761985  1
  N  N321  1  0.26183966  0.90958116  0.96273963  1
  N  N322  1  0.46594444  0.25992293  0.03527887  1
  N  N323  1  0.21424151  0.24056328  0.96012338  1
  N  N324  1  0.25668497  0.24230754  0.53448484  1
  N  N325  1  0.78720432  0.23626564  0.54086258  1
  N  N326  1  0.02137776  0.59165798  0.03602310  1
  N  N327  1  0.29494011  0.75486858  0.03828372  1
  N  N328  1  0.94922938  0.59662365  0.45639345  1
  N  N329  1  0.54887635  0.74180988  0.53902850  1
  N  N330  1  0.26961269  0.75979273  0.46536872  1
  N  N331  1  0.27773752  0.09173262  0.46058429  1
  N  N332  1  0.04543130  0.25822172  0.04038622  1
  N  N333  1  0.48546542  0.25643245  0.46243964  1
  N  N334  1  0.81061770  0.57200012  0.95397581  1
  N  N335  1  0.21426345  0.42639329  0.46089324  1
  N  N336  1  0.19272244  0.09381703  0.04403406  1
  N  N337  1  0.79321504  0.42648866  0.45729797  1
  N  N338  1  0.29277705  0.24065607  0.95925431  1
  N  N339  1  0.45121600  0.40851431  0.54086436  1
  N  N340  1  0.55967089  0.92960628  0.04427246  1
  N  N341  1  0.98542533  0.07754054  0.96504037  1
  N  N342  1  0.46364275  0.92711666  0.46086102  1
  N  N343  1  0.71535980  0.90658504  0.96251813  1
  N  N344  1  0.51364039  0.59191519  0.03821739  1
  N  N345  1  0.70316507  0.57360925  0.54358412  1
  N  N346  1  0.44976915  0.59315813  0.45729545  1
  N  N347  1  0.29278734  0.42520342  0.45820099  1
  N  N348  1  0.69444322  0.09427620  0.04435296  1
  N  N349  1  0.43649357  0.59531988  0.04657849  1
  N  N350  1  0.54048605  0.92781945  0.46008457  1
  N  N351  1  0.51477780  0.73519258  0.96784206  1
  N  N352  1  0.29437802  0.57409503  0.54110389  1
  N  N353  1  0.94528789  0.59275321  0.04244630  1
  N  N354  1  0.43731316  0.74076592  0.95358367  1
  N  N355  1  0.19224644  0.76127902  0.45663283  1
  N  N356  1  0.78977363  0.76261341  0.04264603  1
  N  N357  1  0.04422782  0.92483616  0.03977505  1
  N  N358  1  0.21607608  0.57439463  0.53748954  1
  N  N359  1  0.56280320  0.25751193  0.45563361  1
  N  N360  1  0.07810298  0.05223574  0.60866822  1
  N  N361  1  0.06363782  0.38975427  0.59963383  1
  N  N362  1  0.07345586  0.72173241  0.60222110  1
  N  N363  1  0.57313318  0.05597364  0.59357224  1
  N  N364  1  0.56127495  0.39213428  0.59285096  1
  N  N365  1  0.56893760  0.72434955  0.59633808  1
  N  N366  1  0.43753247  0.27992562  0.09123400  1
  N  N367  1  0.42801837  0.61250256  0.10561500  1
  N  N368  1  0.44523834  0.94494166  0.09315860  1
  N  N369  1  0.93810432  0.27533134  0.09525653  1
  N  N370  1  0.92899240  0.60960747  0.10212677  1
  N  N371  1  0.93972287  0.94478750  0.09446343  1
  N  N372  1  0.44843010  0.05874461  0.91379823  1
  N  N373  1  0.44633460  0.39263090  0.91602502  1
  N  N374  1  0.42898326  0.71895569  0.89626959  1
  N  N375  1  0.95304795  0.05854865  0.90909594  1
  N  N376  1  0.94073689  0.39004705  0.90629182  1
  N  N377  1  0.94221759  0.72278193  0.91035724  1
  N  N378  1  0.07157386  0.27818735  0.40079026  1
  N  N379  1  0.06172700  0.61023453  0.40456506  1
  N  N380  1  0.06585350  0.94494548  0.40113996  1
  N  N381  1  0.57428702  0.27631574  0.39759965  1
  N  N382  1  0.56186490  0.61089477  0.40596572  1
  N  N383  1  0.56398731  0.94579456  0.40236504  1
  N  N384  1  0.29926584  0.22309002  0.58543022  1
  N  N385  1  0.31889990  0.55568792  0.59715707  1
  N  N386  1  0.31091416  0.89007660  0.59436388  1
  N  N387  1  0.80610456  0.22017727  0.60036796  1
  N  N388  1  0.81523951  0.55845190  0.59583849  1
  N  N389  1  0.81495645  0.88796119  0.59348639  1
  N  N390  1  0.17593408  0.11303518  0.10208089  1
  N  N391  1  0.17869278  0.44547366  0.10370040  1
  N  N392  1  0.18730880  0.77305127  0.09237964  1
  N  N393  1  0.68287993  0.11182835  0.10262413  1
  N  N394  1  0.67436066  0.44360170  0.09852274  1
  N  N395  1  0.68656520  0.77711674  0.10066848  1
  N  N396  1  0.18430826  0.22501972  0.90477173  1
  N  N397  1  0.18962654  0.55536441  0.90079694  1
  N  N398  1  0.17804636  0.88829033  0.89413995  1
  N  N399  1  0.68265074  0.22323133  0.90355230  1
  N  N400  1  0.69684453  0.55519142  0.91030854  1
  N  N401  1  0.68362689  0.89197634  0.90602063  1
  N  N402  1  0.30297227  0.10976730  0.40370389  1
  N  N403  1  0.31870988  0.44311867  0.40240457  1
  N  N404  1  0.30179647  0.77604195  0.41083757  1
  N  N405  1  0.80295349  0.11077477  0.40920163  1
  N  N406  1  0.81301271  0.44384262  0.39892910  1
  N  N407  1  0.81460100  0.77920875  0.40083177  1
  N  N408  1  0.44819907  0.27721319  0.41149258  1
  N  N409  1  0.43416534  0.61088255  0.39793684  1
  N  N410  1  0.43758130  0.94437463  0.40354728  1
  N  N411  1  0.94302062  0.27474871  0.40781365  1
  N  N412  1  0.93413957  0.61418441  0.39755236  1
  N  N413  1  0.93599196  0.94381443  0.40478790  1
  N  N414  1  0.08030430  0.05688552  0.89816663  1
  N  N415  1  0.06826169  0.38840658  0.89645487  1
  N  N416  1  0.07028620  0.71901252  0.89251636  1
  N  N417  1  0.57639536  0.05345096  0.89695556  1
  N  N418  1  0.57409048  0.38707645  0.89847772  1
  N  N419  1  0.55415257  0.72939709  0.91301650  1
  N  N420  1  0.06608836  0.27778661  0.09939352  1
  N  N421  1  0.05485288  0.60800035  0.09134661  1
  N  N422  1  0.06862916  0.94265736  0.09683836  1
  N  N423  1  0.56645764  0.27824170  0.09238315  1
  N  N424  1  0.55333208  0.60530331  0.09072736  1
  N  N425  1  0.57249299  0.94561429  0.10375619  1
  N  N426  1  0.44290887  0.05490196  0.59622751  1
  N  N427  1  0.43346414  0.38972677  0.60077610  1
  N  N428  1  0.44147285  0.72480107  0.59433168  1
  N  N429  1  0.95014756  0.05683750  0.59053563  1
  N  N430  1  0.93344660  0.38846289  0.60009464  1
  N  N431  1  0.94425659  0.72492393  0.59089450  1
  N  N432  1  0.17530304  0.10952546  0.39904939  1
  N  N433  1  0.19167720  0.44319275  0.40390966  1
  N  N434  1  0.17605160  0.77887933  0.39881385  1
  N  N435  1  0.67335352  0.11212998  0.40067927  1
  N  N436  1  0.68497031  0.44350081  0.40130104  1
  N  N437  1  0.68521974  0.77513245  0.41254827  1
  N  N438  1  0.31136238  0.22295278  0.90180432  1
  N  N439  1  0.31751737  0.55315292  0.90489706  1
  N  N440  1  0.30261476  0.88984732  0.91289321  1
  N  N441  1  0.81287479  0.22256587  0.90284007  1
  N  N442  1  0.82412613  0.55531152  0.89466458  1
  N  N443  1  0.80971979  0.88988747  0.89775448  1
  N  N444  1  0.30429557  0.11014460  0.09203976  1
  N  N445  1  0.30578318  0.43866352  0.08310577  1
  N  N446  1  0.31519654  0.77559104  0.09741763  1
  N  N447  1  0.80876682  0.10901943  0.08945677  1
  N  N448  1  0.80411434  0.44120752  0.09301252  1
  N  N449  1  0.81559188  0.78339109  0.09867009  1
  N  N450  1  0.17282640  0.22138482  0.60570824  1
  N  N451  1  0.19178792  0.55755832  0.59410692  1
  N  N452  1  0.18116690  0.88811213  0.60244193  1
  N  N453  1  0.67992591  0.22201824  0.59310707  1
  N  N454  1  0.68753404  0.55471305  0.60213271  1
  N  N455  1  0.68593647  0.88782847  0.59263603  1
  Cl  Cl456  1  0.26034139  0.05109803  0.62942417  1
  Cl  Cl457  1  0.24999841  0.38363327  0.61441359  1
  Cl  Cl458  1  0.25807146  0.72104928  0.61364084  1
  Cl  Cl459  1  0.76205539  0.04925739  0.61592471  1
  Cl  Cl460  1  0.74606521  0.38772417  0.61742578  1
  Cl  Cl461  1  0.75332737  0.72263989  0.62617737  1
  Cl  Cl462  1  0.25186641  0.27808614  0.11713653  1
  Cl  Cl463  1  0.24193708  0.61201760  0.11721728  1
  Cl  Cl464  1  0.25777745  0.94095527  0.10250638  1
  Cl  Cl465  1  0.75141903  0.27786764  0.11263227  1
  Cl  Cl466  1  0.73907772  0.61048167  0.10836342  1
  Cl  Cl467  1  0.75720757  0.94959768  0.12642936  1
  Cl  Cl468  1  0.26532717  0.05627301  0.89378895  1
  Cl  Cl469  1  0.25690049  0.38626669  0.88205809  1
  Cl  Cl470  1  0.25154935  0.72191813  0.87613761  1
  Cl  Cl471  1  0.76873475  0.06215279  0.89021566  1
  Cl  Cl472  1  0.75913180  0.39024124  0.88138149  1
  Cl  Cl473  1  0.74572377  0.72472967  0.90162256  1
  Cl  Cl474  1  0.26320606  0.27342749  0.39619144  1
  Cl  Cl475  1  0.24954265  0.61156574  0.38463815  1
  Cl  Cl476  1  0.25355616  0.94425479  0.37643562  1
  Cl  Cl477  1  0.75869679  0.27927218  0.37744344  1
  Cl  Cl478  1  0.74877186  0.61655732  0.37929992  1
  Cl  Cl479  1  0.74729171  0.94467936  0.39378914  1
  Cl  Cl480  1  -0.01029572  0.22291743  0.61586697  1
  Cl  Cl481  1  0.00597610  0.55782885  0.60982392  1
  Cl  Cl482  1  -0.00354887  0.88656756  0.62042129  1
  Cl  Cl483  1  0.48509419  0.22875094  0.60219509  1
  Cl  Cl484  1  0.50175151  0.55338939  0.62332162  1
  Cl  Cl485  1  0.50186592  0.88833376  0.62387895  1
  Cl  Cl486  1  -0.00887496  0.11090179  0.11639146  1
  Cl  Cl487  1  -0.01254141  0.44245713  0.12028794  1
  Cl  Cl488  1  -0.00040298  0.77907621  0.11074272  1
  Cl  Cl489  1  0.49259959  0.12013944  0.11420927  1
  Cl  Cl490  1  0.48798264  0.44452270  0.11352857  1
  Cl  Cl491  1  0.50188760  0.77870643  0.10922123  1
  Cl  Cl492  1  0.00061602  0.21936416  0.88208500  1
  Cl  Cl493  1  0.00552038  0.55022411  0.87555684  1
  Cl  Cl494  1  -0.00583743  0.89047375  0.88678777  1
  Cl  Cl495  1  0.49435171  0.22370300  0.88109785  1
  Cl  Cl496  1  0.51149795  0.55670347  0.89762601  1
  Cl  Cl497  1  0.48879615  0.88830560  0.89355171  1
  Cl  Cl498  1  -0.01035253  0.11395129  0.38352863  1
  Cl  Cl499  1  0.00296299  0.44473071  0.38737849  1
  Cl  Cl500  1  -0.00225201  0.77857742  0.37720019  1
  Cl  Cl501  1  0.48793415  0.11544827  0.38163006  1
  Cl  Cl502  1  0.50043897  0.44515715  0.38022204  1
  Cl  Cl503  1  0.48673879  0.77486839  0.38827794  1
  Cl  Cl504  1  0.35640114  0.15334974  0.75448073  1
  Cl  Cl505  1  0.36298549  0.48081904  0.74345713  1
  Cl  Cl506  1  0.36057880  0.81616938  0.75173032  1
  Cl  Cl507  1  0.86100372  0.14974219  0.74869811  1
  Cl  Cl508  1  0.86401117  0.48103920  0.75003371  1
  Cl  Cl509  1  0.86112910  0.81430219  0.75504955  1
  Cl  Cl510  1  0.13774527  0.18827544  0.25010238  1
  Cl  Cl511  1  0.13944436  0.51794119  0.24680953  1
  Cl  Cl512  1  0.13834688  0.85362151  0.24936217  1
  Cl  Cl513  1  0.63776651  0.18628418  0.24959397  1
  Cl  Cl514  1  0.63815894  0.51829209  0.24821549  1
  Cl  Cl515  1  0.64300643  0.85330119  0.24944508  1
  Cl  Cl516  1  0.13656709  0.14367141  0.74282925  1
  Cl  Cl517  1  0.14516888  0.47863688  0.74705863  1
  Cl  Cl518  1  0.13699915  0.81174765  0.75131822  1
  Cl  Cl519  1  0.64121285  0.14516259  0.75233172  1
  Cl  Cl520  1  0.64266866  0.48265777  0.75020668  1
  Cl  Cl521  1  0.64071982  0.81172899  0.75223539  1
  Cl  Cl522  1  0.35454421  0.18267002  0.24976914  1
  Cl  Cl523  1  0.35849823  0.51941443  0.24958514  1
  Cl  Cl524  1  0.35820817  0.85015991  0.24336217  1
  Cl  Cl525  1  0.85650361  0.18330654  0.24656452  1
  Cl  Cl526  1  0.86006284  0.52015888  0.24907193  1
  Cl  Cl527  1  0.86221192  0.85389113  0.25872257  1
  Cl  Cl528  1  0.11310744  0.31237627  0.74895120  1
  Cl  Cl529  1  0.11690072  0.64639747  0.74733841  1
  Cl  Cl530  1  0.11699364  0.97699045  0.75133717  1
  Cl  Cl531  1  0.61442766  0.31330181  0.75673881  1
  Cl  Cl532  1  0.60772780  0.64978472  0.75263723  1
  Cl  Cl533  1  0.61643246  0.98007131  0.75756391  1
  Cl  Cl534  1  0.39118469  0.01742912  0.24751879  1
  Cl  Cl535  1  0.38948328  0.34990085  0.25386647  1
  Cl  Cl536  1  0.39194240  0.68720918  0.24600729  1
  Cl  Cl537  1  0.89738566  0.01670227  0.25012734  1
  Cl  Cl538  1  0.89191260  0.34993987  0.25304227  1
  Cl  Cl539  1  0.88393334  0.68843393  0.24389734  1
  Cl  Cl540  1  0.39736962  0.31486588  0.74785649  1
  Cl  Cl541  1  0.39076578  0.64738109  0.75413731  1
  Cl  Cl542  1  0.39567069  0.98607819  0.75521510  1
  Cl  Cl543  1  0.89188137  0.31497843  0.75031324  1
  Cl  Cl544  1  0.89484072  0.64631889  0.75191935  1
  Cl  Cl545  1  0.89491578  0.98334510  0.75445043  1
  Cl  Cl546  1  0.11563995  0.02237224  0.24447750  1
  Cl  Cl547  1  0.11212049  0.35307004  0.25563236  1
  Cl  Cl548  1  0.10677073  0.68530601  0.24947028  1
  Cl  Cl549  1  0.61133213  0.02150330  0.24686031  1
  Cl  Cl550  1  0.60952264  0.35181548  0.24998559  1
  Cl  Cl551  1  0.61082083  0.68722311  0.24495184  1
