# generated using pymatgen
data_H8PbC4(N3Cl2)2
_symmetry_space_group_name_H-M   'P 1'
_cell_length_a   16.63052911
_cell_length_b   22.52141406
_cell_length_c   21.59645551
_cell_angle_alpha   89.99960702
_cell_angle_beta   90.03180658
_cell_angle_gamma   89.99763879
_symmetry_Int_Tables_number   1
_chemical_formula_structural   H8PbC4(N3Cl2)2
_chemical_formula_sum   'H192 Pb24 C96 N144 Cl96'
_cell_volume   8088.80067986
_cell_formula_units_Z   24
loop_
 _symmetry_equiv_pos_site_id
 _symmetry_equiv_pos_as_xyz
  1  'x, y, z'
loop_
 _atom_site_type_symbol
 _atom_site_label
 _atom_site_symmetry_multiplicity
 _atom_site_fract_x
 _atom_site_fract_y
 _atom_site_fract_z
 _atom_site_occupancy
  H  H0  1  -0.00350628  0.02724130  0.68010956  1
  H  H1  1  0.01052057  0.36016344  0.68086814  1
  H  H2  1  0.01233738  0.69549096  0.67483597  1
  H  H3  1  0.49774945  0.02923356  0.67747541  1
  H  H4  1  0.49917066  0.36079942  0.67589528  1
  H  H5  1  0.49954298  0.69627453  0.68047116  1
  H  H6  1  -0.00450410  0.30465719  0.17728947  1
  H  H7  1  0.00498330  0.63587230  0.17866586  1
  H  H8  1  -0.00130824  0.97219091  0.17743821  1
  H  H9  1  0.50893842  0.30005491  0.17864841  1
  H  H10  1  0.50624578  0.64402405  0.17639309  1
  H  H11  1  0.51408379  0.97254442  0.17747286  1
  H  H12  1  0.00309318  0.02723787  0.82115462  1
  H  H13  1  0.01212654  0.36575668  0.81798043  1
  H  H14  1  -0.00117348  0.69844417  0.82171588  1
  H  H15  1  0.50967206  0.03177311  0.82331043  1
  H  H16  1  0.48727878  0.36567506  0.81637767  1
  H  H17  1  0.50053432  0.69561641  0.82452261  1
  H  H18  1  -0.00774885  0.30326335  0.31938682  1
  H  H19  1  0.01565277  0.63632828  0.32668453  1
  H  H20  1  0.00285773  0.97174855  0.32246584  1
  H  H21  1  0.49812655  0.30886178  0.32587147  1
  H  H22  1  0.48652522  0.63693592  0.32025900  1
  H  H23  1  0.49090028  0.97060000  0.32142773  1
  H  H24  1  0.25978120  0.19371455  0.67878936  1
  H  H25  1  0.25977855  0.52196385  0.67564429  1
  H  H26  1  0.25819513  0.86355828  0.67702720  1
  H  H27  1  0.74482022  0.19873056  0.68065781  1
  H  H28  1  0.74467490  0.52670179  0.67267652  1
  H  H29  1  0.74470876  0.86295053  0.67542129  1
  H  H30  1  0.25458652  0.14035983  0.17515510  1
  H  H31  1  0.25876378  0.47261930  0.18068209  1
  H  H32  1  0.24331347  0.80482438  0.17583361  1
  H  H33  1  0.73364629  0.13371806  0.17581866  1
  H  H34  1  0.73257129  0.46614765  0.18120717  1
  H  H35  1  0.75375594  0.80573225  0.17600678  1
  H  H36  1  0.25298900  0.19371378  0.82139548  1
  H  H37  1  0.26718959  0.53176921  0.81957334  1
  H  H38  1  0.26116709  0.86066405  0.82062956  1
  H  H39  1  0.74643671  0.19486849  0.81852014  1
  H  H40  1  0.74135684  0.53003517  0.82007379  1
  H  H41  1  0.73889831  0.86126104  0.82602187  1
  H  H42  1  0.24335143  0.13550233  0.32144528  1
  H  H43  1  0.26310272  0.47226096  0.32211893  1
  H  H44  1  0.24862693  0.80407951  0.31711741  1
  H  H45  1  0.75858603  0.13762079  0.32094969  1
  H  H46  1  0.73869881  0.46982227  0.32306853  1
  H  H47  1  0.74586439  0.80519881  0.32658966  1
  H  H48  1  0.13032403  0.05015044  0.61733507  1
  H  H49  1  0.12310980  0.39034473  0.60320437  1
  H  H50  1  0.11130288  0.72545025  0.58749737  1
  H  H51  1  0.62951527  0.05342384  0.61439796  1
  H  H52  1  0.62129055  0.39095281  0.60671578  1
  H  H53  1  0.61846593  0.72280680  0.60672240  1
  H  H54  1  0.36836161  0.28188007  0.12456253  1
  H  H55  1  0.36719072  0.61838524  0.12352268  1
  H  H56  1  0.37199150  0.95085209  0.12699676  1
  H  H57  1  0.87275614  0.27781711  0.10560911  1
  H  H58  1  0.86960830  0.61748970  0.12056863  1
  H  H59  1  0.87109925  0.94809294  0.10945856  1
  H  H60  1  0.37655377  0.05061468  0.88205833  1
  H  H61  1  0.36949018  0.38662549  0.89283164  1
  H  H62  1  0.37935703  0.72477991  0.89475500  1
  H  H63  1  0.87518052  0.05289077  0.88769264  1
  H  H64  1  0.87494608  0.38268944  0.87264187  1
  H  H65  1  0.88667597  0.72297842  0.89996991  1
  H  H66  1  0.12727011  0.28454298  0.37648793  1
  H  H67  1  0.12034471  0.60340205  0.40954795  1
  H  H68  1  0.11309089  0.94224439  0.40313040  1
  H  H69  1  0.63932115  0.29036375  0.37871672  1
  H  H70  1  0.62493399  0.61855955  0.37364646  1
  H  H71  1  0.62004742  0.94367221  0.38481241  1
  H  H72  1  0.36255310  0.22759725  0.59380088  1
  H  H73  1  0.37138130  0.55374063  0.59724126  1
  H  H74  1  0.37872679  0.88836716  0.60416714  1
  H  H75  1  0.86162692  0.22218064  0.60337824  1
  H  H76  1  0.87468266  0.55334396  0.60889928  1
  H  H77  1  0.87990486  0.88304773  0.61612192  1
  H  H78  1  0.13125230  0.11169120  0.10558900  1
  H  H79  1  0.12996095  0.44699843  0.11665068  1
  H  H80  1  0.12018687  0.77734817  0.10590937  1
  H  H81  1  0.62999911  0.10609413  0.09145182  1
  H  H82  1  0.63414296  0.43880446  0.09065776  1
  H  H83  1  0.62040165  0.77894451  0.11756649  1
  H  H84  1  0.13497529  0.22169557  0.89781099  1
  H  H85  1  0.13388991  0.55345352  0.88280841  1
  H  H86  1  0.12834186  0.88052725  0.88105924  1
  H  H87  1  0.63297856  0.21857536  0.89766435  1
  H  H88  1  0.63450710  0.56180122  0.90160702  1
  H  H89  1  0.63690626  0.89565405  0.90988919  1
  H  H90  1  0.36673475  0.11176219  0.39287149  1
  H  H91  1  0.38335045  0.44155836  0.39566977  1
  H  H92  1  0.38200719  0.78502755  0.37809148  1
  H  H93  1  0.86902138  0.11024290  0.40157121  1
  H  H94  1  0.87511481  0.45258178  0.37744471  1
  H  H95  1  0.88017113  0.77986019  0.38574466  1
  H  H96  1  0.39476342  0.27283377  0.40904900  1
  H  H97  1  0.37866434  0.60941210  0.40179109  1
  H  H98  1  0.37155751  0.94527958  0.39822266  1
  H  H99  1  0.88056682  0.27911870  0.39823846  1
  H  H100  1  0.87545736  0.61675107  0.37996389  1
  H  H101  1  0.86667504  0.94876002  0.37875760  1
  H  H102  1  0.12383993  0.05521253  0.89270939  1
  H  H103  1  0.12074707  0.38869685  0.90031531  1
  H  H104  1  0.13458848  0.71796045  0.88016707  1
  H  H105  1  0.62385463  0.05656798  0.90104778  1
  H  H106  1  0.61883134  0.38883447  0.88136538  1
  H  H107  1  0.62815647  0.72208033  0.89189982  1
  H  H108  1  0.12114041  0.27781041  0.10805122  1
  H  H109  1  0.11700893  0.61181839  0.10060254  1
  H  H110  1  0.11938174  0.94578394  0.10551765  1
  H  H111  1  0.61464957  0.27192541  0.09610320  1
  H  H112  1  0.61155510  0.61179404  0.09299890  1
  H  H113  1  0.61422467  0.94056659  0.09020068  1
  H  H114  1  0.38075624  0.05431090  0.60171450  1
  H  H115  1  0.37243172  0.38867755  0.60920017  1
  H  H116  1  0.36999321  0.71906264  0.61360905  1
  H  H117  1  0.88302144  0.05610498  0.60049073  1
  H  H118  1  0.87500909  0.38385270  0.62045503  1
  H  H119  1  0.86868035  0.71465807  0.62796497  1
  H  H120  1  0.11815017  0.11044364  0.39196094  1
  H  H121  1  0.13467299  0.44742074  0.38992821  1
  H  H122  1  0.13355032  0.77817166  0.39361936  1
  H  H123  1  0.62209812  0.11475990  0.37898539  1
  H  H124  1  0.62954505  0.44223772  0.40345270  1
  H  H125  1  0.63307753  0.77408493  0.40336636  1
  H  H126  1  0.38320188  0.21801392  0.88774977  1
  H  H127  1  0.38209210  0.56178597  0.89633593  1
  H  H128  1  0.37643762  0.88787934  0.89704426  1
  H  H129  1  0.88073581  0.21657040  0.88150129  1
  H  H130  1  0.88069674  0.54955842  0.87625938  1
  H  H131  1  0.88084131  0.87935936  0.87764758  1
  H  H132  1  0.38045938  0.11178471  0.10874517  1
  H  H133  1  0.37863463  0.44561203  0.10585272  1
  H  H134  1  0.36910118  0.77927013  0.10691260  1
  H  H135  1  0.87372712  0.11772556  0.12592832  1
  H  H136  1  0.87542940  0.45044086  0.13152300  1
  H  H137  1  0.86808601  0.77651139  0.09863420  1
  H  H138  1  0.11957657  0.21528208  0.62643878  1
  H  H139  1  0.12493850  0.55072865  0.62046041  1
  H  H140  1  0.12983490  0.88330516  0.61265577  1
  H  H141  1  0.61358666  0.22170176  0.61744617  1
  H  H142  1  0.62612932  0.55543758  0.59995888  1
  H  H143  1  0.63279619  0.88951165  0.59727667  1
  H  H144  1  0.70684990  0.59201377  1.00415725  1
  H  H145  1  0.83520619  0.58283871  0.50268151  1
  H  H146  1  0.94339614  0.24907676  0.50531246  1
  H  H147  1  0.53134020  0.91529954  -0.00663299  1
  H  H148  1  0.32028568  0.59405867  1.00034703  1
  H  H149  1  0.16695406  0.08265528  0.49576601  1
  H  H150  1  0.86059661  0.08722695  1.01048847  1
  H  H151  1  0.58016928  0.91010649  0.49432664  1
  H  H152  1  0.28234592  0.25011522  0.49474765  1
  H  H153  1  0.54285806  0.23936757  -0.00693130  1
  H  H154  1  0.72032149  0.41582725  -0.00582953  1
  H  H155  1  0.60789135  0.58709700  0.48687655  1
  H  H156  1  0.47365562  0.25711009  0.50920853  1
  H  H157  1  0.89464089  0.41116650  0.98745676  1
  H  H158  1  0.43776723  0.08329745  0.49373074  1
  H  H159  1  0.16978814  0.42222490  0.00288717  1
  H  H160  1  0.59438967  0.08038802  0.50723471  1
  H  H161  1  0.40250097  0.07975234  0.99654648  1
  H  H162  1  0.32053058  0.43509335  -0.00116210  1
  H  H163  1  0.06886987  0.24449655  0.00424401  1
  H  H164  1  0.62175902  0.25512664  0.48658556  1
  H  H165  1  0.05597203  0.58311138  -0.00700001  1
  H  H166  1  0.71723204  0.91675569  1.00843695  1
  H  H167  1  0.38939552  0.25082168  0.01630569  1
  H  H168  1  0.57984300  0.40924386  0.98937256  1
  H  H169  1  0.86264489  0.92079997  0.98161594  1
  H  H170  1  0.05269102  0.41092322  1.00797261  1
  H  H171  1  0.30142213  0.58223610  0.49581352  1
  H  H172  1  0.80158393  0.74772570  -0.00387523  1
  H  H173  1  0.85258346  0.91442064  0.50767631  1
  H  H174  1  0.32038118  0.91435492  1.00436197  1
  H  H175  1  0.02947857  0.75055050  0.48993075  1
  H  H176  1  0.85527596  0.41923993  0.49148946  1
  H  H177  1  0.15573813  0.91183540  0.99281919  1
  H  H178  1  0.05781112  0.42201726  0.49873698  1
  H  H179  1  0.69811992  0.24434861  1.00462375  1
  H  H180  1  0.42894432  0.40277291  1.00476724  1
  H  H181  1  0.19199754  0.75147346  0.50218364  1
  H  H182  1  0.10344247  0.25498641  0.49044705  1
  H  H183  1  0.53366419  0.58559278  -0.00589776  1
  H  H184  1  0.94998643  0.75160063  1.00841885  1
  H  H185  1  0.85100549  0.75030835  0.49512007  1
  H  H186  1  0.80102589  0.08056256  0.50562559  1
  H  H187  1  0.35306951  0.75657596  0.49063106  1
  H  H188  1  0.89472646  0.58759028  1.00739415  1
  H  H189  1  0.44783754  0.58127751  0.50731314  1
  H  H190  1  0.16718712  0.91774837  0.50076041  1
  H  H191  1  0.18205512  0.08229317  0.00084526  1
  Pb  Pb192  1  0.24545451  0.04877307  0.75141471  1
  Pb  Pb193  1  0.24261608  0.38484274  0.75586370  1
  Pb  Pb194  1  0.24914220  0.71408355  0.74083525  1
  Pb  Pb195  1  0.74959515  0.04763142  0.74855890  1
  Pb  Pb196  1  0.74744386  0.38139286  0.75534852  1
  Pb  Pb197  1  0.74453757  0.71768914  0.75568308  1
  Pb  Pb198  1  0.25756322  0.28262791  0.25815832  1
  Pb  Pb199  1  0.25289317  0.61797500  0.25725096  1
  Pb  Pb200  1  0.24847955  0.95180194  0.25486831  1
  Pb  Pb201  1  0.75553848  0.28228426  0.24335137  1
  Pb  Pb202  1  0.75077843  0.61769795  0.24665699  1
  Pb  Pb203  1  0.75335474  0.94981869  0.24494979  1
  Pb  Pb204  1  -0.00337588  0.21311297  0.75358335  1
  Pb  Pb205  1  -0.00463876  0.55087163  0.74686939  1
  Pb  Pb206  1  0.00117450  0.87964348  0.74951089  1
  Pb  Pb207  1  0.49592143  0.21669981  0.74880462  1
  Pb  Pb208  1  0.50040161  0.54831752  0.75095391  1
  Pb  Pb209  1  0.49648004  0.88372865  0.75363086  1
  Pb  Pb210  1  0.00457507  0.11711527  0.25088743  1
  Pb  Pb211  1  0.00735584  0.45017318  0.25439532  1
  Pb  Pb212  1  0.00388438  0.78281573  0.25150776  1
  Pb  Pb213  1  0.50481371  0.11541801  0.24738329  1
  Pb  Pb214  1  0.50650635  0.44861028  0.24540970  1
  Pb  Pb215  1  0.50173381  0.78599487  0.25249824  1
  C  C216  1  0.00319870  0.04377389  0.63314771  1
  C  C217  1  0.00265616  0.37755528  0.63439360  1
  C  C218  1  -0.00246633  0.71099897  0.62858898  1
  C  C219  1  0.50324663  0.04578069  0.63033051  1
  C  C220  1  0.49742646  0.37972737  0.62999550  1
  C  C221  1  0.49558173  0.71259326  0.63354373  1
  C  C222  1  -0.00321819  0.28695698  0.13064317  1
  C  C223  1  -0.00326671  0.62147393  0.13107655  1
  C  C224  1  -0.00414133  0.95627049  0.13035305  1
  C  C225  1  0.49641395  0.28491523  0.13173439  1
  C  C226  1  0.49521689  0.62572460  0.13073228  1
  C  C227  1  0.50040357  0.95604020  0.13144348  1
  C  C228  1  0.00038661  0.04443875  0.86774188  1
  C  C229  1  0.00197479  0.37846234  0.86587576  1
  C  C230  1  0.00657091  0.71257338  0.86928990  1
  C  C231  1  0.50255195  0.04629245  0.87078225  1
  C  C232  1  0.49240368  0.38019485  0.86421070  1
  C  C233  1  0.50307553  0.71371767  0.87085735  1
  C  C234  1  0.00052049  0.28859366  0.36691173  1
  C  C235  1  0.00350741  0.61947787  0.37254334  1
  C  C236  1  -0.00570776  0.95487086  0.36884033  1
  C  C237  1  0.51088228  0.29182795  0.37200616  1
  C  C238  1  0.49715686  0.62168782  0.36729837  1
  C  C239  1  0.49392554  0.95381466  0.36845116  1
  C  C240  1  0.24759637  0.21048224  0.63270704  1
  C  C241  1  0.25234527  0.54043226  0.62977595  1
  C  C242  1  0.25499105  0.87889452  0.62960236  1
  C  C243  1  0.73987464  0.21331557  0.63316224  1
  C  C244  1  0.74908583  0.54437162  0.62605844  1
  C  C245  1  0.75298597  0.87875117  0.62843664  1
  C  C246  1  0.25497113  0.12255012  0.12855875  1
  C  C247  1  0.25652825  0.45686876  0.13313181  1
  C  C248  1  0.24434369  0.78754951  0.12917338  1
  C  C249  1  0.74696652  0.11909035  0.12913392  1
  C  C250  1  0.74715563  0.45292249  0.13416459  1
  C  C251  1  0.74774823  0.78833860  0.12952940  1
  C  C252  1  0.25709419  0.21077159  0.86832524  1
  C  C253  1  0.26092832  0.54825017  0.86650589  1
  C  C254  1  0.25523206  0.87660000  0.86791511  1
  C  C255  1  0.75369863  0.20983176  0.86591414  1
  C  C256  1  0.75250434  0.54632437  0.86650580  1
  C  C257  1  0.75253106  0.87829889  0.87202716  1
  C  C258  1  0.24241087  0.11940635  0.36875890  1
  C  C259  1  0.26044834  0.45457999  0.36886175  1
  C  C260  1  0.25505052  0.78950386  0.36484142  1
  C  C261  1  0.74952602  0.12135795  0.36776876  1
  C  C262  1  0.74869059  0.45511840  0.37015363  1
  C  C263  1  0.75373593  0.78796460  0.37298798  1
  C  C264  1  0.03036500  0.92728849  0.03695019  1
  C  C265  1  0.94021000  0.92716702  0.45647300  1
  C  C266  1  0.72634401  0.90841704  0.53216670  1
  C  C267  1  0.44935406  0.07146760  0.96156202  1
  C  C268  1  0.20936084  0.90711724  0.53757641  1
  C  C269  1  0.69360061  0.23915706  0.54242060  1
  C  C270  1  0.19472979  0.57596446  0.54458883  1
  C  C271  1  0.53214560  0.41477841  0.53979088  1
  C  C272  1  0.29921452  0.08966800  0.03776669  1
  C  C273  1  0.51491077  0.25363268  0.03618508  1
  C  C274  1  0.71396670  0.57673089  0.53232366  1
  C  C275  1  0.46912797  0.74759397  0.96196425  1
  C  C276  1  0.73039460  0.09031433  0.03221434  1
  C  C277  1  0.29083124  0.90836371  0.53617535  1
  C  C278  1  0.72627258  0.42572582  0.46603612  1
  C  C279  1  0.55854644  0.59594952  0.45420464  1
  C  C280  1  0.94190500  0.40126953  0.95412613  1
  C  C281  1  0.72629662  0.75408748  0.46744692  1
  C  C282  1  0.28647831  0.58003305  0.95989411  1
  C  C283  1  0.69290818  0.75376161  0.04284028  1
  C  C284  1  0.02290409  0.40223450  0.96403555  1
  C  C285  1  0.92837906  0.73836096  0.54585819  1
  C  C286  1  0.20933358  0.43021648  0.04209600  1
  C  C287  1  0.02251202  0.59426223  0.03464462  1
  C  C288  1  0.45990848  0.40186717  0.96047536  1
  C  C289  1  0.53068578  0.07382449  0.96644352  1
  C  C290  1  0.97565877  0.26113404  0.46340255  1
  C  C291  1  0.47752381  0.59323269  0.46423830  1
  C  C292  1  0.98245436  0.73995133  0.96636380  1
  C  C293  1  0.02570818  0.40884511  0.54050026  1
  C  C294  1  0.72977416  0.23540229  0.96148599  1
  C  C295  1  0.20828883  0.75502140  0.03798599  1
  C  C296  1  0.05714239  0.26360334  0.45585598  1
  C  C297  1  0.03444298  0.07648748  0.95997948  1
  C  C298  1  0.20249449  0.90222507  0.95827804  1
  C  C299  1  0.22628400  0.76302056  0.46098589  1
  C  C300  1  0.53802308  0.92301548  0.45796646  1
  C  C301  1  0.81063964  0.09461069  0.04235007  1
  C  C302  1  0.28429877  0.90400001  0.96391647  1
  C  C303  1  0.94109861  0.59649700  0.04184534  1
  C  C304  1  0.77015517  0.09214338  0.46282819  1
  C  C305  1  0.01846934  0.58529373  0.46702104  1
  C  C306  1  0.47193759  0.07354146  0.53548812  1
  C  C307  1  0.30797920  0.76551866  0.45539427  1
  C  C308  1  0.73565166  0.57818650  0.96107435  1
  C  C309  1  0.52731905  0.74372370  0.54058737  1
  C  C310  1  0.06331324  0.73769830  0.95787442  1
  C  C311  1  0.80710557  0.42845841  0.45846420  1
  N  N312  1  0.80853073  0.23579505  0.95576342  1
  N  N313  1  0.81372142  0.57442934  0.95244295  1
  N  N314  1  0.45905524  0.92434592  0.46303167  1
  N  N315  1  0.00569444  0.74249063  0.53352619  1
  N  N316  1  0.81675127  0.43024901  0.05067082  1
  N  N317  1  0.77108972  0.23984502  0.53670885  1
  N  N318  1  0.28900978  0.42977880  0.03926054  1
  N  N319  1  0.30286667  0.24002248  0.95878362  1
  N  N320  1  0.20540302  0.09239301  0.45978819  1
  N  N321  1  0.97787755  0.07588374  0.53874217  1
  N  N322  1  0.27307193  0.57534145  0.53742001  1
  N  N323  1  0.21727032  0.42360127  0.45965264  1
  N  N324  1  0.43248611  0.59425893  0.04700803  1
  N  N325  1  0.21981998  0.09008134  0.03761199  1
  N  N326  1  0.18304139  0.23933620  0.54922465  1
  N  N327  1  0.77142038  0.75472149  0.03698823  1
  N  N328  1  0.57294761  0.27009515  0.45689335  1
  N  N329  1  0.03353468  0.25792958  0.04034774  1
  N  N330  1  0.44995859  0.74253054  0.54190870  1
  N  N331  1  0.49663942  0.25568713  0.46435730  1
  N  N332  1  0.53886206  0.40637626  0.95426373  1
  N  N333  1  0.28376075  0.09265709  0.46195234  1
  N  N334  1  0.79284456  0.57581226  0.53679216  1
  N  N335  1  0.94696221  0.40629968  0.54607789  1
  N  N336  1  0.81563551  0.90314967  0.95549122  1
  N  N337  1  0.43670100  0.25747604  0.04694841  1
  N  N338  1  0.73904202  0.91719102  0.96318133  1
  N  N339  1  0.43296181  0.92727315  0.04896306  1
  N  N340  1  0.50934476  0.92342674  0.03788714  1
  N  N341  1  0.01703409  0.92369774  0.46544393  1
  N  N342  1  0.80439320  0.75810113  0.46094801  1
  N  N343  1  0.54649548  0.74675021  0.96221821  1
  N  N344  1  0.80478699  0.90612669  0.54024197  1
  N  N345  1  0.22631761  0.24119509  0.96232816  1
  N  N346  1  0.28550501  0.75577091  0.03684364  1
  N  N347  1  0.95565814  0.25751576  0.03842015  1
  N  N348  1  0.69138873  0.09279878  0.45553036  1
  N  N349  1  0.25954400  0.24356853  0.53955917  1
  N  N350  1  0.55130663  0.07453842  0.54136576  1
  N  N351  1  0.05412614  0.07347406  0.54416173  1
  N  N352  1  0.45476748  0.41403838  0.53918475  1
  N  N353  1  0.74077496  0.42647381  0.03846843  1
  N  N354  1  0.95256370  0.92904493  0.03710079  1
  N  N355  1  0.94196397  0.58998174  0.45868328  1
  N  N356  1  0.95673612  0.07579645  0.95932636  1
  N  N357  1  0.50965939  0.59182710  0.03812461  1
  N  N358  1  0.20746780  0.57660693  0.95603012  1
  N  N359  1  0.29355744  0.42185001  0.46150459  1
  N  N360  1  0.07096093  0.05344147  0.60269743  1
  N  N361  1  0.06135485  0.39150782  0.59436764  1
  N  N362  1  0.04888975  0.72300113  0.58384308  1
  N  N363  1  0.57023515  0.05662102  0.59957946  1
  N  N364  1  0.56121854  0.39423612  0.59442529  1
  N  N365  1  0.55761618  0.72562717  0.59568078  1
  N  N366  1  0.42553300  0.27764595  0.10538453  1
  N  N367  1  0.42433638  0.61331031  0.10548834  1
  N  N368  1  0.42808619  0.94560160  0.10763978  1
  N  N369  1  0.93316820  0.27569175  0.09490103  1
  N  N370  1  0.92643815  0.61320909  0.10188508  1
  N  N371  1  0.93093999  0.94738889  0.09654850  1
  N  N372  1  0.43345644  0.05454798  0.90071529  1
  N  N373  1  0.43044259  0.38728491  0.90417925  1
  N  N374  1  0.43969064  0.72784145  0.90711863  1
  N  N375  1  0.93532081  0.05572916  0.90076677  1
  N  N376  1  0.93047553  0.38644967  0.89325850  1
  N  N377  1  0.94795065  0.72388774  0.90985946  1
  N  N378  1  0.07114738  0.28023188  0.39579042  1
  N  N379  1  0.05845990  0.60341539  0.41557919  1
  N  N380  1  0.05087805  0.94144561  0.40932820  1
  N  N381  1  0.58248404  0.28378227  0.39727759  1
  N  N382  1  0.56891835  0.61318289  0.39380965  1
  N  N383  1  0.56094923  0.94092252  0.40022886  1
  N  N384  1  0.30045448  0.22313584  0.58891659  1
  N  N385  1  0.30971791  0.55161898  0.58905207  1
  N  N386  1  0.31843287  0.89131363  0.59159594  1
  N  N387  1  0.79963905  0.22301837  0.59441157  1
  N  N388  1  0.81500668  0.55509804  0.59419165  1
  N  N389  1  0.82155726  0.88837894  0.59963713  1
  N  N390  1  0.19208532  0.11207386  0.09299651  1
  N  N391  1  0.18916087  0.44502646  0.10048429  1
  N  N392  1  0.18009747  0.77415990  0.09358186  1
  N  N393  1  0.69201564  0.10510111  0.08442224  1
  N  N394  1  0.69664505  0.44147069  0.08839824  1
  N  N395  1  0.67802841  0.77409974  0.10015913  1
  N  N396  1  0.19688202  0.22363452  0.90617570  1
  N  N397  1  0.19352384  0.55720226  0.89770440  1
  N  N398  1  0.18625629  0.88554928  0.89828910  1
  N  N399  1  0.69440611  0.22016460  0.90661902  1
  N  N400  1  0.69661870  0.56111148  0.90859893  1
  N  N401  1  0.69930820  0.89180115  0.91556047  1
  N  N402  1  0.30607673  0.10885462  0.40457719  1
  N  N403  1  0.32181888  0.44115939  0.40544397  1
  N  N404  1  0.32426328  0.78172699  0.39561782  1
  N  N405  1  0.80714466  0.10937544  0.40945590  1
  N  N406  1  0.81950481  0.44694815  0.39772673  1
  N  N407  1  0.82213740  0.78000373  0.40282061  1
  N  N408  1  0.45709496  0.27845984  0.41519655  1
  N  N409  1  0.44048467  0.60933013  0.40964546  1
  N  N410  1  0.43316675  0.94341837  0.40671667  1
  N  N411  1  0.94194470  0.27685102  0.40779016  1
  N  N412  1  0.93272971  0.61122069  0.39851850  1
  N  N413  1  0.92387101  0.94522838  0.39747285  1
  N  N414  1  0.06325535  0.05746934  0.90466009  1
  N  N415  1  0.05912634  0.38797733  0.90864038  1
  N  N416  1  0.07726895  0.72148648  0.89924829  1
  N  N417  1  0.56262826  0.05866800  0.91180192  1
  N  N418  1  0.55885252  0.39125790  0.89543351  1
  N  N419  1  0.56790866  0.72552788  0.90402153  1
  N  N420  1  0.06045141  0.27482855  0.09637454  1
  N  N421  1  0.05581033  0.60984151  0.09055453  1
  N  N422  1  0.05880157  0.94347667  0.09328216  1
  N  N423  1  0.55238609  0.27055730  0.08885420  1
  N  N424  1  0.54919087  0.61307178  0.08780030  1
  N  N425  1  0.55190767  0.94364150  0.08660434  1
  N  N426  1  0.44176665  0.05688218  0.59098730  1
  N  N427  1  0.43286320  0.39201006  0.59676018  1
  N  N428  1  0.42981822  0.72300952  0.60103569  1
  N  N429  1  0.94511211  0.05770213  0.59370958  1
  N  N430  1  0.93412113  0.38710503  0.60488719  1
  N  N431  1  0.92299956  0.72029399  0.60533343  1
  N  N432  1  0.17884957  0.10891363  0.40378329  1
  N  N433  1  0.19529226  0.44363029  0.40221774  1
  N  N434  1  0.19469230  0.77797268  0.40422025  1
  N  N435  1  0.68026998  0.11089506  0.39574220  1
  N  N436  1  0.69102937  0.44177150  0.41288720  1
  N  N437  1  0.69457758  0.77255070  0.41315702  1
  N  N438  1  0.32320274  0.22109062  0.90080194  1
  N  N439  1  0.32084708  0.56245791  0.90542418  1
  N  N440  1  0.31571481  0.88836368  0.90721728  1
  N  N441  1  0.82170608  0.21973552  0.89629212  1
  N  N442  1  0.82286879  0.55470312  0.89358668  1
  N  N443  1  0.82441988  0.88840035  0.89589057  1
  N  N444  1  0.32088268  0.10888334  0.09442795  1
  N  N445  1  0.31808481  0.45033043  0.09488080  1
  N  N446  1  0.30834784  0.77643176  0.09497737  1
  N  N447  1  0.81934803  0.11216028  0.10371940  1
  N  N448  1  0.82029704  0.44626822  0.11043520  1
  N  N449  1  0.80639667  0.77782514  0.08971019  1
  N  N450  1  0.17587638  0.22073255  0.60774883  1
  N  N451  1  0.18189248  0.55528310  0.60210754  1
  N  N452  1  0.18833930  0.88864190  0.59682686  1
  N  N453  1  0.67181379  0.22345235  0.60123066  1
  N  N454  1  0.68645847  0.55805119  0.58791847  1
  N  N455  1  0.69397272  0.89156119  0.58701197  1
  Cl  Cl456  1  0.25474434  0.05304993  0.61740931  1
  Cl  Cl457  1  0.24631434  0.38803083  0.62402911  1
  Cl  Cl458  1  0.23634891  0.72076332  0.60520383  1
  Cl  Cl459  1  0.75870174  0.05235970  0.61138225  1
  Cl  Cl460  1  0.74697192  0.38788928  0.62511874  1
  Cl  Cl461  1  0.74118466  0.71934232  0.62232684  1
  Cl  Cl462  1  0.24246482  0.28259753  0.12547369  1
  Cl  Cl463  1  0.23980830  0.61440559  0.12391508  1
  Cl  Cl464  1  0.24157185  0.94848441  0.12127748  1
  Cl  Cl465  1  0.73876607  0.27631988  0.10772965  1
  Cl  Cl466  1  0.73287895  0.61208754  0.11034113  1
  Cl  Cl467  1  0.73615770  0.93538482  0.10320003  1
  Cl  Cl468  1  0.24475952  0.06021821  0.88695936  1
  Cl  Cl469  1  0.24671665  0.39569197  0.89467400  1
  Cl  Cl470  1  0.25857870  0.72061878  0.87104668  1
  Cl  Cl471  1  0.74694217  0.05247124  0.88096246  1
  Cl  Cl472  1  0.73884957  0.39370334  0.89832639  1
  Cl  Cl473  1  0.75976957  0.72690399  0.89350917  1
  Cl  Cl474  1  0.27537471  0.26682380  0.40079805  1
  Cl  Cl475  1  0.25199145  0.60431845  0.39623653  1
  Cl  Cl476  1  0.24216015  0.94484878  0.39000094  1
  Cl  Cl477  1  0.76113269  0.28442630  0.37444757  1
  Cl  Cl478  1  0.75162640  0.61597161  0.37948782  1
  Cl  Cl479  1  0.74362209  0.94294520  0.37762130  1
  Cl  Cl480  1  -0.01529242  0.22250041  0.62047065  1
  Cl  Cl481  1  -0.00178076  0.55531814  0.61447174  1
  Cl  Cl482  1  0.00304651  0.87824763  0.61935464  1
  Cl  Cl483  1  0.48312055  0.23448533  0.60505008  1
  Cl  Cl484  1  0.49731542  0.55647109  0.61652120  1
  Cl  Cl485  1  0.50829164  0.88808356  0.62057309  1
  Cl  Cl486  1  0.01069169  0.11046262  0.11911115  1
  Cl  Cl487  1  0.00822364  0.44211273  0.12215561  1
  Cl  Cl488  1  -0.00901768  0.77829587  0.11745331  1
  Cl  Cl489  1  0.50636629  0.10994232  0.11242420  1
  Cl  Cl490  1  0.51010497  0.43729211  0.09991730  1
  Cl  Cl491  1  0.49354521  0.77972785  0.12001458  1
  Cl  Cl492  1  0.01386147  0.21991815  0.88896713  1
  Cl  Cl493  1  0.00980242  0.55410663  0.87928341  1
  Cl  Cl494  1  0.00385149  0.88116645  0.88141835  1
  Cl  Cl495  1  0.50814307  0.22036988  0.88459991  1
  Cl  Cl496  1  0.51216762  0.56370079  0.89761364  1
  Cl  Cl497  1  0.51507475  0.89608114  0.89831954  1
  Cl  Cl498  1  -0.00545746  0.10982181  0.38312167  1
  Cl  Cl499  1  0.01125313  0.44720342  0.38751587  1
  Cl  Cl500  1  0.00970074  0.77019129  0.39272387  1
  Cl  Cl501  1  0.49068883  0.11296552  0.38347590  1
  Cl  Cl502  1  0.50575988  0.43962402  0.37821544  1
  Cl  Cl503  1  0.51123377  0.77757129  0.38414490  1
  Cl  Cl504  1  0.36347308  0.14637149  0.74695763  1
  Cl  Cl505  1  0.36736458  0.47766261  0.75460260  1
  Cl  Cl506  1  0.36199495  0.81520033  0.74414099  1
  Cl  Cl507  1  0.85805604  0.14920443  0.75507503  1
  Cl  Cl508  1  0.86549090  0.47769848  0.75659729  1
  Cl  Cl509  1  0.86595349  0.81169797  0.74832979  1
  Cl  Cl510  1  0.14039700  0.18480574  0.25379952  1
  Cl  Cl511  1  0.14176153  0.51667232  0.25268893  1
  Cl  Cl512  1  0.14065395  0.84818652  0.24986666  1
  Cl  Cl513  1  0.63958416  0.18384311  0.25746407  1
  Cl  Cl514  1  0.64178079  0.51542298  0.25422135  1
  Cl  Cl515  1  0.64148342  0.84924553  0.24600423  1
  Cl  Cl516  1  0.14117991  0.14798394  0.74255068  1
  Cl  Cl517  1  0.14474046  0.48321338  0.75044053  1
  Cl  Cl518  1  0.14191478  0.81685720  0.75251596  1
  Cl  Cl519  1  0.63423178  0.14630256  0.73912956  1
  Cl  Cl520  1  0.64239313  0.48580402  0.75306242  1
  Cl  Cl521  1  0.64801010  0.81717897  0.75385736  1
  Cl  Cl522  1  0.35816288  0.18728719  0.24591082  1
  Cl  Cl523  1  0.36183259  0.52297831  0.24716183  1
  Cl  Cl524  1  0.36262888  0.85290533  0.24925377  1
  Cl  Cl525  1  0.85844991  0.18662838  0.23976164  1
  Cl  Cl526  1  0.86654153  0.52031106  0.24731727  1
  Cl  Cl527  1  0.85829087  0.85584302  0.25583801  1
  Cl  Cl528  1  0.10836819  0.31425542  0.74897273  1
  Cl  Cl529  1  0.10942867  0.64999117  0.74983234  1
  Cl  Cl530  1  0.10841727  0.98315267  0.74992248  1
  Cl  Cl531  1  0.61095384  0.31475519  0.75409595  1
  Cl  Cl532  1  0.60778562  0.65147605  0.75617496  1
  Cl  Cl533  1  0.61189577  0.98207269  0.74773659  1
  Cl  Cl534  1  0.38344602  0.02062692  0.24223752  1
  Cl  Cl535  1  0.38484249  0.35443794  0.24055052  1
  Cl  Cl536  1  0.38751487  0.68632049  0.25065558  1
  Cl  Cl537  1  0.88537631  0.01995182  0.24309573  1
  Cl  Cl538  1  0.88956987  0.35339141  0.24433923  1
  Cl  Cl539  1  0.88173748  0.68870048  0.25308707  1
  Cl  Cl540  1  0.38912732  0.31240266  0.75107559  1
  Cl  Cl541  1  0.38810694  0.64750200  0.74631023  1
  Cl  Cl542  1  0.39514223  0.98062510  0.75668644  1
  Cl  Cl543  1  0.88218428  0.31211800  0.76000153  1
  Cl  Cl544  1  0.88877496  0.64459147  0.74522643  1
  Cl  Cl545  1  0.88627567  0.97869691  0.75478559  1
  Cl  Cl546  1  0.10624184  0.01587043  0.25459056  1
  Cl  Cl547  1  0.10839975  0.35081196  0.25815698  1
  Cl  Cl548  1  0.10038765  0.68312808  0.25006712  1
  Cl  Cl549  1  0.60335430  0.01718494  0.25665148  1
  Cl  Cl550  1  0.60470937  0.34997824  0.24827264  1
  Cl  Cl551  1  0.61084038  0.68332976  0.25015647  1
