# generated using pymatgen
data_H8PbC4(N3Cl2)2
_symmetry_space_group_name_H-M   'P 1'
_cell_length_a   16.62638483
_cell_length_b   22.52140679
_cell_length_c   21.59724024
_cell_angle_alpha   89.99958767
_cell_angle_beta   90.00665693
_cell_angle_gamma   90.01440220
_symmetry_Int_Tables_number   1
_chemical_formula_structural   H8PbC4(N3Cl2)2
_chemical_formula_sum   'H192 Pb24 C96 N144 Cl96'
_cell_volume   8087.07714465
_cell_formula_units_Z   24
loop_
 _symmetry_equiv_pos_site_id
 _symmetry_equiv_pos_as_xyz
  1  'x, y, z'
loop_
 _atom_site_type_symbol
 _atom_site_label
 _atom_site_symmetry_multiplicity
 _atom_site_fract_x
 _atom_site_fract_y
 _atom_site_fract_z
 _atom_site_occupancy
  H  H0  1  -0.00825162  0.02278645  0.67994545  1
  H  H1  1  0.00947012  0.36598903  0.68013200  1
  H  H2  1  0.00093999  0.69766818  0.68175468  1
  H  H3  1  0.49751037  0.02727438  0.67638492  1
  H  H4  1  0.50969504  0.36111896  0.67809298  1
  H  H5  1  0.49977715  0.69271263  0.67737663  1
  H  H6  1  0.00223041  0.30760929  0.17409153  1
  H  H7  1  -0.00745548  0.63998908  0.17792527  1
  H  H8  1  0.00603838  0.97401630  0.17896885  1
  H  H9  1  0.49557425  0.30769018  0.17499416  1
  H  H10  1  0.51283561  0.63521158  0.18046929  1
  H  H11  1  0.48491446  0.97008654  0.17581830  1
  H  H12  1  0.01263544  0.02761460  0.82406887  1
  H  H13  1  -0.00939832  0.36130241  0.81884831  1
  H  H14  1  0.00329094  0.69490785  0.82397867  1
  H  H15  1  0.49543803  0.02773415  0.82238172  1
  H  H16  1  0.49483080  0.36225696  0.81921329  1
  H  H17  1  0.48887558  0.70149743  0.81739495  1
  H  H18  1  0.00635769  0.30014564  0.31823945  1
  H  H19  1  -0.00012035  0.63783516  0.31820964  1
  H  H20  1  0.00899479  0.97113759  0.32230263  1
  H  H21  1  0.50249929  0.30494655  0.32468859  1
  H  H22  1  0.50297896  0.63658434  0.32285803  1
  H  H23  1  0.49032668  0.96658017  0.32151941  1
  H  H24  1  0.24757427  0.19767424  0.68128451  1
  H  H25  1  0.22702611  0.52517954  0.67580394  1
  H  H26  1  0.24930234  0.85996981  0.67463060  1
  H  H27  1  0.74796504  0.19649190  0.67697215  1
  H  H28  1  0.76114285  0.53438503  0.67739036  1
  H  H29  1  0.75881162  0.86088309  0.68106489  1
  H  H30  1  0.24226353  0.13895869  0.17741904  1
  H  H31  1  0.26393151  0.46877607  0.17708574  1
  H  H32  1  0.26361862  0.80243921  0.18329574  1
  H  H33  1  0.75098156  0.13871878  0.17689803  1
  H  H34  1  0.75023999  0.46667738  0.17660866  1
  H  H35  1  0.74762513  0.80635861  0.17798472  1
  H  H36  1  0.24532659  0.19303555  0.82145844  1
  H  H37  1  0.26603060  0.52792255  0.82020410  1
  H  H38  1  0.24794529  0.86244351  0.82192029  1
  H  H39  1  0.74715186  0.19710834  0.82073759  1
  H  H40  1  0.74363558  0.52564863  0.82257810  1
  H  H41  1  0.74810868  0.86096443  0.82289855  1
  H  H42  1  0.25500039  0.13399021  0.31740597  1
  H  H43  1  0.24169310  0.46927016  0.31995861  1
  H  H44  1  0.24864878  0.81026062  0.32246482  1
  H  H45  1  0.75260659  0.13422209  0.32453648  1
  H  H46  1  0.74985887  0.47408214  0.32387303  1
  H  H47  1  0.75634866  0.80579036  0.32338247  1
  H  H48  1  0.12998321  0.04760239  0.62607270  1
  H  H49  1  0.11678336  0.39086319  0.59766570  1
  H  H50  1  0.12701510  0.72269630  0.61320390  1
  H  H51  1  0.63345585  0.04823063  0.61774529  1
  H  H52  1  0.61921686  0.39322036  0.59705016  1
  H  H53  1  0.62715841  0.71542071  0.61164044  1
  H  H54  1  0.37082399  0.27754226  0.10802022  1
  H  H55  1  0.37076427  0.61675239  0.12907513  1
  H  H56  1  0.37671932  0.94337301  0.09303106  1
  H  H57  1  0.86582546  0.28516347  0.11697480  1
  H  H58  1  0.87369071  0.61057640  0.10292503  1
  H  H59  1  0.87506747  0.94775124  0.11497824  1
  H  H60  1  0.38329689  0.05623587  0.90216204  1
  H  H61  1  0.38078846  0.39017877  0.89840484  1
  H  H62  1  0.38924696  0.72572032  0.90473119  1
  H  H63  1  0.87806130  0.05154968  0.88163798  1
  H  H64  1  0.87749771  0.38879835  0.89717659  1
  H  H65  1  0.88113870  0.72089458  0.89469897  1
  H  H66  1  0.11493989  0.27848382  0.40157888  1
  H  H67  1  0.11984424  0.60902693  0.39018602  1
  H  H68  1  0.12225768  0.93958163  0.39865157  1
  H  H69  1  0.61083518  0.27495572  0.40626919  1
  H  H70  1  0.62924467  0.61086974  0.39008716  1
  H  H71  1  0.62007854  0.94724745  0.38490968  1
  H  H72  1  0.38425018  0.21864530  0.62283875  1
  H  H73  1  0.37229504  0.54749843  0.63096354  1
  H  H74  1  0.37607557  0.88740106  0.60737764  1
  H  H75  1  0.88518529  0.21662327  0.61949511  1
  H  H76  1  0.86820809  0.55528460  0.59454315  1
  H  H77  1  0.87787604  0.88636338  0.60617883  1
  H  H78  1  0.12167940  0.11326465  0.10511858  1
  H  H79  1  0.12533407  0.45071113  0.12675638  1
  H  H80  1  0.12283331  0.78308770  0.12879321  1
  H  H81  1  0.62143972  0.11327616  0.11285773  1
  H  H82  1  0.61326918  0.45004490  0.12198521  1
  H  H83  1  0.62042652  0.78221585  0.11175824  1
  H  H84  1  0.13190994  0.22045023  0.89962758  1
  H  H85  1  0.13095189  0.55107310  0.87936946  1
  H  H86  1  0.12416521  0.88930202  0.89328193  1
  H  H87  1  0.63581913  0.22532328  0.90164380  1
  H  H88  1  0.63731845  0.55527050  0.90744803  1
  H  H89  1  0.62617424  0.88766757  0.89343632  1
  H  H90  1  0.36312024  0.10719928  0.39865193  1
  H  H91  1  0.37814108  0.45328599  0.37510741  1
  H  H92  1  0.37337541  0.78174077  0.38938008  1
  H  H93  1  0.85561126  0.10320593  0.40976270  1
  H  H94  1  0.88447802  0.45156010  0.38509738  1
  H  H95  1  0.86831296  0.77666926  0.40349623  1
  H  H96  1  0.36488972  0.28568507  0.38188032  1
  H  H97  1  0.38033219  0.61341306  0.39242718  1
  H  H98  1  0.37129642  0.94211842  0.39552590  1
  H  H99  1  0.86876318  0.28178363  0.37641066  1
  H  H100  1  0.87253366  0.62060810  0.38719366  1
  H  H101  1  0.87441828  0.94892662  0.38276907  1
  H  H102  1  0.12485239  0.05765955  0.90350899  1
  H  H103  1  0.12564233  0.38423806  0.88008821  1
  H  H104  1  0.13029780  0.71958827  0.88851247  1
  H  H105  1  0.62998183  0.05174382  0.87983973  1
  H  H106  1  0.62893300  0.38287924  0.88028011  1
  H  H107  1  0.63263641  0.71434739  0.86615853  1
  H  H108  1  0.11242672  0.27277704  0.09746495  1
  H  H109  1  0.12196847  0.61478499  0.11372266  1
  H  H110  1  0.12283590  0.94660630  0.10114964  1
  H  H111  1  0.61879012  0.28289688  0.10474066  1
  H  H112  1  0.61349086  0.60666534  0.09173118  1
  H  H113  1  0.62282612  0.94889541  0.11945484  1
  H  H114  1  0.38703878  0.05542089  0.59623617  1
  H  H115  1  0.37318283  0.38543704  0.62090299  1
  H  H116  1  0.37802315  0.72065663  0.60798171  1
  H  H117  1  0.88568365  0.05416864  0.59596801  1
  H  H118  1  0.87058721  0.38329502  0.62665210  1
  H  H119  1  0.87756226  0.72035215  0.60919768  1
  H  H120  1  0.11745112  0.11541691  0.37114665  1
  H  H121  1  0.13262032  0.44373645  0.40063123  1
  H  H122  1  0.12457826  0.78097164  0.39262917  1
  H  H123  1  0.61145248  0.11606876  0.37517790  1
  H  H124  1  0.63630299  0.44290746  0.40094057  1
  H  H125  1  0.62142208  0.78190451  0.38113460  1
  H  H126  1  0.37968063  0.21715499  0.88233914  1
  H  H127  1  0.37799805  0.55382746  0.90097727  1
  H  H128  1  0.37305916  0.88792969  0.89196232  1
  H  H129  1  0.88275900  0.21725311  0.87925532  1
  H  H130  1  0.88233003  0.54992336  0.87670957  1
  H  H131  1  0.87573190  0.88765620  0.88947579  1
  H  H132  1  0.37064910  0.11518965  0.11457066  1
  H  H133  1  0.36917021  0.44201245  0.09433376  1
  H  H134  1  0.36840283  0.77875926  0.09773699  1
  H  H135  1  0.87077825  0.11400693  0.10329213  1
  H  H136  1  0.85976188  0.44071224  0.09568062  1
  H  H137  1  0.86978706  0.77620916  0.10721239  1
  H  H138  1  0.13771245  0.22458996  0.60042764  1
  H  H139  1  0.13197838  0.55961212  0.58592321  1
  H  H140  1  0.12719689  0.88852033  0.60419899  1
  H  H141  1  0.63904506  0.22934286  0.59699523  1
  H  H142  1  0.62214843  0.55014994  0.62274752  1
  H  H143  1  0.62901558  0.88631186  0.61533562  1
  H  H144  1  0.42383931  0.75182888  0.49886229  1
  H  H145  1  0.79890620  0.57949389  0.48687829  1
  H  H146  1  0.09148907  0.75263265  -0.00017339  1
  H  H147  1  0.42628262  0.58219692  0.50318612  1
  H  H148  1  0.04461182  0.25338172  0.50688271  1
  H  H149  1  0.08141344  0.58399029  0.00350398  1
  H  H150  1  0.17833518  0.92191892  0.99592306  1
  H  H151  1  0.46804005  0.75208809  1.00789765  1
  H  H152  1  0.56559759  0.23525836  0.01039467  1
  H  H153  1  0.94260803  0.42110786  1.00180019  1
  H  H154  1  0.81920435  0.08254113  -0.00446491  1
  H  H155  1  0.05593054  0.56006874  0.48112308  1
  H  H156  1  0.89215922  0.25103636  0.00873675  1
  H  H157  1  0.85789121  0.25389307  0.51396795  1
  H  H158  1  0.81809949  0.74983960  0.00262131  1
  H  H159  1  0.29566907  0.07804400  0.50398933  1
  H  H160  1  0.31288659  0.58386378  1.00428771  1
  H  H161  1  0.07981383  0.75640844  0.50548809  1
  H  H162  1  0.65735566  0.08620537  0.00542467  1
  H  H163  1  0.63264528  0.41946436  1.00659999  1
  H  H164  1  0.45924814  0.07292716  0.49339131  1
  H  H165  1  0.22086210  0.58631023  0.49257432  1
  H  H166  1  0.82174519  0.91471364  0.49928642  1
  H  H167  1  0.96326724  0.07954017  0.49671658  1
  H  H168  1  0.65782556  0.74726543  0.00207979  1
  H  H169  1  0.54649827  0.42486856  0.49868408  1
  H  H170  1  0.14032247  0.41981458  1.01081787  1
  H  H171  1  0.19610494  0.25200175  1.00432859  1
  H  H172  1  0.88762764  0.41274468  0.51334636  1
  H  H173  1  0.53100179  0.58186200  -0.00502247  1
  H  H174  1  0.04774822  0.41780906  0.49203502  1
  H  H175  1  0.41647457  0.25836310  0.00258299  1
  H  H176  1  0.92935526  0.62156585  0.49467893  1
  H  H177  1  0.20622100  0.25389360  0.49589156  1
  H  H178  1  0.67349183  0.91951329  1.00132009  1
  H  H179  1  0.35765282  0.42103752  0.48949871  1
  H  H180  1  0.58495972  0.91495171  0.49750576  1
  H  H181  1  0.13641941  0.08572858  0.48525788  1
  H  H182  1  0.33330814  0.07902638  0.00322483  1
  H  H183  1  0.71133117  0.24757384  0.49473542  1
  H  H184  1  0.60746322  0.08106153  0.50821735  1
  H  H185  1  0.59064166  0.74650916  0.50069426  1
  H  H186  1  0.71457007  0.58156564  1.00581976  1
  H  H187  1  0.53728728  0.25790039  0.50819113  1
  H  H188  1  0.29328613  0.74946992  -0.00419660  1
  H  H189  1  0.77733189  0.08194893  0.51003673  1
  H  H190  1  0.83298374  0.91508180  0.99521782  1
  H  H191  1  0.39091892  0.24881788  0.48779774  1
  Pb  Pb192  1  0.25837358  0.04790644  0.75333703  1
  Pb  Pb193  1  0.25348934  0.38042003  0.74953011  1
  Pb  Pb194  1  0.25857718  0.71694261  0.75477695  1
  Pb  Pb195  1  0.75812564  0.05001980  0.74608377  1
  Pb  Pb196  1  0.75677721  0.38489253  0.74700183  1
  Pb  Pb197  1  0.75746794  0.71334817  0.75318462  1
  Pb  Pb198  1  0.24292938  0.28490518  0.25016658  1
  Pb  Pb199  1  0.24017865  0.61609994  0.25824565  1
  Pb  Pb200  1  0.24103956  0.95096692  0.24434307  1
  Pb  Pb201  1  0.73693412  0.28401512  0.25716595  1
  Pb  Pb202  1  0.74611848  0.61825496  0.24105559  1
  Pb  Pb203  1  0.74216011  0.94983793  0.24893895  1
  Pb  Pb204  1  0.01007653  0.21634486  0.75021109  1
  Pb  Pb205  1  0.00987763  0.55012727  0.73464576  1
  Pb  Pb206  1  0.00446694  0.88116980  0.74882923  1
  Pb  Pb207  1  0.50890705  0.21748390  0.75347377  1
  Pb  Pb208  1  0.50349262  0.54726781  0.76461637  1
  Pb  Pb209  1  0.50602470  0.88083616  0.75079716  1
  Pb  Pb210  1  -0.01245938  0.11708484  0.25614867  1
  Pb  Pb211  1  -0.00985995  0.44926317  0.24815509  1
  Pb  Pb212  1  -0.00627656  0.78566080  0.25618695  1
  Pb  Pb213  1  0.49032668  0.11538068  0.25602133  1
  Pb  Pb214  1  0.49654983  0.45249024  0.25795778  1
  Pb  Pb215  1  0.49081554  0.78278527  0.24673268  1
  C  C216  1  0.00227409  0.04026267  0.63389774  1
  C  C217  1  -0.00156907  0.38008389  0.63276015  1
  C  C218  1  0.00180478  0.71345061  0.63430589  1
  C  C219  1  0.50642423  0.04351795  0.62940869  1
  C  C220  1  0.50084274  0.37929841  0.63210851  1
  C  C221  1  0.50175560  0.70992915  0.63039236  1
  C  C222  1  -0.00696283  0.28981749  0.12802131  1
  C  C223  1  -0.00418990  0.62242007  0.13127137  1
  C  C224  1  0.00136014  0.95690169  0.13212124  1
  C  C225  1  0.49495198  0.29004185  0.12812887  1
  C  C226  1  0.49934826  0.62055427  0.13377783  1
  C  C227  1  0.49520971  0.95452789  0.12914341  1
  C  C228  1  0.00531457  0.04489986  0.87038477  1
  C  C229  1  -0.00177910  0.37763067  0.86578959  1
  C  C230  1  0.00554534  0.71165642  0.87094688  1
  C  C231  1  0.50285117  0.04456195  0.86889224  1
  C  C232  1  0.50134428  0.37787252  0.86623981  1
  C  C233  1  0.50364514  0.71364915  0.86464192  1
  C  C234  1  -0.00399547  0.28695085  0.36594931  1
  C  C235  1  -0.00280207  0.62279471  0.36592187  1
  C  C236  1  0.00158121  0.95367582  0.36852210  1
  C  C237  1  0.49246546  0.28896711  0.37160256  1
  C  C238  1  0.50370925  0.62031223  0.37004557  1
  C  C239  1  0.49458906  0.95220877  0.36925104  1
  C  C240  1  0.25707662  0.21270692  0.63410885  1
  C  C241  1  0.24336976  0.54264905  0.63066389  1
  C  C242  1  0.25113308  0.87789432  0.62822306  1
  C  C243  1  0.75767501  0.21330557  0.63034641  1
  C  C244  1  0.75059121  0.54667544  0.62957414  1
  C  C245  1  0.75504446  0.87715717  0.63386968  1
  C  C246  1  0.24549974  0.12201215  0.13059639  1
  C  C247  1  0.25167864  0.45393133  0.13029105  1
  C  C248  1  0.25123029  0.78830758  0.13623481  1
  C  C249  1  0.74732347  0.12193932  0.12970979  1
  C  C250  1  0.74014225  0.45296103  0.12917284  1
  C  C251  1  0.74635480  0.78884000  0.13106214  1
  C  C252  1  0.25264183  0.20967851  0.86829929  1
  C  C253  1  0.25825646  0.54396833  0.86718644  1
  C  C254  1  0.24808370  0.87956248  0.86883182  1
  C  C255  1  0.75508084  0.21262701  0.86776129  1
  C  C256  1  0.75399673  0.54225923  0.86902010  1
  C  C257  1  0.75048782  0.87843540  0.86984246  1
  C  C258  1  0.24453788  0.11964709  0.36474874  1
  C  C259  1  0.25190504  0.45490979  0.36717635  1
  C  C260  1  0.24856267  0.79137548  0.36840484  1
  C  C261  1  0.73987889  0.11972902  0.37149476  1
  C  C262  1  0.75725855  0.45633128  0.36994173  1
  C  C263  1  0.74890516  0.78853914  0.36971668  1
  C  C264  1  0.49441935  0.73917892  0.96374889  1
  C  C265  1  0.78538367  0.90453718  0.53986453  1
  C  C266  1  0.95298762  0.07598985  0.95749037  1
  C  C267  1  0.76906270  0.56985298  0.53057254  1
  C  C268  1  0.69625447  0.75667890  0.45662960  1
  C  C269  1  0.46579367  0.59226036  0.46438211  1
  C  C270  1  0.54751248  0.59150156  0.46201869  1
  C  C271  1  0.22867472  0.24049454  0.96225559  1
  C  C272  1  0.23661352  0.24015834  0.53831604  1
  C  C273  1  0.68178079  0.42832771  0.04018651  1
  C  C274  1  0.21644296  0.91170844  0.53733011  1
  C  C275  1  0.22913599  0.42579254  0.46319245  1
  C  C276  1  0.57340257  0.73408626  0.94886018  1
  C  C277  1  0.70112364  0.75819834  0.04044292  1
  C  C278  1  0.93670888  0.40402894  0.54567745  1
  C  C279  1  0.73202179  0.42230572  0.46291437  1
  C  C280  1  0.04014919  0.74306371  0.54301690  1
  C  C281  1  0.67405266  0.09432861  0.45661596  1
  C  C282  1  0.28025730  0.57258152  0.96226924  1
  C  C283  1  0.68858937  0.56757956  0.54181158  1
  C  C284  1  0.01482096  0.26368811  0.46315583  1
  C  C285  1  0.46027245  0.92497505  0.46372636  1
  C  C286  1  0.26503557  0.09124674  0.46161772  1
  C  C287  1  0.96748678  0.74198712  0.96355307  1
  C  C288  1  0.54659689  0.73736460  0.53795730  1
  C  C289  1  0.26993286  0.42593743  0.03353657  1
  C  C290  1  0.01753289  0.40645637  0.53511112  1
  C  C291  1  0.46436185  0.73976591  0.53685560  1
  C  C292  1  0.03942337  0.59423589  0.04069267  1
  C  C293  1  0.97448557  0.40833703  0.95979684  1
  C  C294  1  0.76268152  0.42554697  0.03266130  1
  C  C295  1  0.29115240  0.09103207  0.03951610  1
  C  C296  1  0.01762515  0.25333802  0.03424283  1
  C  C297  1  0.47656060  0.92357312  0.03414387  1
  C  C298  1  0.30993868  0.42928203  0.45590772  1
  C  C299  1  0.55570397  0.07461219  0.95660768  1
  C  C300  1  0.28798774  0.75850544  0.45904897  1
  C  C301  1  0.18947347  0.42852411  0.04310805  1
  C  C302  1  0.02605769  0.91944610  0.46134499  1
  C  C303  1  0.04907510  0.74187963  0.96295961  1
  C  C304  1  0.54178018  0.92570759  0.46136423  1
  C  C305  1  0.78131950  0.09315882  0.03566759  1
  C  C306  1  0.71258170  0.90859139  0.96241665  1
  C  C307  1  0.18406697  0.09475959  0.45210160  1
  C  C308  1  0.26548564  0.76105107  0.03995789  1
  C  C309  1  0.55146043  0.40603445  0.95481492  1
  C  C310  1  0.20963328  0.09052007  0.03785754  1
  C  C311  1  0.80819271  0.23833841  0.95641802  1
  N  N312  1  0.20135495  0.57202431  0.95560217  1
  N  N313  1  0.47858095  0.07661211  0.96495513  1
  N  N314  1  0.70606701  0.90528708  0.54270939  1
  N  N315  1  0.96040522  0.59236708  0.03690009  1
  N  N316  1  0.43536405  0.26648041  0.45834436  1
  N  N317  1  0.95201583  0.59848747  0.45748246  1
  N  N318  1  0.06392539  0.07110583  0.54986768  1
  N  N319  1  0.95373119  0.92489336  0.04293495  1
  N  N320  1  0.73906186  0.57368194  0.96228769  1
  N  N321  1  0.70156670  0.09231505  0.04011394  1
  N  N322  1  0.30761620  0.24047771  0.95653930  1
  N  N323  1  0.51942603  0.41435552  0.54048548  1
  N  N324  1  0.45385436  0.25376562  0.04048804  1
  N  N325  1  0.55343491  0.92512918  0.04136325  1
  N  N326  1  0.43192077  0.59535184  0.04998992  1
  N  N327  1  0.51285320  0.25476560  0.46407131  1
  N  N328  1  0.75191710  0.09002425  0.46669759  1
  N  N329  1  0.94862249  0.92246388  0.45760368  1
  N  N330  1  0.31507462  0.23575939  0.54490081  1
  N  N331  1  0.47451598  0.40869462  0.96211960  1
  N  N332  1  0.53285687  0.26542957  0.03528816  1
  N  N333  1  0.79235617  0.90917477  0.95982344  1
  N  N334  1  0.56169146  0.06716711  0.54226895  1
  N  N335  1  0.18746263  0.76249664  0.05024403  1
  N  N336  1  0.77311732  0.75410464  0.46477585  1
  N  N337  1  0.73661368  0.24906784  0.53867984  1
  N  N338  1  0.81382932  0.23607438  0.54330639  1
  N  N339  1  0.29153004  0.90875163  0.96053674  1
  N  N340  1  0.24013392  0.57667021  0.53747595  1
  N  N341  1  0.29379960  0.91156108  0.53701432  1
  N  N342  1  0.93959796  0.25916082  0.04160359  1
  N  N343  1  0.80912610  0.42556361  0.45861736  1
  N  N344  1  0.02987522  0.07850360  0.96559347  1
  N  N345  1  0.05328645  0.40643381  0.95416911  1
  N  N346  1  0.50839555  0.59154419  0.03908177  1
  N  N347  1  0.96088279  0.74104457  0.54066272  1
  N  N348  1  0.73125512  0.24111827  0.96501211  1
  N  N349  1  0.03452590  0.59731192  0.45902978  1
  N  N350  1  0.78079421  0.75613880  0.04011294  1
  N  N351  1  0.93641195  0.26540068  0.45493148  1
  N  N352  1  0.48405382  0.07725054  0.53701431  1
  N  N353  1  0.44214961  0.41030919  0.54675058  1
  N  N354  1  0.21348786  0.90922924  0.95942611  1
  N  N355  1  0.31574758  0.57199161  0.55103622  1
  N  N356  1  0.98704309  0.07341508  0.54106757  1
  N  N357  1  0.03017077  0.92495838  0.03823816  1
  N  N358  1  0.21021619  0.75783269  0.46097225  1
  N  N359  1  0.81605871  0.57180123  0.95363899  1
  N  N360  1  0.07301858  0.05256526  0.60828764  1
  N  N361  1  0.05485101  0.39136144  0.58986685  1
  N  N362  1  0.06687060  0.72585037  0.60000613  1
  N  N363  1  0.57581178  0.05494401  0.60173558  1
  N  N364  1  0.55675871  0.39335801  0.59113721  1
  N  N365  1  0.56805884  0.71916712  0.59656332  1
  N  N366  1  0.43035956  0.27984406  0.09382827  1
  N  N367  1  0.42695487  0.61199762  0.10927006  1
  N  N368  1  0.43841739  0.94132329  0.08644909  1
  N  N369  1  0.92383974  0.28233592  0.09924819  1
  N  N370  1  0.93485920  0.60994630  0.09385353  1
  N  N371  1  0.93476293  0.94435895  0.10119249  1
  N  N372  1  0.44545643  0.05710663  0.90897671  1
  N  N373  1  0.44312795  0.39073408  0.90554350  1
  N  N374  1  0.45168928  0.72573487  0.90988716  1
  N  N375  1  0.93541325  0.05615311  0.89969269  1
  N  N376  1  0.93926860  0.39073686  0.90588406  1
  N  N377  1  0.94171547  0.72384678  0.90795722  1
  N  N378  1  0.05279155  0.27705756  0.40894460  1
  N  N379  1  0.05862896  0.60452561  0.39971586  1
  N  N380  1  0.06095140  0.93833878  0.40817266  1
  N  N381  1  0.54869555  0.27849418  0.41376401  1
  N  N382  1  0.56969277  0.60836794  0.40491741  1
  N  N383  1  0.56183681  0.94285498  0.40143882  1
  N  N384  1  0.32645480  0.21926938  0.60518496  1
  N  N385  1  0.31713278  0.55275489  0.60949567  1
  N  N386  1  0.31567229  0.89000675  0.59490823  1
  N  N387  1  0.82753491  0.22344327  0.60296840  1
  N  N388  1  0.80689728  0.55650083  0.58660071  1
  N  N389  1  0.81677230  0.88794508  0.59557584  1
  N  N390  1  0.18203318  0.10914372  0.09273144  1
  N  N391  1  0.17956102  0.44584891  0.10451634  1
  N  N392  1  0.18021606  0.77921545  0.11032453  1
  N  N393  1  0.68120766  0.11092876  0.09786293  1
  N  N394  1  0.66926876  0.44549224  0.10147098  1
  N  N395  1  0.67975101  0.77732764  0.09747891  1
  N  N396  1  0.19359669  0.22216430  0.90852108  1
  N  N397  1  0.18964415  0.55437118  0.89619683  1
  N  N398  1  0.18523625  0.89182081  0.90405764  1
  N  N399  1  0.69811741  0.22472316  0.90829267  1
  N  N400  1  0.69960493  0.55368543  0.91214788  1
  N  N401  1  0.68646465  0.89062989  0.90611017  1
  N  N402  1  0.30126779  0.10710236  0.40679314  1
  N  N403  1  0.32263439  0.44733447  0.39511707  1
  N  N404  1  0.31368339  0.77821438  0.40303698  1
  N  N405  1  0.79323264  0.10875582  0.41524919  1
  N  N406  1  0.82541759  0.44695347  0.39990611  1
  N  N407  1  0.80617221  0.77479849  0.40949650  1
  N  N408  1  0.42239158  0.27810106  0.39839844  1
  N  N409  1  0.43972655  0.61008754  0.40585176  1
  N  N410  1  0.43186148  0.94075774  0.40822378  1
  N  N411  1  0.92620425  0.27924724  0.39403176  1
  N  N412  1  0.93259468  0.62181258  0.40143159  1
  N  N413  1  0.93346321  0.94351396  0.39802665  1
  N  N414  1  0.06281817  0.05860353  0.91008372  1
  N  N415  1  0.06657879  0.38741204  0.89542562  1
  N  N416  1  0.07161760  0.72300388  0.90404045  1
  N  N417  1  0.57261908  0.05581266  0.89789166  1
  N  N418  1  0.57070793  0.38762581  0.89671499  1
  N  N419  1  0.57855578  0.71900799  0.88893417  1
  N  N420  1  0.05122378  0.27252232  0.08762392  1
  N  N421  1  0.06276914  0.61197503  0.09846419  1
  N  N422  1  0.06093407  0.94504967  0.09332238  1
  N  N423  1  0.55825460  0.27676574  0.09388351  1
  N  N424  1  0.55103934  0.60887087  0.08881419  1
  N  N425  1  0.56499031  0.94464893  0.10203478  1
  N  N426  1  0.44927787  0.05366144  0.58793748  1
  N  N427  1  0.43096998  0.39045035  0.60442292  1
  N  N428  1  0.43812784  0.72275858  0.59475252  1
  N  N429  1  0.94802168  0.05191163  0.59074662  1
  N  N430  1  0.92638078  0.38796909  0.60617401  1
  N  N431  1  0.93873720  0.72325863  0.59817254  1
  N  N432  1  0.17275457  0.11232682  0.39206921  1
  N  N433  1  0.19431729  0.44114898  0.40972525  1
  N  N434  1  0.18564438  0.77835297  0.40312880  1
  N  N435  1  0.66628798  0.11144678  0.39686439  1
  N  N436  1  0.69807639  0.44082420  0.40948601  1
  N  N437  1  0.67892006  0.77701727  0.39869678  1
  N  N438  1  0.32083046  0.22082693  0.89762180  1
  N  N439  1  0.31662244  0.55583035  0.90823290  1
  N  N440  1  0.31253012  0.89039686  0.90372917  1
  N  N441  1  0.82530229  0.22141983  0.89716175  1
  N  N442  1  0.82481428  0.55379470  0.89505168  1
  N  N443  1  0.81549678  0.88904682  0.90325056  1
  N  N444  1  0.31222249  0.11054266  0.09843982  1
  N  N445  1  0.30731541  0.44104497  0.08598038  1
  N  N446  1  0.30602231  0.77695148  0.09223593  1
  N  N447  1  0.80986596  0.11065456  0.09170239  1
  N  N448  1  0.79777527  0.44040545  0.08620834  1
  N  N449  1  0.80867964  0.77698347  0.09514368  1
  N  N450  1  0.19964541  0.22568567  0.59253322  1
  N  N451  1  0.19440803  0.55652028  0.58456677  1
  N  N452  1  0.18750414  0.89157600  0.59219687  1
  N  N453  1  0.70099565  0.22493029  0.58882752  1
  N  N454  1  0.67828808  0.55393715  0.60163741  1
  N  N455  1  0.68903853  0.88804541  0.60148518  1
  Cl  Cl456  1  0.26667777  0.05505991  0.61778255  1
  Cl  Cl457  1  0.24033754  0.38932442  0.61607282  1
  Cl  Cl458  1  0.25177603  0.71856084  0.62372600  1
  Cl  Cl459  1  0.76568055  0.06120919  0.60285738  1
  Cl  Cl460  1  0.73770930  0.38830039  0.61269432  1
  Cl  Cl461  1  0.75396589  0.71570921  0.62557114  1
  Cl  Cl462  1  0.24164263  0.27186199  0.11555296  1
  Cl  Cl463  1  0.24554054  0.61403634  0.12658039  1
  Cl  Cl464  1  0.24642950  0.94558815  0.10713162  1
  Cl  Cl465  1  0.74131420  0.28194561  0.12546145  1
  Cl  Cl466  1  0.73616812  0.60590966  0.10059693  1
  Cl  Cl467  1  0.75119200  0.94497454  0.11249952  1
  Cl  Cl468  1  0.25436612  0.05701858  0.88877247  1
  Cl  Cl469  1  0.25739619  0.38825949  0.88279498  1
  Cl  Cl470  1  0.26457122  0.72437927  0.89074405  1
  Cl  Cl471  1  0.75337543  0.05549279  0.87933077  1
  Cl  Cl472  1  0.75565923  0.38536482  0.87902042  1
  Cl  Cl473  1  0.76246315  0.72356377  0.89027758  1
  Cl  Cl474  1  0.23712357  0.28009246  0.38749865  1
  Cl  Cl475  1  0.24172727  0.60775636  0.39832806  1
  Cl  Cl476  1  0.24605218  0.94081379  0.37626984  1
  Cl  Cl477  1  0.73100414  0.27071195  0.39823223  1
  Cl  Cl478  1  0.75250041  0.60992247  0.37414289  1
  Cl  Cl479  1  0.74922221  0.95108112  0.37966156  1
  Cl  Cl480  1  0.01304249  0.22195791  0.61276616  1
  Cl  Cl481  1  0.00692346  0.56055837  0.59685400  1
  Cl  Cl482  1  0.00258283  0.89008274  0.61610054  1
  Cl  Cl483  1  0.51823795  0.23263699  0.60594729  1
  Cl  Cl484  1  0.49920547  0.55125715  0.63334823  1
  Cl  Cl485  1  0.50253974  0.89043284  0.61667313  1
  Cl  Cl486  1  -0.00506520  0.12082068  0.12482048  1
  Cl  Cl487  1  -0.02092911  0.43967563  0.11465623  1
  Cl  Cl488  1  -0.00857934  0.77605895  0.12352183  1
  Cl  Cl489  1  0.49956276  0.11963944  0.12602645  1
  Cl  Cl490  1  0.48541329  0.44619075  0.12752153  1
  Cl  Cl491  1  0.49199140  0.78111836  0.11144814  1
  Cl  Cl492  1  0.00856277  0.22153773  0.88363337  1
  Cl  Cl493  1  0.00571913  0.54956084  0.86710346  1
  Cl  Cl494  1  0.00067867  0.88845327  0.88163267  1
  Cl  Cl495  1  0.51055070  0.22440956  0.88998524  1
  Cl  Cl496  1  0.51477843  0.55876731  0.90416500  1
  Cl  Cl497  1  0.49820578  0.88902145  0.88270808  1
  Cl  Cl498  1  -0.02442277  0.10006128  0.40118083  1
  Cl  Cl499  1  0.01218572  0.45305970  0.38375219  1
  Cl  Cl500  1  -0.00269520  0.77788122  0.39010682  1
  Cl  Cl501  1  0.48380730  0.10451617  0.39534238  1
  Cl  Cl502  1  0.51757597  0.44176242  0.39651167  1
  Cl  Cl503  1  0.49591846  0.77991292  0.37883931  1
  Cl  Cl504  1  0.36895078  0.14981053  0.75037668  1
  Cl  Cl505  1  0.36467853  0.48072704  0.74676429  1
  Cl  Cl506  1  0.36005982  0.81794544  0.74613208  1
  Cl  Cl507  1  0.85991387  0.14923337  0.74761515  1
  Cl  Cl508  1  0.86076498  0.48064321  0.74472275  1
  Cl  Cl509  1  0.86181660  0.81747626  0.75378797  1
  Cl  Cl510  1  0.13202566  0.18650427  0.25732841  1
  Cl  Cl511  1  0.14089371  0.51737026  0.24759053  1
  Cl  Cl512  1  0.13443041  0.85447323  0.24262908  1
  Cl  Cl513  1  0.63734577  0.18620030  0.25536088  1
  Cl  Cl514  1  0.63771612  0.51562336  0.24830832  1
  Cl  Cl515  1  0.63823382  0.85382145  0.24695767  1
  Cl  Cl516  1  0.14612606  0.14927107  0.74741499  1
  Cl  Cl517  1  0.14331192  0.48196524  0.75458248  1
  Cl  Cl518  1  0.14124423  0.81396483  0.75376720  1
  Cl  Cl519  1  0.63963807  0.14623335  0.74077233  1
  Cl  Cl520  1  0.64004381  0.48185220  0.75023160  1
  Cl  Cl521  1  0.64180546  0.81162677  0.75554906  1
  Cl  Cl522  1  0.35614967  0.18466629  0.25275676  1
  Cl  Cl523  1  0.36040217  0.52061864  0.25600567  1
  Cl  Cl524  1  0.35750655  0.85274745  0.25205455  1
  Cl  Cl525  1  0.85514344  0.18712394  0.25855753  1
  Cl  Cl526  1  0.85811980  0.51807828  0.25046361  1
  Cl  Cl527  1  0.85640696  0.85080091  0.25171025  1
  Cl  Cl528  1  0.10565985  0.31829446  0.75324223  1
  Cl  Cl529  1  0.11294721  0.64578779  0.75307413  1
  Cl  Cl530  1  0.11542808  0.98312642  0.74807699  1
  Cl  Cl531  1  0.61026043  0.31520488  0.75231138  1
  Cl  Cl532  1  0.61696028  0.64647277  0.75357790  1
  Cl  Cl533  1  0.62208400  0.97865735  0.74161292  1
  Cl  Cl534  1  0.39295583  0.01664316  0.24954718  1
  Cl  Cl535  1  0.38455435  0.35136282  0.25949936  1
  Cl  Cl536  1  0.38851607  0.68549859  0.24810152  1
  Cl  Cl537  1  0.89010558  0.01881879  0.24676658  1
  Cl  Cl538  1  0.88539314  0.35408718  0.26372738  1
  Cl  Cl539  1  0.88658756  0.68225919  0.24874071  1
  Cl  Cl540  1  0.39034934  0.31285292  0.74047274  1
  Cl  Cl541  1  0.39441648  0.64875894  0.74899060  1
  Cl  Cl542  1  0.39890860  0.98421418  0.75105681  1
  Cl  Cl543  1  0.88674391  0.31060194  0.74012416  1
  Cl  Cl544  1  0.89629572  0.64906081  0.75127231  1
  Cl  Cl545  1  0.89206466  0.98218699  0.75483535  1
  Cl  Cl546  1  0.11055399  0.02358735  0.25631257  1
  Cl  Cl547  1  0.10540553  0.35074353  0.24345264  1
  Cl  Cl548  1  0.10738987  0.68540231  0.25462946  1
  Cl  Cl549  1  0.61474372  0.02308374  0.24793472  1
  Cl  Cl550  1  0.60123156  0.34854477  0.24830461  1
  Cl  Cl551  1  0.60915939  0.68579564  0.24990733  1
