# generated using pymatgen
data_H8PbC4(N3Cl2)2
_symmetry_space_group_name_H-M   'P 1'
_cell_length_a   16.62399891
_cell_length_b   22.51187111
_cell_length_c   21.59375644
_cell_angle_alpha   90.00016726
_cell_angle_beta   89.99232903
_cell_angle_gamma   89.99736232
_symmetry_Int_Tables_number   1
_chemical_formula_structural   H8PbC4(N3Cl2)2
_chemical_formula_sum   'H192 Pb24 C96 N144 Cl96'
_cell_volume   8081.18947613
_cell_formula_units_Z   24
loop_
 _symmetry_equiv_pos_site_id
 _symmetry_equiv_pos_as_xyz
  1  'x, y, z'
loop_
 _atom_site_type_symbol
 _atom_site_label
 _atom_site_symmetry_multiplicity
 _atom_site_fract_x
 _atom_site_fract_y
 _atom_site_fract_z
 _atom_site_occupancy
  H  H0  1  -0.00161962  0.02954536  0.67509339  1
  H  H1  1  -0.01214709  0.36612976  0.68312991  1
  H  H2  1  -0.00576893  0.69579858  0.68024749  1
  H  H3  1  0.50520714  0.02957653  0.67879310  1
  H  H4  1  0.51045989  0.36554946  0.67468260  1
  H  H5  1  0.50720829  0.69598193  0.68115760  1
  H  H6  1  -0.00560233  0.30233536  0.18169476  1
  H  H7  1  0.00448337  0.63865713  0.17941048  1
  H  H8  1  0.00200575  0.96767702  0.17676138  1
  H  H9  1  0.50973509  0.30103131  0.17733184  1
  H  H10  1  0.50212218  0.63824194  0.17727077  1
  H  H11  1  0.50018133  0.96967139  0.17899051  1
  H  H12  1  0.00766306  0.03194737  0.82215817  1
  H  H13  1  0.00213043  0.36434198  0.82122495  1
  H  H14  1  -0.00561342  0.69518714  0.82515580  1
  H  H15  1  0.49993176  0.03132666  0.82329934  1
  H  H16  1  0.49354099  0.36222295  0.81798970  1
  H  H17  1  0.49233394  0.69789163  0.82414012  1
  H  H18  1  0.01287205  0.30170891  0.31781265  1
  H  H19  1  0.01043286  0.63656182  0.32059071  1
  H  H20  1  0.00806580  0.96942049  0.32078223  1
  H  H21  1  0.48829384  0.30338253  0.31902131  1
  H  H22  1  0.50027863  0.63746987  0.31994360  1
  H  H23  1  0.50176348  0.96777654  0.31649600  1
  H  H24  1  0.24780732  0.19618035  0.68031494  1
  H  H25  1  0.24899103  0.53045748  0.67923549  1
  H  H26  1  0.26711314  0.86227502  0.67914353  1
  H  H27  1  0.74320279  0.19811998  0.68210805  1
  H  H28  1  0.74716882  0.53555566  0.67858103  1
  H  H29  1  0.73775926  0.86569216  0.68109617  1
  H  H30  1  0.24204144  0.13883394  0.18209961  1
  H  H31  1  0.25166238  0.47351979  0.18095858  1
  H  H32  1  0.25653131  0.80170777  0.17937327  1
  H  H33  1  0.75227714  0.13575819  0.17697298  1
  H  H34  1  0.74313992  0.47050328  0.17996680  1
  H  H35  1  0.75289234  0.80436179  0.17785224  1
  H  H36  1  0.24789910  0.19584121  0.81838093  1
  H  H37  1  0.25244849  0.53050295  0.82282386  1
  H  H38  1  0.26209363  0.86350484  0.81967774  1
  H  H39  1  0.75476243  0.19407870  0.82282436  1
  H  H40  1  0.74371799  0.53232236  0.81869027  1
  H  H41  1  0.73824967  0.86104480  0.82120934  1
  H  H42  1  0.26673971  0.13340085  0.32271917  1
  H  H43  1  0.23937620  0.46735695  0.32226751  1
  H  H44  1  0.25530138  0.80274022  0.31869148  1
  H  H45  1  0.73799182  0.13975926  0.32520298  1
  H  H46  1  0.76109964  0.46817555  0.31884874  1
  H  H47  1  0.75934648  0.80263573  0.32029296  1
  H  H48  1  0.11948176  0.05042573  0.60089587  1
  H  H49  1  0.12582732  0.38364540  0.62441456  1
  H  H50  1  0.12618102  0.71660254  0.61667274  1
  H  H51  1  0.61610226  0.05931468  0.59835560  1
  H  H52  1  0.62140441  0.39268409  0.59537108  1
  H  H53  1  0.62761916  0.71975938  0.60688516  1
  H  H54  1  0.37793830  0.28166434  0.11705832  1
  H  H55  1  0.36879386  0.61503177  0.11624572  1
  H  H56  1  0.38203480  0.94524514  0.10599303  1
  H  H57  1  0.88227075  0.27619574  0.10288615  1
  H  H58  1  0.87320924  0.61602446  0.11461396  1
  H  H59  1  0.87951395  0.94681599  0.10394376  1
  H  H60  1  0.36889758  0.05205004  0.88419013  1
  H  H61  1  0.37466584  0.38780372  0.89287325  1
  H  H62  1  0.37856194  0.72098014  0.90276940  1
  H  H63  1  0.86655260  0.04653535  0.87564638  1
  H  H64  1  0.87237726  0.38608576  0.88736047  1
  H  H65  1  0.88009796  0.72493528  0.90077738  1
  H  H66  1  0.12163519  0.27712260  0.39987060  1
  H  H67  1  0.12007787  0.60953647  0.40389078  1
  H  H68  1  0.12126125  0.94369908  0.39840668  1
  H  H69  1  0.62615714  0.28190717  0.37636974  1
  H  H70  1  0.62144486  0.61194892  0.39408881  1
  H  H71  1  0.62479807  0.94744737  0.38724472  1
  H  H72  1  0.37448962  0.21823403  0.61098034  1
  H  H73  1  0.37645860  0.55246886  0.60953024  1
  H  H74  1  0.37060353  0.89289137  0.59351261  1
  H  H75  1  0.87462832  0.21859760  0.61601791  1
  H  H76  1  0.87609782  0.55424297  0.61009908  1
  H  H77  1  0.87720738  0.88220172  0.62950286  1
  H  H78  1  0.13609517  0.10984570  0.09849665  1
  H  H79  1  0.12684369  0.44776181  0.11011715  1
  H  H80  1  0.12107537  0.77981014  0.11757621  1
  H  H81  1  0.63206030  0.11081784  0.10352308  1
  H  H82  1  0.62816172  0.44405959  0.10229107  1
  H  H83  1  0.61861811  0.78331696  0.11685158  1
  H  H84  1  0.12455261  0.22093111  0.89025324  1
  H  H85  1  0.12834201  0.55522796  0.89253818  1
  H  H86  1  0.12318276  0.88298094  0.87585518  1
  H  H87  1  0.61986198  0.21776567  0.88098038  1
  H  H88  1  0.63004245  0.55680992  0.89670931  1
  H  H89  1  0.62144078  0.89006039  0.89820907  1
  H  H90  1  0.37578366  0.10558331  0.40434425  1
  H  H91  1  0.37814287  0.44952582  0.37598370  1
  H  H92  1  0.37082368  0.77846365  0.39396707  1
  H  H93  1  0.88114143  0.11561575  0.36942710  1
  H  H94  1  0.87180904  0.44318847  0.39859948  1
  H  H95  1  0.87281202  0.77607622  0.39844604  1
  H  H96  1  0.37932014  0.27713251  0.40201709  1
  H  H97  1  0.37297504  0.61165570  0.38930428  1
  H  H98  1  0.37493814  0.94743932  0.38436317  1
  H  H99  1  0.87500756  0.28268458  0.37171363  1
  H  H100  1  0.87373552  0.61611416  0.38151889  1
  H  H101  1  0.87280574  0.94899617  0.38016270  1
  H  H102  1  0.11043633  0.06233616  0.90706008  1
  H  H103  1  0.12182542  0.38880002  0.89494914  1
  H  H104  1  0.12801861  0.71615384  0.88672318  1
  H  H105  1  0.61677963  0.05544215  0.89895404  1
  H  H106  1  0.62348064  0.38404609  0.88505925  1
  H  H107  1  0.62593478  0.71856178  0.88181530  1
  H  H108  1  0.13017331  0.28326768  0.12440684  1
  H  H109  1  0.12167690  0.60956435  0.10531126  1
  H  H110  1  0.12785864  0.94223467  0.10921459  1
  H  H111  1  0.62606052  0.27581203  0.10030170  1
  H  H112  1  0.61736922  0.61089371  0.10007482  1
  H  H113  1  0.63106677  0.95206769  0.11365002  1
  H  H114  1  0.36901220  0.05188776  0.62180598  1
  H  H115  1  0.37462095  0.38461656  0.61597111  1
  H  H116  1  0.37846458  0.71938520  0.61395287  1
  H  H117  1  0.87181898  0.05888533  0.60918243  1
  H  H118  1  0.87915279  0.39105107  0.60046058  1
  H  H119  1  0.87784200  0.72169271  0.60238702  1
  H  H120  1  0.12952454  0.11403295  0.38021021  1
  H  H121  1  0.13207359  0.44342258  0.40444559  1
  H  H122  1  0.12189459  0.78304176  0.38065354  1
  H  H123  1  0.63953612  0.10750285  0.41266138  1
  H  H124  1  0.62444594  0.44962028  0.37496569  1
  H  H125  1  0.62498866  0.78135056  0.38188344  1
  H  H126  1  0.37325667  0.22011418  0.88715493  1
  H  H127  1  0.37731889  0.55611724  0.89330718  1
  H  H128  1  0.36880879  0.88852047  0.90290726  1
  H  H129  1  0.86744492  0.22401508  0.90155495  1
  H  H130  1  0.87827481  0.55135676  0.87753522  1
  H  H131  1  0.86954163  0.88388128  0.88731645  1
  H  H132  1  0.38195480  0.11716272  0.12761611  1
  H  H133  1  0.37551988  0.44722862  0.10878272  1
  H  H134  1  0.36834282  0.77575905  0.09719882  1
  H  H135  1  0.88095118  0.11200093  0.11159297  1
  H  H136  1  0.87624422  0.44866271  0.11702046  1
  H  H137  1  0.86637873  0.77556086  0.09881147  1
  H  H138  1  0.12631224  0.22001700  0.60874547  1
  H  H139  1  0.12787490  0.55386367  0.60556138  1
  H  H140  1  0.12662290  0.88291391  0.62617984  1
  H  H141  1  0.62702252  0.22322617  0.60279801  1
  H  H142  1  0.62722123  0.55424231  0.60340865  1
  H  H143  1  0.63235169  0.88921728  0.59723711  1
  H  H144  1  0.31435070  0.74838360  0.50243285  1
  H  H145  1  0.08369323  0.92024535  0.00224114  1
  H  H146  1  0.79908539  0.25240682  1.00334976  1
  H  H147  1  0.89418915  0.25508679  0.48612859  1
  H  H148  1  0.03121078  0.07665765  1.00755723  1
  H  H149  1  0.09268091  0.74915372  0.50628605  1
  H  H150  1  0.32188910  0.22330935  0.50372744  1
  H  H151  1  0.68931267  0.41316674  -0.00247994  1
  H  H152  1  0.85196663  0.58152766  0.99037093  1
  H  H153  1  0.80667996  0.41557065  0.50588848  1
  H  H154  1  0.68700885  0.08009166  -0.00012225  1
  H  H155  1  0.18494535  0.26604189  0.51329715  1
  H  H156  1  0.60106460  0.74975424  0.99618136  1
  H  H157  1  0.55245536  0.58468233  -0.00367222  1
  H  H158  1  0.69130366  0.58501787  1.00470872  1
  H  H159  1  0.29007905  0.91693713  0.49512611  1
  H  H160  1  0.57723075  0.92077081  0.49918445  1
  H  H161  1  0.94478046  0.24997567  -0.00471146  1
  H  H162  1  0.70439691  0.91169431  0.49065311  1
  H  H163  1  0.20951497  0.08498334  -0.00509657  1
  H  H164  1  0.10584546  0.25519566  0.01068207  1
  H  H165  1  0.72306074  0.08240146  0.50957882  1
  H  H166  1  0.45122095  0.25208789  0.50633565  1
  H  H167  1  0.54586582  0.08574877  0.49691604  1
  H  H168  1  0.40086946  0.08193642  -0.00216418  1
  H  H169  1  0.40738788  0.25112580  0.00258837  1
  H  H170  1  0.05390572  0.25171433  0.50644047  1
  H  H171  1  0.29538660  0.91489605  1.00748760  1
  H  H172  1  0.06916949  0.42047274  1.00278253  1
  H  H173  1  0.43125490  0.41729764  0.99959871  1
  H  H174  1  0.32789384  0.58187570  0.50479203  1
  H  H175  1  0.88285092  0.07974981  0.98396982  1
  H  H176  1  0.06547525  0.08976673  0.50327066  1
  H  H177  1  0.09380509  0.74740471  0.99383220  1
  H  H178  1  0.95081120  0.41671408  0.49531476  1
  H  H179  1  0.91095457  0.07902905  0.50071439  1
  H  H180  1  0.91154494  0.41725651  0.99264569  1
  H  H181  1  0.43648710  0.91671846  -0.00491221  1
  H  H182  1  0.19845618  0.41750271  0.51024545  1
  H  H183  1  0.83434320  0.58291854  0.50438620  1
  H  H184  1  0.57287974  0.75084718  0.50024035  1
  H  H185  1  0.39921062  0.41737145  0.50739681  1
  H  H186  1  0.86437312  0.91034010  0.51362790  1
  H  H187  1  0.06060072  0.91349474  0.50557448  1
  H  H188  1  0.93392470  0.90400850  0.00680092  1
  H  H189  1  0.68705079  0.59270770  0.50326283  1
  H  H190  1  0.64517582  0.42015779  0.48840782  1
  H  H191  1  0.41727554  0.92183597  0.49714737  1
  Pb  Pb192  1  0.24515218  0.04633845  0.75358186  1
  Pb  Pb193  1  0.24902261  0.38099120  0.75427935  1
  Pb  Pb194  1  0.24660545  0.71343443  0.75096629  1
  Pb  Pb195  1  0.74169006  0.04949506  0.74963021  1
  Pb  Pb196  1  0.74513759  0.38258387  0.74587173  1
  Pb  Pb197  1  0.75154026  0.71321773  0.74820345  1
  Pb  Pb198  1  0.25562299  0.28436038  0.26376890  1
  Pb  Pb199  1  0.24928641  0.62104965  0.25664492  1
  Pb  Pb200  1  0.25410385  0.95093620  0.25243064  1
  Pb  Pb201  1  0.75159106  0.28628873  0.23923821  1
  Pb  Pb202  1  0.75285144  0.61764599  0.25115543  1
  Pb  Pb203  1  0.75138570  0.95452328  0.24997590  1
  Pb  Pb204  1  -0.00267233  0.21556561  0.75264897  1
  Pb  Pb205  1  0.00110225  0.54565353  0.74849381  1
  Pb  Pb206  1  -0.00310617  0.88057457  0.75905494  1
  Pb  Pb207  1  0.49434432  0.21475350  0.74564202  1
  Pb  Pb208  1  0.49676613  0.54933406  0.75532673  1
  Pb  Pb209  1  0.49774493  0.88055723  0.74674196  1
  Pb  Pb210  1  0.00548560  0.11794149  0.24332455  1
  Pb  Pb211  1  0.00534739  0.45118658  0.25270659  1
  Pb  Pb212  1  -0.00274376  0.78678664  0.24550822  1
  Pb  Pb213  1  0.50689906  0.11853570  0.26222740  1
  Pb  Pb214  1  0.50051583  0.45330811  0.24469685  1
  Pb  Pb215  1  0.50308868  0.78492385  0.24714367  1
  C  C216  1  -0.00361662  0.04564499  0.62760189  1
  C  C217  1  -0.00209611  0.38002216  0.63561707  1
  C  C218  1  -0.00052413  0.71156422  0.63303191  1
  C  C219  1  0.49701035  0.04564530  0.63200740  1
  C  C220  1  0.50164393  0.38101792  0.62758937  1
  C  C221  1  0.50430478  0.71187157  0.63381367  1
  C  C222  1  0.00261694  0.28713299  0.13437470  1
  C  C223  1  -0.00065030  0.62203813  0.13267214  1
  C  C224  1  0.00303633  0.95153812  0.12928829  1
  C  C225  1  0.50391209  0.28635328  0.12979632  1
  C  C226  1  0.49633631  0.62251986  0.13010398  1
  C  C227  1  0.50412333  0.95549598  0.13119422  1
  C  C228  1  -0.00551676  0.04633025  0.86916918  1
  C  C229  1  -0.00161276  0.38026945  0.86874883  1
  C  C230  1  0.00123094  0.71163360  0.87202976  1
  C  C231  1  0.49453313  0.04595179  0.87085901  1
  C  C232  1  0.49745036  0.37815580  0.86532479  1
  C  C233  1  0.49967617  0.71264830  0.87154756  1
  C  C234  1  0.00278331  0.28746965  0.36526612  1
  C  C235  1  0.00136198  0.62125879  0.36778467  1
  C  C236  1  0.00114255  0.95419351  0.36812014  1
  C  C237  1  0.49803939  0.28777954  0.36595525  1
  C  C238  1  0.49818438  0.62095170  0.36711661  1
  C  C239  1  0.50030415  0.95376089  0.36462216  1
  C  C240  1  0.24984007  0.21158624  0.63257013  1
  C  C241  1  0.25157419  0.54571632  0.63168314  1
  C  C242  1  0.25522579  0.87789967  0.63248956  1
  C  C243  1  0.74814386  0.21326530  0.63453167  1
  C  C244  1  0.75012324  0.54913185  0.63029526  1
  C  C245  1  0.74964575  0.87900155  0.63356771  1
  C  C246  1  0.25357028  0.12274414  0.13555992  1
  C  C247  1  0.25144193  0.45667363  0.13390192  1
  C  C248  1  0.24847412  0.78653522  0.13202303  1
  C  C249  1  0.75477086  0.11981053  0.12958209  1
  C  C250  1  0.74942721  0.45441202  0.13281035  1
  C  C251  1  0.74613727  0.78811534  0.13103927  1
  C  C252  1  0.24824454  0.21211143  0.86545177  1
  C  C253  1  0.25306208  0.54689789  0.86985241  1
  C  C254  1  0.25087385  0.87836565  0.86672964  1
  C  C255  1  0.74770874  0.21086680  0.86947721  1
  C  C256  1  0.75104892  0.54658111  0.86644164  1
  C  C257  1  0.74313537  0.87781213  0.86816365  1
  C  C258  1  0.25707832  0.11839146  0.36961863  1
  C  C259  1  0.24965161  0.45348549  0.36969910  1
  C  C260  1  0.24967902  0.78807213  0.36624054  1
  C  C261  1  0.75273105  0.12240096  0.37072293  1
  C  C262  1  0.75198675  0.45393537  0.36641532  1
  C  C263  1  0.75202295  0.78696911  0.36729194  1
  C  C264  1  0.44272971  0.59269687  0.04119428  1
  C  C265  1  0.02364927  0.26231997  0.46314356  1
  C  C266  1  0.48021214  0.26135026  0.46217232  1
  C  C267  1  0.44527117  0.07181677  0.96231969  1
  C  C268  1  0.55343838  0.93197706  0.03976887  1
  C  C269  1  0.03295162  0.40873344  0.96269879  1
  C  C270  1  0.47220133  0.74057889  0.96708673  1
  C  C271  1  0.04662187  0.73901369  0.54309857  1
  C  C272  1  0.77528847  0.42666246  0.46332111  1
  C  C273  1  0.80236347  0.09282998  0.03787948  1
  C  C274  1  0.31170776  0.43042493  0.45682636  1
  C  C275  1  0.52687060  0.41145354  0.53125359  1
  C  C276  1  0.02890361  0.58866592  0.04018939  1
  C  C277  1  0.28809477  0.24166926  0.95740036  1
  C  C278  1  0.23133830  0.42784973  0.46808038  1
  C  C279  1  0.69377318  0.42903352  0.45496979  1
  C  C280  1  0.72430813  0.57347524  0.96289256  1
  C  C281  1  0.52643975  0.07245620  0.96614319  1
  C  C282  1  0.55346034  0.73995704  0.96154243  1
  C  C283  1  0.21557357  0.57776513  0.96130421  1
  C  C284  1  0.94520844  0.92742186  0.45669096  1
  C  C285  1  0.45312131  0.26045451  0.03840649  1
  C  C286  1  0.94246572  0.26384546  0.45322807  1
  C  C287  1  0.53470408  0.25859065  0.03451484  1
  C  C288  1  0.97756282  0.26099512  0.03739675  1
  C  C289  1  0.27679577  0.08839950  0.46493538  1
  C  C290  1  0.26709231  0.90556859  0.96301133  1
  C  C291  1  0.23780254  0.09496975  0.03940319  1
  C  C292  1  0.46712509  0.40616437  0.95913228  1
  C  C293  1  0.73267202  0.90272537  0.53500993  1
  C  C294  1  0.53603347  0.73991136  0.54032239  1
  C  C295  1  0.80600254  0.57190994  0.95591885  1
  C  C296  1  0.47230646  0.92867232  0.03530703  1
  C  C297  1  0.69091768  0.24300404  0.95646908  1
  C  C298  1  0.05911106  0.26362740  0.04488659  1
  C  C299  1  0.53926047  0.93004349  0.45935717  1
  C  C300  1  0.97985039  0.40582459  0.53912496  1
  C  C301  1  0.81337940  0.90114668  0.54645279  1
  C  C302  1  0.43859265  0.07601903  0.54508083  1
  C  C303  1  0.02613016  0.92539109  0.46468216  1
  C  C304  1  0.19672093  0.76243345  0.45621873  1
  C  C305  1  0.27813712  0.76022956  0.46238448  1
  C  C306  1  0.82301061  0.09179759  0.45174552  1
  C  C307  1  0.72366403  0.42546824  0.03843567  1
  C  C308  1  0.77700673  0.75614356  0.46147036  1
  C  C309  1  0.45721276  0.93046871  0.45837036  1
  C  C310  1  0.69549996  0.75980443  0.04224255  1
  C  C311  1  0.97163196  0.74470275  0.96630274  1
  N  N312  1  0.21253886  0.57242046  0.53803900  1
  N  N313  1  0.76950240  0.24404348  0.96244974  1
  N  N314  1  0.04514236  0.92074567  0.03990300  1
  N  N315  1  0.96755674  0.74175831  0.53799409  1
  N  N316  1  0.45626201  0.59112694  0.45886079  1
  N  N317  1  0.21172836  0.23304752  0.53881314  1
  N  N318  1  0.95342524  0.40741112  0.95901961  1
  N  N319  1  0.80285939  0.42717783  0.04267350  1
  N  N320  1  0.02286660  0.59246213  0.46399977  1
  N  N321  1  0.69958461  0.75831148  0.45748092  1
  N  N322  1  0.29297409  0.57796773  0.96287076  1
  N  N323  1  0.78993065  0.90684499  0.95878130  1
  N  N324  1  0.79562384  0.23939645  0.54335642  1
  N  N325  1  0.45667542  0.74019070  0.54219748  1
  N  N326  1  0.96661663  0.93150713  0.03516289  1
  N  N327  1  0.71381291  0.90950485  0.96209907  1
  N  N328  1  0.94698168  0.59480154  0.45679395  1
  N  N329  1  0.52130003  0.59225203  0.03655267  1
  N  N330  1  0.44855432  0.40856268  0.53964888  1
  N  N331  1  0.79480579  0.56948490  0.53867671  1
  N  N332  1  0.72328777  0.09184664  0.03625602  1
  N  N333  1  0.29049065  0.57161231  0.54088756  1
  N  N334  1  0.74587486  0.08918117  0.46529080  1
  N  N335  1  0.51698065  0.07723556  0.53827714  1
  N  N336  1  0.05028410  0.74049199  0.96045706  1
  N  N337  1  0.28888010  0.42624690  0.04132199  1
  N  N338  1  0.21034160  0.24182373  0.95962062  1
  N  N339  1  0.53313825  0.59140617  0.46069649  1
  N  N340  1  0.55861644  0.26213260  0.45374380  1
  N  N341  1  0.54647561  0.40508979  0.95688388  1
  N  N342  1  0.71971735  0.24065677  0.53902043  1
  N  N343  1  0.03062172  0.06428993  0.53243724  1
  N  N344  1  0.77242215  0.75636660  0.03525233  1
  N  N345  1  0.21220930  0.42663143  0.04163051  1
  N  N346  1  0.71574730  0.56570350  0.53465632  1
  N  N347  1  0.29281756  0.23965918  0.54200238  1
  N  N348  1  0.05841574  0.40349317  0.54708709  1
  N  N349  1  0.93189925  0.06508434  0.95480018  1
  N  N350  1  0.27195031  0.75791621  0.03614446  1
  N  N351  1  0.18879657  0.90580853  0.95340481  1
  N  N352  1  0.31575473  0.09582705  0.04961116  1
  N  N353  1  0.26688973  0.90921273  0.53865458  1
  N  N354  1  0.19965319  0.09214679  0.45890039  1
  N  N355  1  0.18998861  0.90516392  0.54842197  1
  N  N356  1  0.95315228  0.07770881  0.53877790  1
  N  N357  1  0.00834368  0.07959032  0.96285260  1
  N  N358  1  0.19600691  0.75901010  0.04294246  1
  N  N359  1  0.95156952  0.59133718  0.04184444  1
  N  N360  1  0.05847767  0.05529441  0.59066376  1
  N  N361  1  0.06761543  0.38782323  0.60720760  1
  N  N362  1  0.06744901  0.72095284  0.60122622  1
  N  N363  1  0.55416497  0.05669823  0.59091862  1
  N  N364  1  0.56015644  0.39425363  0.58573946  1
  N  N365  1  0.56669249  0.72310802  0.59626265  1
  N  N366  1  0.43557098  0.27771738  0.09885318  1
  N  N367  1  0.42698838  0.61081813  0.09925894  1
  N  N368  1  0.44240926  0.94368632  0.09359748  1
  N  N369  1  0.94374506  0.27557336  0.09365717  1
  N  N370  1  0.93280223  0.61247939  0.10082188  1
  N  N371  1  0.94014556  0.93956084  0.09395563  1
  N  N372  1  0.42636604  0.05523014  0.90198097  1
  N  N373  1  0.43565317  0.39016180  0.90326618  1
  N  N374  1  0.43977001  0.72426123  0.91294387  1
  N  N375  1  0.92270538  0.05392785  0.89440187  1
  N  N376  1  0.93233403  0.39014591  0.90113438  1
  N  N377  1  0.94103259  0.72681830  0.91168929  1
  N  N378  1  0.06000556  0.27706417  0.40780100  1
  N  N379  1  0.05788956  0.60894824  0.40924895  1
  N  N380  1  0.05996942  0.94243986  0.40814006  1
  N  N381  1  0.56784552  0.27857201  0.39393430  1
  N  N382  1  0.56014333  0.60966122  0.40387503  1
  N  N383  1  0.56469323  0.94439859  0.40082799  1
  N  N384  1  0.31452349  0.21636893  0.59729712  1
  N  N385  1  0.31608602  0.55566767  0.59744501  1
  N  N386  1  0.30835905  0.89003784  0.58864533  1
  N  N387  1  0.81490595  0.22297495  0.60259927  1
  N  N388  1  0.81594746  0.55686902  0.59671577  1
  N  N389  1  0.82201390  0.88660334  0.60774492  1
  N  N390  1  0.19812961  0.11093301  0.09206414  1
  N  N391  1  0.18781753  0.44543321  0.09886098  1
  N  N392  1  0.18015005  0.77635322  0.10252991  1
  N  N393  1  0.69336535  0.10890262  0.09275727  1
  N  N394  1  0.68959271  0.44180943  0.09330345  1
  N  N395  1  0.67675598  0.77861590  0.10049002  1
  N  N396  1  0.18539876  0.22325731  0.90091934  1
  N  N397  1  0.18832076  0.55898252  0.90539568  1
  N  N398  1  0.18058194  0.88854661  0.89318586  1
  N  N399  1  0.67730123  0.22302408  0.89874279  1
  N  N400  1  0.69142264  0.55752360  0.90673022  1
  N  N401  1  0.68322378  0.89150184  0.90618564  1
  N  N402  1  0.31449527  0.10438423  0.41159672  1
  N  N403  1  0.32204041  0.44549829  0.39707713  1
  N  N404  1  0.30994863  0.77642596  0.40511580  1
  N  N405  1  0.82719053  0.11079915  0.39263487  1
  N  N406  1  0.81026452  0.44231347  0.40789325  1
  N  N407  1  0.81151051  0.77356176  0.40757948  1
  N  N408  1  0.44125325  0.27638755  0.40855525  1
  N  N409  1  0.43363392  0.60922244  0.40090256  1
  N  N410  1  0.43432605  0.94509381  0.39912390  1
  N  N411  1  0.93122736  0.27907716  0.39237660  1
  N  N412  1  0.93247871  0.61228427  0.39692860  1
  N  N413  1  0.93043842  0.94448283  0.39823809  1
  N  N414  1  0.04806773  0.05787024  0.91314405  1
  N  N415  1  0.06114982  0.39190542  0.90656042  1
  N  N416  1  0.06911530  0.71961295  0.90255382  1
  N  N417  1  0.55585694  0.05699081  0.91070649  1
  N  N418  1  0.56334523  0.38779158  0.89827189  1
  N  N419  1  0.56895424  0.72260367  0.90073757  1
  N  N420  1  0.07300722  0.27947879  0.10518656  1
  N  N421  1  0.06063344  0.60724089  0.09460414  1
  N  N422  1  0.06798446  0.94230290  0.09507860  1
  N  N423  1  0.56509782  0.27429085  0.08972618  1
  N  N424  1  0.55569171  0.61232290  0.09070247  1
  N  N425  1  0.57231191  0.94762318  0.09770854  1
  N  N426  1  0.42598572  0.05714337  0.60338724  1
  N  N427  1  0.43270443  0.39003297  0.59902508  1
  N  N428  1  0.43880507  0.72273500  0.60080465  1
  N  N429  1  0.93097385  0.05661042  0.59449243  1
  N  N430  1  0.94109903  0.39136719  0.59299580  1
  N  N431  1  0.93987339  0.72452544  0.59463269  1
  N  N432  1  0.18757651  0.11089395  0.39800503  1
  N  N433  1  0.19365774  0.44244487  0.41227123  1
  N  N434  1  0.18015902  0.77899548  0.39792736  1
  N  N435  1  0.70192620  0.11081038  0.41610074  1
  N  N436  1  0.68120856  0.44590406  0.39461555  1
  N  N437  1  0.68410485  0.77755548  0.39735931  1
  N  N438  1  0.31336568  0.22369345  0.90064770  1
  N  N439  1  0.31657632  0.55830880  0.90458869  1
  N  N440  1  0.30672665  0.88943120  0.91010805  1
  N  N441  1  0.80565935  0.22234970  0.90970121  1
  N  N442  1  0.82094682  0.55533549  0.89600405  1
  N  N443  1  0.80946278  0.88766507  0.90031261  1
  N  N444  1  0.32425192  0.11317870  0.10942631  1
  N  N445  1  0.31436551  0.44451218  0.09850605  1
  N  N446  1  0.30592759  0.77522511  0.09100296  1
  N  N447  1  0.82228564  0.10967583  0.09597159  1
  N  N448  1  0.81702712  0.44497705  0.10207915  1
  N  N449  1  0.80424087  0.77454782  0.09186580  1
  N  N450  1  0.18708685  0.22633025  0.59818419  1
  N  N451  1  0.18871946  0.55626674  0.59496254  1
  N  N452  1  0.18357153  0.88729793  0.60705587  1
  N  N453  1  0.68869419  0.22457122  0.59534099  1
  N  N454  1  0.68820711  0.55925075  0.59319697  1
  N  N455  1  0.69397788  0.88913098  0.58968299  1
  Cl  Cl456  1  0.24074353  0.05039960  0.62060854  1
  Cl  Cl457  1  0.25121174  0.38114756  0.61836160  1
  Cl  Cl458  1  0.25362143  0.71907052  0.61648856  1
  Cl  Cl459  1  0.74006283  0.06279338  0.60474560  1
  Cl  Cl460  1  0.75096193  0.39313181  0.61111673  1
  Cl  Cl461  1  0.75303630  0.71526737  0.61269948  1
  Cl  Cl462  1  0.25383343  0.28078216  0.13392920  1
  Cl  Cl463  1  0.24433443  0.61354714  0.12546702  1
  Cl  Cl464  1  0.25274779  0.94449805  0.11652317  1
  Cl  Cl465  1  0.75651575  0.27247679  0.10242019  1
  Cl  Cl466  1  0.74009956  0.61069718  0.11763930  1
  Cl  Cl467  1  0.75775868  0.95459261  0.11887336  1
  Cl  Cl468  1  0.23128145  0.05985932  0.88958209  1
  Cl  Cl469  1  0.24843468  0.38473421  0.88191602  1
  Cl  Cl470  1  0.25294833  0.71666989  0.88169647  1
  Cl  Cl471  1  0.73791956  0.05877086  0.88785077  1
  Cl  Cl472  1  0.74831624  0.38320140  0.88159297  1
  Cl  Cl473  1  0.75666063  0.72028864  0.87575789  1
  Cl  Cl474  1  0.25124727  0.27246836  0.40099908  1
  Cl  Cl475  1  0.24827450  0.61044723  0.39241787  1
  Cl  Cl476  1  0.24978837  0.94221162  0.39062574  1
  Cl  Cl477  1  0.74991756  0.28165611  0.36664255  1
  Cl  Cl478  1  0.74610860  0.61162979  0.39305881  1
  Cl  Cl479  1  0.74675220  0.94968951  0.38375726  1
  Cl  Cl480  1  0.00351151  0.21677616  0.61675918  1
  Cl  Cl481  1  0.00000875  0.55157274  0.61664143  1
  Cl  Cl482  1  0.00422592  0.88733375  0.62972724  1
  Cl  Cl483  1  0.49875561  0.22185021  0.60943466  1
  Cl  Cl484  1  0.50305548  0.54903016  0.62205322  1
  Cl  Cl485  1  0.49746299  0.89435229  0.61063652  1
  Cl  Cl486  1  0.01135042  0.10086091  0.10325861  1
  Cl  Cl487  1  0.00284417  0.44603490  0.11484965  1
  Cl  Cl488  1  -0.00655556  0.77809184  0.10877821  1
  Cl  Cl489  1  0.51142363  0.11586582  0.12950759  1
  Cl  Cl490  1  0.50045239  0.44793264  0.11013726  1
  Cl  Cl491  1  0.49150293  0.77789398  0.11151965  1
  Cl  Cl492  1  -0.00683249  0.22184204  0.88832124  1
  Cl  Cl493  1  0.00559420  0.55153124  0.88020012  1
  Cl  Cl494  1  -0.00631572  0.88679880  0.89608762  1
  Cl  Cl495  1  0.49529308  0.21860175  0.87718415  1
  Cl  Cl496  1  0.50595464  0.55964862  0.89320442  1
  Cl  Cl497  1  0.49435561  0.88900936  0.88243800  1
  Cl  Cl498  1  0.00609233  0.10958744  0.37730211  1
  Cl  Cl499  1  -0.00149235  0.44229876  0.38664773  1
  Cl  Cl500  1  -0.00375835  0.78208947  0.37637470  1
  Cl  Cl501  1  0.51377011  0.10686611  0.40176169  1
  Cl  Cl502  1  0.50103533  0.44401042  0.37645899  1
  Cl  Cl503  1  0.49861032  0.78117245  0.37929014  1
  Cl  Cl504  1  0.35935252  0.14595916  0.74371696  1
  Cl  Cl505  1  0.36415863  0.47949807  0.75040564  1
  Cl  Cl506  1  0.35977624  0.81382758  0.74885314  1
  Cl  Cl507  1  0.86486058  0.14337287  0.74688053  1
  Cl  Cl508  1  0.86377656  0.47945024  0.75184904  1
  Cl  Cl509  1  0.86409311  0.81263476  0.74575234  1
  Cl  Cl510  1  0.13804592  0.18689812  0.25562105  1
  Cl  Cl511  1  0.14075774  0.51803396  0.25308859  1
  Cl  Cl512  1  0.13339127  0.85515532  0.24729930  1
  Cl  Cl513  1  0.64277351  0.18468577  0.25156262  1
  Cl  Cl514  1  0.63539839  0.52058005  0.25655549  1
  Cl  Cl515  1  0.63704725  0.85507968  0.25059809  1
  Cl  Cl516  1  0.13928890  0.14933366  0.74981337  1
  Cl  Cl517  1  0.14385730  0.48006364  0.74559908  1
  Cl  Cl518  1  0.13724203  0.81427644  0.75418190  1
  Cl  Cl519  1  0.64503484  0.14790586  0.75237054  1
  Cl  Cl520  1  0.64623929  0.48056803  0.74961242  1
  Cl  Cl521  1  0.63912858  0.81422877  0.74774052  1
  Cl  Cl522  1  0.35863992  0.18726818  0.25292274  1
  Cl  Cl523  1  0.36377173  0.52133974  0.25651780  1
  Cl  Cl524  1  0.35524863  0.85488707  0.25098792  1
  Cl  Cl525  1  0.86342274  0.18633561  0.24985116  1
  Cl  Cl526  1  0.85574788  0.52075482  0.24667259  1
  Cl  Cl527  1  0.85863568  0.85339675  0.24795249  1
  Cl  Cl528  1  0.11376235  0.31325296  0.74654581  1
  Cl  Cl529  1  0.11018640  0.64800793  0.75024853  1
  Cl  Cl530  1  0.10658474  0.98155486  0.75432786  1
  Cl  Cl531  1  0.60868937  0.31465067  0.74955288  1
  Cl  Cl532  1  0.61499103  0.64638332  0.75446741  1
  Cl  Cl533  1  0.60798831  0.98313551  0.74889549  1
  Cl  Cl534  1  0.38664846  0.02239175  0.25242720  1
  Cl  Cl535  1  0.38976433  0.35249380  0.25037548  1
  Cl  Cl536  1  0.38669722  0.68702834  0.24669518  1
  Cl  Cl537  1  0.88856304  0.02096818  0.25242962  1
  Cl  Cl538  1  0.88736796  0.35409147  0.24795060  1
  Cl  Cl539  1  0.88381425  0.68658325  0.24739688  1
  Cl  Cl540  1  0.39092644  0.31110693  0.74010304  1
  Cl  Cl541  1  0.39699191  0.64721445  0.74849565  1
  Cl  Cl542  1  0.38640569  0.98202605  0.75069737  1
  Cl  Cl543  1  0.89444214  0.31414533  0.75449983  1
  Cl  Cl544  1  0.88999428  0.64577225  0.74967039  1
  Cl  Cl545  1  0.88920862  0.97991620  0.75359792  1
  Cl  Cl546  1  0.10484070  0.01944093  0.24673411  1
  Cl  Cl547  1  0.10776356  0.35360124  0.24808023  1
  Cl  Cl548  1  0.10795065  0.68658095  0.25015278  1
  Cl  Cl549  1  0.60600009  0.01859429  0.24961350  1
  Cl  Cl550  1  0.61199916  0.35211943  0.24716436  1
  Cl  Cl551  1  0.60574123  0.68942768  0.25049948  1
