# generated using pymatgen
data_H8PbC4(N3Cl2)2
_symmetry_space_group_name_H-M   'P 1'
_cell_length_a   16.63058480
_cell_length_b   22.52203069
_cell_length_c   21.59733408
_cell_angle_alpha   89.99881107
_cell_angle_beta   89.97017322
_cell_angle_gamma   89.99527181
_symmetry_Int_Tables_number   1
_chemical_formula_structural   H8PbC4(N3Cl2)2
_chemical_formula_sum   'H192 Pb24 C96 N144 Cl96'
_cell_volume   8089.37843412
_cell_formula_units_Z   24
loop_
 _symmetry_equiv_pos_site_id
 _symmetry_equiv_pos_as_xyz
  1  'x, y, z'
loop_
 _atom_site_type_symbol
 _atom_site_label
 _atom_site_symmetry_multiplicity
 _atom_site_fract_x
 _atom_site_fract_y
 _atom_site_fract_z
 _atom_site_occupancy
  H  H0  1  0.00974382  0.02867344  0.68048152  1
  H  H1  1  -0.01657330  0.36350656  0.68147043  1
  H  H2  1  0.01753368  0.69728992  0.67475862  1
  H  H3  1  0.48866895  0.03111434  0.67862102  1
  H  H4  1  0.51539628  0.36358316  0.68122839  1
  H  H5  1  0.48232388  0.69575156  0.68034861  1
  H  H6  1  -0.01338408  0.30582902  0.17458347  1
  H  H7  1  -0.00087773  0.63647647  0.17100882  1
  H  H8  1  -0.00077579  0.97104736  0.17824617  1
  H  H9  1  0.50148139  0.30630816  0.17882242  1
  H  H10  1  0.50509354  0.64348826  0.17941653  1
  H  H11  1  0.49648056  0.97076602  0.17944883  1
  H  H12  1  0.00804923  0.02989813  0.82174173  1
  H  H13  1  -0.01107602  0.35939163  0.82447251  1
  H  H14  1  0.01039091  0.69448855  0.82423718  1
  H  H15  1  0.50339432  0.02427398  0.82228727  1
  H  H16  1  0.49757298  0.35976786  0.82588611  1
  H  H17  1  0.49931621  0.69669231  0.82238518  1
  H  H18  1  -0.00667338  0.30247081  0.31847921  1
  H  H19  1  -0.00349559  0.63622618  0.32055496  1
  H  H20  1  -0.00183506  0.97547186  0.32575139  1
  H  H21  1  0.50930717  0.30168934  0.32224421  1
  H  H22  1  0.49497463  0.63563115  0.31769308  1
  H  H23  1  0.47576722  0.97009802  0.34505107  1
  H  H24  1  0.23884791  0.19391982  0.67513185  1
  H  H25  1  0.25591647  0.52974787  0.67942432  1
  H  H26  1  0.27757556  0.87025007  0.65843855  1
  H  H27  1  0.76745197  0.19453920  0.67821314  1
  H  H28  1  0.74698266  0.53158603  0.68542940  1
  H  H29  1  0.75159598  0.85924165  0.67454900  1
  H  H30  1  0.24775045  0.13623645  0.18260785  1
  H  H31  1  0.25182207  0.47003681  0.17929838  1
  H  H32  1  0.24305312  0.80419084  0.18173635  1
  H  H33  1  0.75087199  0.13860196  0.17610068  1
  H  H34  1  0.74399497  0.46885736  0.17275032  1
  H  H35  1  0.74841647  0.80343707  0.17945154  1
  H  H36  1  0.25400994  0.19621308  0.82477666  1
  H  H37  1  0.26982396  0.52889974  0.82531851  1
  H  H38  1  0.25817428  0.86482825  0.81886631  1
  H  H39  1  0.74732590  0.19477373  0.82248407  1
  H  H40  1  0.73002228  0.52451886  0.82370549  1
  H  H41  1  0.75705024  0.86087714  0.81792381  1
  H  H42  1  0.25217973  0.14350295  0.32541212  1
  H  H43  1  0.25061645  0.46961557  0.32077506  1
  H  H44  1  0.25911374  0.80676284  0.31849700  1
  H  H45  1  0.74692038  0.13653225  0.31973563  1
  H  H46  1  0.74731802  0.46873271  0.31623649  1
  H  H47  1  0.74420962  0.80402359  0.32452791  1
  H  H48  1  0.12579644  0.05679936  0.60210064  1
  H  H49  1  0.12477429  0.38137818  0.62769887  1
  H  H50  1  0.11360381  0.73177105  0.58696678  1
  H  H51  1  0.62317457  0.05133695  0.61680256  1
  H  H52  1  0.62263157  0.38887527  0.59761176  1
  H  H53  1  0.62139434  0.71651321  0.62355300  1
  H  H54  1  0.37710336  0.28055504  0.10954764  1
  H  H55  1  0.37779613  0.61417998  0.11528684  1
  H  H56  1  0.38483940  0.94474481  0.10032848  1
  H  H57  1  0.88020592  0.27682846  0.09119193  1
  H  H58  1  0.87607061  0.60751334  0.10282920  1
  H  H59  1  0.88448890  0.94026093  0.10266834  1
  H  H60  1  0.37172290  0.05076740  0.88436308  1
  H  H61  1  0.37731094  0.38809140  0.89811678  1
  H  H62  1  0.37423173  0.72123093  0.88856545  1
  H  H63  1  0.86708266  0.05050732  0.87442793  1
  H  H64  1  0.87582673  0.39140510  0.90075086  1
  H  H65  1  0.87068720  0.71222530  0.87902459  1
  H  H66  1  0.12947258  0.28029401  0.37752083  1
  H  H67  1  0.13026486  0.61362745  0.38236910  1
  H  H68  1  0.10888519  0.94699976  0.40582060  1
  H  H69  1  0.62266554  0.27518827  0.39984401  1
  H  H70  1  0.63047761  0.61793155  0.37538716  1
  H  H71  1  0.58286080  0.93389795  0.42471806  1
  H  H72  1  0.37613929  0.21459008  0.61905757  1
  H  H73  1  0.36565590  0.55531221  0.59925127  1
  H  H74  1  0.41254327  0.89122870  0.60150322  1
  H  H75  1  0.86974341  0.22521772  0.59180068  1
  H  H76  1  0.86715974  0.55582515  0.60920591  1
  H  H77  1  0.88860984  0.88541054  0.61931405  1
  H  H78  1  0.13394659  0.11106388  0.10542272  1
  H  H79  1  0.12352058  0.44726513  0.11230450  1
  H  H80  1  0.13473063  0.77565867  0.09999434  1
  H  H81  1  0.63639474  0.10974602  0.09815314  1
  H  H82  1  0.62363743  0.44418445  0.10185365  1
  H  H83  1  0.63496289  0.77669532  0.09923459  1
  H  H84  1  0.12210509  0.22058749  0.88565345  1
  H  H85  1  0.12316680  0.54618706  0.86614976  1
  H  H86  1  0.11984446  0.88239605  0.87303004  1
  H  H87  1  0.62350289  0.22136845  0.89301414  1
  H  H88  1  0.63216232  0.55566740  0.91067809  1
  H  H89  1  0.62122230  0.88165146  0.87874887  1
  H  H90  1  0.37462412  0.11127103  0.39340632  1
  H  H91  1  0.37395116  0.44462368  0.39256787  1
  H  H92  1  0.37967853  0.78022983  0.39228942  1
  H  H93  1  0.87247240  0.11279782  0.38714568  1
  H  H94  1  0.87337078  0.44875138  0.38468884  1
  H  H95  1  0.87843654  0.78128860  0.38576261  1
  H  H96  1  0.37504462  0.28138327  0.38043608  1
  H  H97  1  0.38307385  0.61111020  0.39669309  1
  H  H98  1  0.33631201  0.94844152  0.39775261  1
  H  H99  1  0.88200180  0.27518141  0.39901066  1
  H  H100  1  0.88225685  0.60993441  0.39819207  1
  H  H101  1  0.86414972  0.94480176  0.38273807  1
  H  H102  1  0.11263943  0.05923328  0.90466508  1
  H  H103  1  0.12336582  0.38401111  0.88410725  1
  H  H104  1  0.11546699  0.72782306  0.90580640  1
  H  H105  1  0.61872318  0.05492063  0.89937711  1
  H  H106  1  0.62615576  0.38770305  0.89080527  1
  H  H107  1  0.62314430  0.71891852  0.89289067  1
  H  H108  1  0.12506179  0.28315238  0.11873480  1
  H  H109  1  0.12425018  0.60877275  0.10323173  1
  H  H110  1  0.13241871  0.94861009  0.11556958  1
  H  H111  1  0.62595364  0.28146253  0.10838760  1
  H  H112  1  0.62677350  0.61260509  0.10823380  1
  H  H113  1  0.63136313  0.95118466  0.12330241  1
  H  H114  1  0.37559918  0.05993501  0.60085856  1
  H  H115  1  0.37607382  0.38328908  0.62441489  1
  H  H116  1  0.37463127  0.72500024  0.59771376  1
  H  H117  1  0.87784096  0.05042021  0.61526282  1
  H  H118  1  0.87973408  0.39033504  0.59610074  1
  H  H119  1  0.87281669  0.71588510  0.63056028  1
  H  H120  1  0.12583231  0.11435588  0.39207004  1
  H  H121  1  0.12505765  0.44388682  0.38972592  1
  H  H122  1  0.13047740  0.78046315  0.38269592  1
  H  H123  1  0.62319599  0.11151071  0.38843934  1
  H  H124  1  0.62370436  0.44792045  0.38686004  1
  H  H125  1  0.63180126  0.77677328  0.40462256  1
  H  H126  1  0.37052845  0.22423223  0.90091658  1
  H  H127  1  0.36125307  0.56209539  0.91617820  1
  H  H128  1  0.36633044  0.88969191  0.90050645  1
  H  H129  1  0.87260388  0.22326357  0.89057855  1
  H  H130  1  0.87450626  0.54671313  0.86953443  1
  H  H131  1  0.86880355  0.88923389  0.89664953  1
  H  H132  1  0.38173145  0.11682701  0.12330464  1
  H  H133  1  0.37273383  0.44383038  0.10546296  1
  H  H134  1  0.38142621  0.78433424  0.12373772  1
  H  H135  1  0.88415253  0.11560841  0.11581896  1
  H  H136  1  0.87227102  0.44643344  0.10917738  1
  H  H137  1  0.88195403  0.77972648  0.11612320  1
  H  H138  1  0.13034533  0.22381628  0.59274234  1
  H  H139  1  0.11867266  0.55295463  0.62255607  1
  H  H140  1  0.16495194  0.89776019  0.58066411  1
  H  H141  1  0.62628951  0.21399005  0.62566724  1
  H  H142  1  0.61899168  0.55392214  0.61642440  1
  H  H143  1  0.64460546  0.89082725  0.59223950  1
  H  H144  1  0.83023441  0.42719294  0.49840165  1
  H  H145  1  0.88415748  0.07931696  0.98476214  1
  H  H146  1  0.67413387  0.25690218  0.99889855  1
  H  H147  1  0.57215842  0.59029052  0.00245913  1
  H  H148  1  0.84527970  0.75303295  0.49450703  1
  H  H149  1  0.71884680  0.91673279  0.49142437  1
  H  H150  1  0.08128784  0.57986141  -0.00300223  1
  H  H151  1  0.60733943  0.91734731  1.00956742  1
  H  H152  1  0.31130400  0.25432096  1.00225238  1
  H  H153  1  0.32252840  0.76206929  0.49855799  1
  H  H154  1  0.03816903  0.91790569  0.50751782  1
  H  H155  1  0.02804519  0.75317233  0.48960983  1
  H  H156  1  0.35513394  0.08562654  0.01120859  1
  H  H157  1  0.83135638  0.08205594  0.49731413  1
  H  H158  1  0.20557968  0.75001398  -0.00461118  1
  H  H159  1  0.78834878  0.24991759  0.49402215  1
  H  H160  1  0.55340797  0.08430255  1.00074713  1
  H  H161  1  0.39879268  0.25054730  0.49345523  1
  H  H162  1  0.16659736  0.41548024  0.00332513  1
  H  H163  1  0.29829153  0.58115804  0.49182171  1
  H  H164  1  0.94459341  0.57839608  0.50349314  1
  H  H165  1  0.95078382  0.24468803  0.50299806  1
  H  H166  1  0.60684113  0.58788148  0.48829073  1
  H  H167  1  0.80187078  0.91964300  1.00189597  1
  H  H168  1  0.22431438  0.93006688  0.47446281  1
  H  H169  1  0.66650794  0.08322487  0.49882050  1
  H  H170  1  0.41945040  0.57929941  0.00573887  1
  H  H171  1  0.44852891  0.75080893  0.49375678  1
  H  H172  1  0.03934918  0.08850502  1.00822964  1
  H  H173  1  0.95725110  0.41803537  0.49373249  1
  H  H174  1  0.86591282  0.57197631  0.97986280  1
  H  H175  1  0.56347506  0.24505662  0.50608415  1
  H  H176  1  0.17018405  0.75136275  0.49456342  1
  H  H177  1  0.17249845  0.41114008  0.49765294  1
  H  H178  1  0.44632751  0.58286269  0.50425726  1
  H  H179  1  0.03852459  0.74613179  1.00644784  1
  H  H180  1  0.41601134  0.75582660  0.99925665  1
  H  H181  1  0.29866946  0.91705639  1.00638942  1
  H  H182  1  0.51220135  0.91210126  0.52728982  1
  H  H183  1  0.19457786  0.08080923  -0.00233039  1
  H  H184  1  0.54823691  0.41609582  0.49358408  1
  H  H185  1  0.14433507  0.57946935  0.51398484  1
  H  H186  1  0.27137499  0.58377811  1.01108018  1
  H  H187  1  0.89223513  0.75276069  0.98335560  1
  H  H188  1  0.71306401  0.58195063  1.01179252  1
  H  H189  1  0.10154321  0.25499379  0.01057720  1
  H  H190  1  0.13872985  0.91082341  -0.01290464  1
  H  H191  1  0.67055879  0.42694888  0.49999503  1
  Pb  Pb192  1  0.24692886  0.04761870  0.75192132  1
  Pb  Pb193  1  0.24951089  0.38028967  0.75493695  1
  Pb  Pb194  1  0.24986209  0.71941775  0.74703321  1
  Pb  Pb195  1  0.74997994  0.05026817  0.74892770  1
  Pb  Pb196  1  0.74870368  0.38129641  0.74338535  1
  Pb  Pb197  1  0.74629249  0.71294302  0.75267890  1
  Pb  Pb198  1  0.25372985  0.28506034  0.24108678  1
  Pb  Pb199  1  0.25797784  0.61682283  0.24896560  1
  Pb  Pb200  1  0.25333004  0.95373112  0.24340991  1
  Pb  Pb201  1  0.75678414  0.28363529  0.25257299  1
  Pb  Pb202  1  0.75484875  0.61854562  0.24802194  1
  Pb  Pb203  1  0.75228099  0.95179232  0.25523414  1
  Pb  Pb204  1  0.00225512  0.21571309  0.74313149  1
  Pb  Pb205  1  -0.00222849  0.54815354  0.74628171  1
  Pb  Pb206  1  -0.00036849  0.88108002  0.74281115  1
  Pb  Pb207  1  0.49710959  0.21418513  0.75531922  1
  Pb  Pb208  1  0.49595612  0.54820345  0.75950740  1
  Pb  Pb209  1  0.50206075  0.88271370  0.75321371  1
  Pb  Pb210  1  0.00413048  0.11885652  0.24859093  1
  Pb  Pb211  1  0.00294385  0.45228434  0.25117610  1
  Pb  Pb212  1  0.00643225  0.78353064  0.24718251  1
  Pb  Pb213  1  0.50559638  0.11728749  0.24391943  1
  Pb  Pb214  1  0.50585224  0.45029876  0.24993043  1
  Pb  Pb215  1  0.50639010  0.78663967  0.25353288  1
  C  C216  1  0.00452710  0.04423696  0.63309279  1
  C  C217  1  -0.00374082  0.37840032  0.63465598  1
  C  C218  1  0.00156425  0.71336641  0.62894740  1
  C  C219  1  0.49624448  0.04687203  0.63173152  1
  C  C220  1  0.50450104  0.37850406  0.63423931  1
  C  C221  1  0.49292995  0.71182943  0.63369187  1
  C  C222  1  -0.00220749  0.28944111  0.12814729  1
  C  C223  1  0.00032680  0.61860551  0.12434844  1
  C  C224  1  0.00584381  0.95375450  0.13191063  1
  C  C225  1  0.50162324  0.29002881  0.13181155  1
  C  C226  1  0.50376183  0.62525777  0.13278781  1
  C  C227  1  0.50510169  0.95575218  0.13231224  1
  C  C228  1  -0.00496311  0.04576061  0.86826916  1
  C  C229  1  -0.00358623  0.37771468  0.87036338  1
  C  C230  1  -0.00154555  0.71166173  0.87047964  1
  C  C231  1  0.49828784  0.04208281  0.86877528  1
  C  C232  1  0.50055623  0.37817309  0.87202608  1
  C  C233  1  0.49831814  0.71281318  0.86959950  1
  C  C234  1  0.00182043  0.28677577  0.36548787  1
  C  C235  1  0.00335684  0.62023429  0.36772192  1
  C  C236  1  -0.00957180  0.95746213  0.37190194  1
  C  C237  1  0.50211154  0.28631612  0.36964680  1
  C  C238  1  0.50324186  0.62125771  0.36529844  1
  C  C239  1  0.46541985  0.95220043  0.39112714  1
  C  C240  1  0.24808302  0.21019748  0.62858045  1
  C  C241  1  0.24597460  0.54553353  0.63244525  1
  C  C242  1  0.28530415  0.88577493  0.61112425  1
  C  C243  1  0.75474690  0.21026131  0.63168509  1
  C  C244  1  0.74445447  0.54615405  0.63750498  1
  C  C245  1  0.76134761  0.87680890  0.62848746  1
  C  C246  1  0.25489290  0.12109525  0.13518138  1
  C  C247  1  0.24935689  0.45339957  0.13219149  1
  C  C248  1  0.25338046  0.78847449  0.13487014  1
  C  C249  1  0.75708146  0.12179053  0.12942468  1
  C  C250  1  0.74679210  0.45261507  0.12538996  1
  C  C251  1  0.75522983  0.78794380  0.13208413  1
  C  C252  1  0.24918659  0.21345436  0.87153999  1
  C  C253  1  0.25156529  0.54433641  0.87086830  1
  C  C254  1  0.24756173  0.87880605  0.86636106  1
  C  C255  1  0.74777938  0.21271046  0.86903317  1
  C  C256  1  0.74657598  0.54068119  0.86951409  1
  C  C257  1  0.74867828  0.87660073  0.86501811  1
  C  C258  1  0.25065105  0.12402862  0.37108304  1
  C  C259  1  0.24988702  0.45327048  0.36797056  1
  C  C260  1  0.25688823  0.79027362  0.36581611  1
  C  C261  1  0.74758919  0.12039853  0.36715750  1
  C  C262  1  0.74822791  0.45505406  0.36446787  1
  C  C263  1  0.75201333  0.78808302  0.37147323  1
  C  C264  1  0.55992093  0.59701631  0.45442632  1
  C  C265  1  0.40413794  0.92346722  0.47681708  1
  C  C266  1  0.46377931  0.26000358  0.03991663  1
  C  C267  1  0.47963912  0.92602620  0.03700688  1
  C  C268  1  0.52078310  0.40619452  0.53819613  1
  C  C269  1  0.17526833  0.57007521  0.95058411  1
  C  C270  1  0.34107634  0.91227080  0.52143122  1
  C  C271  1  0.56061702  0.92763251  0.04354888  1
  C  C272  1  0.26903578  0.57244800  0.53597032  1
  C  C273  1  0.52856083  0.25750250  0.46558641  1
  C  C274  1  0.01195038  0.07610690  0.96425289  1
  C  C275  1  0.45881704  0.59225171  0.04355243  1
  C  C276  1  0.47657016  0.74010337  0.53791196  1
  C  C277  1  0.80651205  0.09284022  0.04070633  1
  C  C278  1  0.21203908  0.42352514  0.45955314  1
  C  C279  1  0.97814709  0.59086999  0.46208468  1
  C  C280  1  0.30925408  0.09504157  0.04575444  1
  C  C281  1  0.25853214  0.91573982  0.51489459  1
  C  C282  1  0.71204028  0.42196713  0.03379415  1
  C  C283  1  0.98365369  0.40673777  0.53842038  1
  C  C284  1  0.19693385  0.24296671  0.96103417  1
  C  C285  1  0.46832132  0.41299690  0.96296682  1
  C  C286  1  0.71249243  0.24441786  0.96030336  1
  C  C287  1  0.47152448  0.07834144  0.53771367  1
  C  C288  1  0.70874852  0.43416179  0.45982045  1
  C  C289  1  0.18697699  0.90261067  0.95396065  1
  C  C290  1  0.95952082  0.58689603  0.03191865  1
  C  C291  1  0.47845944  0.59449829  0.46215399  1
  C  C292  1  0.97909086  0.91972246  0.03903075  1
  C  C293  1  0.73717558  0.57004571  0.96653956  1
  C  C294  1  0.28575236  0.08803523  0.46086542  1
  C  C295  1  0.30378980  0.23860693  0.54173162  1
  C  C296  1  0.44686013  0.25996193  0.45913279  1
  C  C297  1  0.21030145  0.76137425  0.45612213  1
  C  C298  1  0.77084553  0.90682818  0.95955839  1
  C  C299  1  0.26801441  0.90534985  0.96369773  1
  C  C300  1  0.45703679  0.74366351  0.96207282  1
  C  C301  1  0.78965402  0.09303439  0.46023716  1
  C  C302  1  0.23518090  0.76100375  0.03898158  1
  C  C303  1  0.79229276  0.42273775  0.03630388  1
  C  C304  1  0.53841145  0.74273034  0.96163966  1
  C  C305  1  0.92939436  0.74024774  0.54749671  1
  C  C306  1  0.98126875  0.25698949  0.46017282  1
  C  C307  1  0.79071828  0.43448207  0.45908639  1
  C  C308  1  0.22762390  0.09291804  0.03923261  1
  C  C309  1  0.20791264  0.42558147  0.04101246  1
  C  C310  1  0.97178687  0.41337046  0.96275308  1
  C  C311  1  0.70738729  0.09328151  0.46080588  1
  N  N312  1  0.77756812  0.57190368  0.54240073  1
  N  N313  1  0.29125463  0.42448969  0.46117381  1
  N  N314  1  0.97702905  0.25877042  0.03244781  1
  N  N315  1  0.27608406  0.24423964  0.96472086  1
  N  N316  1  0.69219727  0.90393739  0.95339278  1
  N  N317  1  0.03247587  0.07442511  0.53851488  1
  N  N318  1  0.82179924  0.90771144  0.54344841  1
  N  N319  1  0.04917060  0.41121461  0.95862841  1
  N  N320  1  0.05415207  0.26122899  0.04317030  1
  N  N321  1  0.28996481  0.76090189  0.45837101  1
  N  N322  1  0.25132415  0.57569872  0.96632599  1
  N  N323  1  0.70148377  0.57085205  0.54467805  1
  N  N324  1  0.44266661  0.40556507  0.54765556  1
  N  N325  1  0.01137613  0.92407502  0.46408369  1
  N  N326  1  0.68878150  0.23811458  0.54820518  1
  N  N327  1  0.54557405  0.41302195  0.96192117  1
  N  N328  1  0.05994753  0.25853177  0.45332139  1
  N  N329  1  0.44545652  0.07277278  0.95664942  1
  N  N330  1  0.00617609  0.74537755  0.53385448  1
  N  N331  1  0.93414376  0.92298638  0.45715804  1
  N  N332  1  0.80145451  0.76052610  0.45907362  1
  N  N333  1  0.54148901  0.26008440  0.03838267  1
  N  N334  1  0.01527855  0.74894873  0.96222123  1
  N  N335  1  0.72395715  0.75868985  0.46636571  1
  N  N336  1  0.20837722  0.08818204  0.46147250  1
  N  N337  1  0.06155279  0.40433363  0.54902388  1
  N  N338  1  0.53841881  0.59207689  0.04207503  1
  N  N339  1  0.19042665  0.57341932  0.54592542  1
  N  N340  1  0.48390024  0.91622004  0.48406463  1
  N  N341  1  0.52321691  0.07522687  0.96031293  1
  N  N342  1  0.55482648  0.73842014  0.54679708  1
  N  N343  1  0.28725803  0.42416050  0.03831812  1
  N  N344  1  0.76556605  0.24210395  0.53801477  1
  N  N345  1  0.80557014  0.76310601  0.04142437  1
  N  N346  1  0.93822096  0.73566729  0.95563023  1
  N  N347  1  0.72931756  0.09006581  0.03405680  1
  N  N348  1  0.79172392  0.24575175  0.95993864  1
  N  N349  1  0.81431470  0.56665873  0.95143038  1
  N  N350  1  0.54881265  0.07519996  0.54143454  1
  N  N351  1  0.95622510  0.07244289  0.54277703  1
  N  N352  1  0.05625118  0.92286447  0.04253739  1
  N  N353  1  0.74484279  0.90930193  0.53544489  1
  N  N354  1  0.03879388  0.58828869  0.03296417  1
  N  N355  1  0.05719857  0.59259378  0.45722272  1
  N  N356  1  0.31354764  0.76385760  0.04685467  1
  N  N357  1  0.22745734  0.24221355  0.53192527  1
  N  N358  1  0.72935820  0.76040792  0.03622765  1
  N  N359  1  0.93382497  0.07312759  0.95278569  1
  N  N360  1  0.06384510  0.05706436  0.59426398  1
  N  N361  1  0.06756159  0.38687861  0.60900094  1
  N  N362  1  0.05179394  0.72584708  0.58334718  1
  N  N363  1  0.56420918  0.05536752  0.60149744  1
  N  N364  1  0.56065358  0.39003513  0.59109222  1
  N  N365  1  0.56316769  0.72104901  0.60632447  1
  N  N366  1  0.43694568  0.27772645  0.09645593  1
  N  N367  1  0.43702864  0.61146600  0.10027497  1
  N  N368  1  0.44630645  0.94291040  0.09054091  1
  N  N369  1  0.94229779  0.27586975  0.08587249  1
  N  N370  1  0.93570340  0.60526696  0.08873302  1
  N  N371  1  0.94592623  0.93847708  0.09288928  1
  N  N372  1  0.43052756  0.05393127  0.89915001  1
  N  N373  1  0.43777951  0.39222825  0.90887551  1
  N  N374  1  0.43309943  0.72470229  0.90346859  1
  N  N375  1  0.92389722  0.05324253  0.89412486  1
  N  N376  1  0.93714309  0.39338483  0.90995740  1
  N  N377  1  0.92744964  0.72222899  0.89583927  1
  N  N378  1  0.07087196  0.27708942  0.39435236  1
  N  N379  1  0.07130194  0.61058360  0.39785166  1
  N  N380  1  0.04701126  0.94731859  0.41353252  1
  N  N381  1  0.56165104  0.27398794  0.40955127  1
  N  N382  1  0.57363765  0.61327928  0.39422250  1
  N  N383  1  0.52106164  0.93876211  0.43271344  1
  N  N384  1  0.31910913  0.21979171  0.60047273  1
  N  N385  1  0.30405139  0.55626459  0.58992414  1
  N  N386  1  0.35537933  0.89340918  0.58218201  1
  N  N387  1  0.80730231  0.22266606  0.58759310  1
  N  N388  1  0.80564328  0.55655036  0.59982815  1
  N  N389  1  0.83183047  0.88914007  0.60191203  1
  N  N390  1  0.19516666  0.10925343  0.09524977  1
  N  N391  1  0.18323888  0.44309264  0.09847469  1
  N  N392  1  0.19677433  0.77558314  0.09273625  1
  N  N393  1  0.69871326  0.10883528  0.09053902  1
  N  N394  1  0.68349338  0.44014944  0.08810007  1
  N  N395  1  0.69692860  0.77616212  0.09201314  1
  N  N396  1  0.18029025  0.22467555  0.90295623  1
  N  N397  1  0.17542461  0.55227866  0.89100748  1
  N  N398  1  0.17585847  0.88658091  0.89348773  1
  N  N399  1  0.68385675  0.22428219  0.90488428  1
  N  N400  1  0.69458408  0.55453563  0.91552222  1
  N  N401  1  0.67988110  0.88509482  0.89446292  1
  N  N402  1  0.31452514  0.10904501  0.40626148  1
  N  N403  1  0.31301727  0.44285702  0.40379952  1
  N  N404  1  0.31852751  0.78234306  0.40367026  1
  N  N405  1  0.81303513  0.10979072  0.40162604  1
  N  N406  1  0.81390743  0.44710585  0.39948934  1
  N  N407  1  0.81995228  0.77921701  0.40175323  1
  N  N408  1  0.43241043  0.27763729  0.39919573  1
  N  N409  1  0.44446771  0.60977235  0.40616872  1
  N  N410  1  0.39326069  0.94308929  0.41751079  1
  N  N411  1  0.94394395  0.27429799  0.40682883  1
  N  N412  1  0.94384635  0.60780391  0.40760492  1
  N  N413  1  0.92147479  0.94231380  0.39920894  1
  N  N414  1  0.05047671  0.05960835  0.91176421  1
  N  N415  1  0.06447343  0.38898765  0.89940659  1
  N  N416  1  0.05330344  0.72438062  0.91303771  1
  N  N417  1  0.55695202  0.05455102  0.90789459  1
  N  N418  1  0.56596682  0.39082854  0.90408485  1
  N  N419  1  0.56314853  0.72431238  0.90588599  1
  N  N420  1  0.06773058  0.28078435  0.10081702  1
  N  N421  1  0.06424802  0.60891354  0.08975177  1
  N  N422  1  0.07331628  0.94407974  0.10126339  1
  N  N423  1  0.56515659  0.27926823  0.09679380  1
  N  N424  1  0.56603061  0.61550420  0.09605153  1
  N  N425  1  0.57504236  0.94617699  0.10385259  1
  N  N426  1  0.43693036  0.06097413  0.59155906  1
  N  N427  1  0.43426008  0.38828571  0.60728042  1
  N  N428  1  0.43668256  0.72435636  0.59102510  1
  N  N429  1  0.93760276  0.05380726  0.60142772  1
  N  N430  1  0.94205511  0.39118359  0.59063103  1
  N  N431  1  0.92634721  0.72193845  0.60690144  1
  N  N432  1  0.18627598  0.11122796  0.40436873  1
  N  N433  1  0.18506805  0.44116314  0.40264453  1
  N  N434  1  0.18957536  0.77795932  0.39827654  1
  N  N435  1  0.68288595  0.11002530  0.40267366  1
  N  N436  1  0.68369005  0.44663965  0.40067363  1
  N  N437  1  0.69348375  0.77502842  0.41148005  1
  N  N438  1  0.30876987  0.22526363  0.90986590  1
  N  N439  1  0.29949498  0.55686791  0.91785984  1
  N  N440  1  0.30447328  0.89030627  0.90877428  1
  N  N441  1  0.81201228  0.22604215  0.90267897  1
  N  N442  1  0.81954263  0.54695015  0.89240688  1
  N  N443  1  0.80695753  0.89036354  0.90552812  1
  N  N444  1  0.32459370  0.11228674  0.10537972  1
  N  N445  1  0.31121250  0.44119062  0.09555593  1
  N  N446  1  0.32317486  0.78080109  0.10673593  1
  N  N447  1  0.82621894  0.11130770  0.09903271  1
  N  N448  1  0.81412165  0.44124587  0.09226408  1
  N  N449  1  0.82289055  0.77957585  0.10103407  1
  N  N450  1  0.19233810  0.22364681  0.58744421  1
  N  N451  1  0.17658921  0.55614973  0.60513616  1
  N  N452  1  0.22643728  0.89874804  0.57075329  1
  N  N453  1  0.68288279  0.22015339  0.60688055  1
  N  N454  1  0.67927247  0.55484364  0.60338216  1
  N  N455  1  0.70660375  0.88813588  0.58576488  1
  Cl  Cl456  1  0.24969515  0.05613953  0.61906484  1
  Cl  Cl457  1  0.25024114  0.38453629  0.62456893  1
  Cl  Cl458  1  0.24653475  0.73198713  0.59997256  1
  Cl  Cl459  1  0.75115764  0.05258132  0.61459527  1
  Cl  Cl460  1  0.75192209  0.38925628  0.60644545  1
  Cl  Cl461  1  0.74671367  0.71941190  0.62230498  1
  Cl  Cl462  1  0.25206874  0.27436008  0.10478617  1
  Cl  Cl463  1  0.25227648  0.60600068  0.10637783  1
  Cl  Cl464  1  0.26187139  0.94476145  0.11271697  1
  Cl  Cl465  1  0.75330516  0.27918128  0.11893463  1
  Cl  Cl466  1  0.74985925  0.60678168  0.11096441  1
  Cl  Cl467  1  0.76558472  0.94327471  0.12148592  1
  Cl  Cl468  1  0.23900882  0.05888074  0.88710956  1
  Cl  Cl469  1  0.25106263  0.38454511  0.88714663  1
  Cl  Cl470  1  0.23593077  0.72365828  0.88326876  1
  Cl  Cl471  1  0.73985684  0.05283258  0.88054035  1
  Cl  Cl472  1  0.75157374  0.38932172  0.87534960  1
  Cl  Cl473  1  0.74689703  0.71038000  0.88423024  1
  Cl  Cl474  1  0.25236062  0.27954464  0.36770510  1
  Cl  Cl475  1  0.25858304  0.61333191  0.38465063  1
  Cl  Cl476  1  0.22069913  0.94898505  0.37588511  1
  Cl  Cl477  1  0.75742529  0.27283022  0.39448869  1
  Cl  Cl478  1  0.76105930  0.61500632  0.37609809  1
  Cl  Cl479  1  0.70744798  0.93526787  0.40065652  1
  Cl  Cl480  1  -0.00734705  0.22674646  0.60695504  1
  Cl  Cl481  1  -0.00930018  0.55761675  0.61132043  1
  Cl  Cl482  1  0.03840367  0.89356443  0.60131194  1
  Cl  Cl483  1  0.49972120  0.21603637  0.62202944  1
  Cl  Cl484  1  0.48968652  0.55681015  0.62403507  1
  Cl  Cl485  1  0.53203024  0.89186077  0.61612073  1
  Cl  Cl486  1  0.01047140  0.11144058  0.11183058  1
  Cl  Cl487  1  -0.00047092  0.45105057  0.12039709  1
  Cl  Cl488  1  0.01077072  0.77087299  0.10660275  1
  Cl  Cl489  1  0.51478838  0.10872587  0.10654921  1
  Cl  Cl490  1  0.49644707  0.44967488  0.11839151  1
  Cl  Cl491  1  0.51064652  0.77823828  0.12097655  1
  Cl  Cl492  1  -0.00104066  0.21901376  0.87562065  1
  Cl  Cl493  1  -0.00233786  0.55845305  0.87915838  1
  Cl  Cl494  1  -0.01028433  0.88540257  0.87500171  1
  Cl  Cl495  1  0.49456248  0.22154487  0.88762557  1
  Cl  Cl496  1  0.50175635  0.56218384  0.90087046  1
  Cl  Cl497  1  0.48938589  0.88948201  0.88331280  1
  Cl  Cl498  1  0.00020514  0.11397637  0.37653668  1
  Cl  Cl499  1  -0.00187049  0.44401117  0.38645597  1
  Cl  Cl500  1  0.00701172  0.77361132  0.39177713  1
  Cl  Cl501  1  0.49755955  0.10674122  0.37450010  1
  Cl  Cl502  1  0.50002114  0.44394404  0.38546740  1
  Cl  Cl503  1  0.50343653  0.77918115  0.39044285  1
  Cl  Cl504  1  0.35811011  0.14871974  0.75426467  1
  Cl  Cl505  1  0.35537060  0.48424373  0.75032611  1
  Cl  Cl506  1  0.35193659  0.81560569  0.73969102  1
  Cl  Cl507  1  0.85481592  0.14591216  0.75658138  1
  Cl  Cl508  1  0.86052765  0.48166148  0.75358573  1
  Cl  Cl509  1  0.85970871  0.81262263  0.74356274  1
  Cl  Cl510  1  0.14293018  0.18399920  0.24892755  1
  Cl  Cl511  1  0.13774150  0.52187559  0.25240785  1
  Cl  Cl512  1  0.14008711  0.85263421  0.24875814  1
  Cl  Cl513  1  0.64088099  0.18526079  0.25229885  1
  Cl  Cl514  1  0.64257059  0.51771971  0.24777854  1
  Cl  Cl515  1  0.64822739  0.84789636  0.24964579  1
  Cl  Cl516  1  0.13938516  0.15086131  0.74980196  1
  Cl  Cl517  1  0.13457774  0.48044525  0.75086291  1
  Cl  Cl518  1  0.13299472  0.81607481  0.75358182  1
  Cl  Cl519  1  0.63550372  0.14819016  0.74290922  1
  Cl  Cl520  1  0.63484813  0.48172518  0.74848938  1
  Cl  Cl521  1  0.63736517  0.81492746  0.75616956  1
  Cl  Cl522  1  0.36779431  0.18545493  0.24376701  1
  Cl  Cl523  1  0.35580455  0.51922527  0.24962477  1
  Cl  Cl524  1  0.36285310  0.85195783  0.25237823  1
  Cl  Cl525  1  0.85976291  0.18526169  0.24585405  1
  Cl  Cl526  1  0.86199971  0.51553325  0.24584664  1
  Cl  Cl527  1  0.87056512  0.85432809  0.26270536  1
  Cl  Cl528  1  0.10857870  0.31531636  0.75180852  1
  Cl  Cl529  1  0.10543318  0.64776516  0.74668812  1
  Cl  Cl530  1  0.10672369  0.98314451  0.75650206  1
  Cl  Cl531  1  0.61198625  0.31314911  0.75130553  1
  Cl  Cl532  1  0.60585347  0.64931158  0.74632548  1
  Cl  Cl533  1  0.60367234  0.98024900  0.74904516  1
  Cl  Cl534  1  0.39384478  0.01651540  0.25083512  1
  Cl  Cl535  1  0.38571208  0.35507865  0.25031260  1
  Cl  Cl536  1  0.39236725  0.68616202  0.24759893  1
  Cl  Cl537  1  0.89044362  0.01900523  0.25483274  1
  Cl  Cl538  1  0.89350917  0.34994281  0.25070114  1
  Cl  Cl539  1  0.89315053  0.68505962  0.23970190  1
  Cl  Cl540  1  0.39012068  0.31773394  0.74837500  1
  Cl  Cl541  1  0.38479854  0.65041060  0.75662930  1
  Cl  Cl542  1  0.38507609  0.98025664  0.74629430  1
  Cl  Cl543  1  0.88598574  0.31387126  0.75061713  1
  Cl  Cl544  1  0.88579666  0.64831668  0.75134082  1
  Cl  Cl545  1  0.88307316  0.97957277  0.74887727  1
  Cl  Cl546  1  0.11181647  0.01739864  0.24000943  1
  Cl  Cl547  1  0.11511852  0.35172566  0.24353340  1
  Cl  Cl548  1  0.10939912  0.68624325  0.25168280  1
  Cl  Cl549  1  0.61640839  0.01576648  0.24645587  1
  Cl  Cl550  1  0.60637831  0.35161569  0.25281278  1
  Cl  Cl551  1  0.61289926  0.68267352  0.25293351  1
