# generated using pymatgen
data_H8PbC4(N3Cl2)2
_symmetry_space_group_name_H-M   'P 1'
_cell_length_a   16.63020527
_cell_length_b   22.52857244
_cell_length_c   21.59711368
_cell_angle_alpha   90.00424363
_cell_angle_beta   90.01622274
_cell_angle_gamma   90.00097332
_symmetry_Int_Tables_number   1
_chemical_formula_structural   H8PbC4(N3Cl2)2
_chemical_formula_sum   'H192 Pb24 C96 N144 Cl96'
_cell_volume   8091.46161352
_cell_formula_units_Z   24
loop_
 _symmetry_equiv_pos_site_id
 _symmetry_equiv_pos_as_xyz
  1  'x, y, z'
loop_
 _atom_site_type_symbol
 _atom_site_label
 _atom_site_symmetry_multiplicity
 _atom_site_fract_x
 _atom_site_fract_y
 _atom_site_fract_z
 _atom_site_occupancy
  H  H0  1  -0.00631227  0.03286947  0.67958603  1
  H  H1  1  0.01519446  0.35859866  0.67216796  1
  H  H2  1  0.01103909  0.69894050  0.68359105  1
  H  H3  1  0.50410403  0.02457912  0.67286434  1
  H  H4  1  0.48254780  0.35902524  0.67727554  1
  H  H5  1  0.49807346  0.68971977  0.67209844  1
  H  H6  1  0.00388806  0.30075582  0.18144031  1
  H  H7  1  0.02054541  0.63529767  0.15521896  1
  H  H8  1  -0.02354752  0.97141966  0.17775237  1
  H  H9  1  0.49864271  0.31068577  0.17662355  1
  H  H10  1  0.52327824  0.63974170  0.18124642  1
  H  H11  1  0.51913392  0.96938832  0.18031810  1
  H  H12  1  -0.00153675  0.02874593  0.82075094  1
  H  H13  1  -0.01397447  0.35794847  0.82642630  1
  H  H14  1  0.00027400  0.69529460  0.81957698  1
  H  H15  1  0.49535817  0.03340216  0.82011475  1
  H  H16  1  0.50852136  0.36395558  0.82042750  1
  H  H17  1  0.51577489  0.69847931  0.84198772  1
  H  H18  1  0.01610997  0.30929779  0.32103241  1
  H  H19  1  -0.01279739  0.64245081  0.32361008  1
  H  H20  1  0.00749742  0.97528671  0.32068581  1
  H  H21  1  0.48762638  0.29918106  0.32366138  1
  H  H22  1  0.50659985  0.64177972  0.32213035  1
  H  H23  1  0.49122557  0.97064349  0.32711526  1
  H  H24  1  0.22948885  0.19518092  0.67664901  1
  H  H25  1  0.24887020  0.52909783  0.67410791  1
  H  H26  1  0.23545522  0.86185806  0.67806306  1
  H  H27  1  0.76894513  0.19179041  0.67352935  1
  H  H28  1  0.75619950  0.52781926  0.68071110  1
  H  H29  1  0.76729529  0.85936344  0.66933847  1
  H  H30  1  0.25229211  0.14004263  0.18002816  1
  H  H31  1  0.24535676  0.46912687  0.17339297  1
  H  H32  1  0.24996659  0.80494855  0.18265677  1
  H  H33  1  0.75345590  0.14204889  0.17455119  1
  H  H34  1  0.75487473  0.46896157  0.18461805  1
  H  H35  1  0.73376528  0.79370341  0.15171748  1
  H  H36  1  0.26828442  0.18986975  0.82509703  1
  H  H37  1  0.22881393  0.53469906  0.84259458  1
  H  H38  1  0.25623724  0.85990691  0.82828495  1
  H  H39  1  0.73809699  0.19529717  0.82016596  1
  H  H40  1  0.72140730  0.53548861  0.81661066  1
  H  H41  1  0.75007495  0.85896120  0.81686466  1
  H  H42  1  0.25221287  0.14285069  0.32704888  1
  H  H43  1  0.25482858  0.46974542  0.31965226  1
  H  H44  1  0.25495771  0.80615143  0.32550089  1
  H  H45  1  0.76008242  0.13927182  0.32746931  1
  H  H46  1  0.73662379  0.47103996  0.32242935  1
  H  H47  1  0.73801429  0.80503524  0.32287753  1
  H  H48  1  0.13093363  0.05246609  0.62069894  1
  H  H49  1  0.12158320  0.39134131  0.58969897  1
  H  H50  1  0.12544807  0.72432292  0.60366716  1
  H  H51  1  0.63190751  0.05265412  0.60736064  1
  H  H52  1  0.62671282  0.37938124  0.63322186  1
  H  H53  1  0.62143482  0.72222889  0.60458212  1
  H  H54  1  0.38930655  0.27774735  0.09524102  1
  H  H55  1  0.39080607  0.61075554  0.12427248  1
  H  H56  1  0.37516446  0.95284125  0.13025285  1
  H  H57  1  0.87964483  0.27741997  0.11283679  1
  H  H58  1  0.91231238  0.60571125  0.07571301  1
  H  H59  1  0.88389428  0.94007337  0.08871897  1
  H  H60  1  0.38622156  0.05955578  0.90103022  1
  H  H61  1  0.38028661  0.39041252  0.88496423  1
  H  H62  1  0.41196748  0.73490438  0.92318174  1
  H  H63  1  0.88275108  0.05516532  0.89732105  1
  H  H64  1  0.89055119  0.39325170  0.91378549  1
  H  H65  1  0.88448392  0.72342192  0.89514944  1
  H  H66  1  0.13561464  0.27648994  0.39477372  1
  H  H67  1  0.12845632  0.62269805  0.37468039  1
  H  H68  1  0.12735632  0.94037776  0.39054874  1
  H  H69  1  0.62548041  0.28241444  0.37793440  1
  H  H70  1  0.63355754  0.61501880  0.38924070  1
  H  H71  1  0.62739575  0.94762614  0.38482496  1
  H  H72  1  0.36879835  0.21414566  0.62148986  1
  H  H73  1  0.36741513  0.56017868  0.60329285  1
  H  H74  1  0.37417278  0.87781452  0.62291776  1
  H  H75  1  0.87085616  0.22637257  0.58791692  1
  H  H76  1  0.86036960  0.55695861  0.59609321  1
  H  H77  1  0.86650768  0.89339533  0.58343589  1
  H  H78  1  0.11881528  0.11601207  0.11795731  1
  H  H79  1  0.11871549  0.44301216  0.10668399  1
  H  H80  1  0.11216229  0.78771561  0.12838779  1
  H  H81  1  0.61777038  0.11750528  0.11775921  1
  H  H82  1  0.61703156  0.45135170  0.12981951  1
  H  H83  1  0.59440506  0.77845158  0.10199284  1
  H  H84  1  0.12285661  0.21168118  0.86927688  1
  H  H85  1  0.09041019  0.55326294  0.89476892  1
  H  H86  1  0.12604708  0.88674079  0.88913950  1
  H  H87  1  0.62371992  0.22542275  0.89875389  1
  H  H88  1  0.61273873  0.55118848  0.90137993  1
  H  H89  1  0.62808824  0.88579261  0.88987854  1
  H  H90  1  0.36399004  0.10763489  0.40376763  1
  H  H91  1  0.36514897  0.44187196  0.40047523  1
  H  H92  1  0.38005082  0.78189204  0.39590592  1
  H  H93  1  0.86485382  0.10409780  0.40854328  1
  H  H94  1  0.87052166  0.44821748  0.38268183  1
  H  H95  1  0.87496565  0.78685289  0.37703981  1
  H  H96  1  0.37984076  0.27193501  0.40441005  1
  H  H97  1  0.38437372  0.61549189  0.39574572  1
  H  H98  1  0.38076764  0.94183896  0.40713143  1
  H  H99  1  0.88745296  0.27942928  0.38656310  1
  H  H100  1  0.88657387  0.60628470  0.40825861  1
  H  H101  1  0.88026841  0.95392455  0.38827131  1
  H  H102  1  0.13068699  0.04945268  0.88040812  1
  H  H103  1  0.13131665  0.37634835  0.87291893  1
  H  H104  1  0.13201211  0.72071095  0.88247958  1
  H  H105  1  0.63330712  0.05264736  0.87767610  1
  H  H106  1  0.62848747  0.38884968  0.89505051  1
  H  H107  1  0.65691645  0.71899342  0.89240282  1
  H  H108  1  0.12793896  0.27904021  0.11315837  1
  H  H109  1  0.15805430  0.61305186  0.10268445  1
  H  H110  1  0.12357698  0.95783669  0.13568589  1
  H  H111  1  0.63481578  0.28037351  0.12239398  1
  H  H112  1  0.63800272  0.61467686  0.10147105  1
  H  H113  1  0.61827612  0.93810312  0.09338325  1
  H  H114  1  0.38321041  0.05353431  0.60231914  1
  H  H115  1  0.38508396  0.39491807  0.59046109  1
  H  H116  1  0.37242535  0.72125323  0.60583942  1
  H  H117  1  0.88516414  0.06016812  0.59663922  1
  H  H118  1  0.87653244  0.38123841  0.61700834  1
  H  H119  1  0.87774225  0.71983603  0.61855484  1
  H  H120  1  0.11660893  0.11808442  0.38379930  1
  H  H121  1  0.11823901  0.44985887  0.37870674  1
  H  H122  1  0.13067641  0.77878388  0.39386555  1
  H  H123  1  0.61999772  0.11447404  0.37895072  1
  H  H124  1  0.62319928  0.44210526  0.40026262  1
  H  H125  1  0.62875561  0.77554897  0.40269880  1
  H  H126  1  0.36254994  0.22692345  0.91373040  1
  H  H127  1  0.33564031  0.56600648  0.92292057  1
  H  H128  1  0.37440030  0.89061793  0.90252684  1
  H  H129  1  0.87139247  0.21592342  0.88184687  1
  H  H130  1  0.85872820  0.55431615  0.87448065  1
  H  H131  1  0.87734387  0.88471717  0.88218935  1
  H  H132  1  0.36679366  0.10903775  0.10440360  1
  H  H133  1  0.36756873  0.44255342  0.10245741  1
  H  H134  1  0.35777556  0.77536838  0.10302441  1
  H  H135  1  0.86532436  0.10940014  0.09685000  1
  H  H136  1  0.86349680  0.44151067  0.10371845  1
  H  H137  1  0.83781317  0.76462877  0.06922202  1
  H  H138  1  0.12286748  0.22799325  0.59514972  1
  H  H139  1  0.11959622  0.55275138  0.60826223  1
  H  H140  1  0.12815259  0.89098795  0.59773206  1
  H  H141  1  0.62787292  0.21266484  0.62273724  1
  H  H142  1  0.61517964  0.55067244  0.62841837  1
  H  H143  1  0.62375704  0.87810821  0.62068943  1
  H  H144  1  0.27423378  0.25256136  1.00766328  1
  H  H145  1  0.97585845  0.57446235  -0.02964668  1
  H  H146  1  0.10102254  0.08027976  -0.00570835  1
  H  H147  1  0.44575747  0.24577130  0.51063822  1
  H  H148  1  0.78271501  0.90948981  0.48529126  1
  H  H149  1  0.31635455  0.41749142  -0.00369268  1
  H  H150  1  0.29064588  0.74633661  -0.00305509  1
  H  H151  1  0.45411723  0.08897346  1.00661636  1
  H  H152  1  0.82588928  0.59819808  0.97751788  1
  H  H153  1  0.12256355  0.41175976  0.98065917  1
  H  H154  1  0.29602492  0.40966772  0.50334183  1
  H  H155  1  0.08528935  0.24877298  1.00161738  1
  H  H156  1  0.61043583  0.08005679  0.98785196  1
  H  H157  1  0.58903966  0.08144810  0.50132599  1
  H  H158  1  0.96792303  0.58071244  0.50566069  1
  H  H159  1  0.10466792  0.08111342  0.51211347  1
  H  H160  1  0.62051774  0.41409331  0.52036234  1
  H  H161  1  0.83562214  0.91419695  0.99379007  1
  H  H162  1  0.46770178  0.41803268  0.49415006  1
  H  H163  1  0.48643999  0.75618177  1.02516497  1
  H  H164  1  0.42201895  0.57331679  0.01351114  1
  H  H165  1  0.58887159  0.58565667  0.49824346  1
  H  H166  1  0.15984616  0.58637114  0.50332225  1
  H  H167  1  0.29773916  0.08120717  0.50577836  1
  H  H168  1  0.15745278  0.92243240  1.00006654  1
  H  H169  1  0.97043913  0.91493671  -0.01193028  1
  H  H170  1  0.83838091  0.24971962  0.99190072  1
  H  H171  1  0.78484553  0.58830540  0.49539131  1
  H  H172  1  0.60692622  0.25350617  0.49186902  1
  H  H173  1  0.68324715  0.56515464  1.00931733  1
  H  H174  1  0.79854208  0.08128067  -0.00455603  1
  H  H175  1  0.31883141  0.92061401  1.00407703  1
  H  H176  1  0.57067596  0.59752301  -0.00206965  1
  H  H177  1  0.85398809  0.74926504  0.48978382  1
  H  H178  1  0.19675123  0.92155543  0.49223775  1
  H  H179  1  0.63768361  0.91393829  0.51329855  1
  H  H180  1  0.63659949  0.41906173  0.01723622  1
  H  H181  1  0.05694508  0.87818821  0.47051641  1
  H  H182  1  0.90384265  0.41237123  0.50957200  1
  H  H183  1  0.97654167  0.41150246  1.01036795  1
  H  H184  1  0.46431468  0.24875387  -0.00364691  1
  H  H185  1  0.79717719  0.41070764  -0.00087952  1
  H  H186  1  0.53732738  0.91088893  -0.00633560  1
  H  H187  1  0.93887172  0.94756977  0.49611346  1
  H  H188  1  0.68307920  0.90451967  0.99623086  1
  H  H189  1  0.27077662  0.59479658  1.02812109  1
  H  H190  1  0.78996842  0.25136830  0.49087945  1
  H  H191  1  0.13100686  0.75741203  1.01467482  1
  Pb  Pb192  1  0.25901259  0.05121727  0.74831986  1
  Pb  Pb193  1  0.25245303  0.38493553  0.74367806  1
  Pb  Pb194  1  0.25810932  0.71603346  0.75727602  1
  Pb  Pb195  1  0.75457411  0.04968571  0.74831526  1
  Pb  Pb196  1  0.75589983  0.38421736  0.75995769  1
  Pb  Pb197  1  0.74984719  0.71392777  0.74341768  1
  Pb  Pb198  1  0.24864601  0.28109392  0.24871498  1
  Pb  Pb199  1  0.25226346  0.62056639  0.26311764  1
  Pb  Pb200  1  0.24615132  0.94911826  0.25635158  1
  Pb  Pb201  1  0.75201833  0.28535432  0.25594118  1
  Pb  Pb202  1  0.75025545  0.61462380  0.24377212  1
  Pb  Pb203  1  0.74752376  0.94571696  0.23971697  1
  Pb  Pb204  1  0.00058654  0.21675527  0.74131504  1
  Pb  Pb205  1  0.00072700  0.54853130  0.73669525  1
  Pb  Pb206  1  0.00558976  0.88387292  0.73747980  1
  Pb  Pb207  1  0.50358457  0.21830646  0.76013198  1
  Pb  Pb208  1  0.49139835  0.55010177  0.76592513  1
  Pb  Pb209  1  0.50134120  0.88195282  0.75683626  1
  Pb  Pb210  1  -0.00736537  0.11684850  0.25169338  1
  Pb  Pb211  1  0.00056214  0.45168474  0.24186849  1
  Pb  Pb212  1  -0.00804466  0.77992568  0.24016791  1
  Pb  Pb213  1  0.49852023  0.11438584  0.25187254  1
  Pb  Pb214  1  0.49284648  0.44900358  0.25955896  1
  Pb  Pb215  1  0.49723483  0.78453737  0.25487188  1
  C  C216  1  0.00376718  0.04794666  0.63252871  1
  C  C217  1  0.00423567  0.37638900  0.62631668  1
  C  C218  1  0.00462848  0.71388551  0.63603722  1
  C  C219  1  0.50697591  0.04234166  0.62639080  1
  C  C220  1  0.49817136  0.37635528  0.63184111  1
  C  C221  1  0.49716138  0.71034877  0.62698139  1
  C  C222  1  0.00451817  0.28612555  0.13368721  1
  C  C223  1  0.03067636  0.61830107  0.10870106  1
  C  C224  1  -0.00528419  0.95711853  0.13178991  1
  C  C225  1  0.50733371  0.29163894  0.13106369  1
  C  C226  1  0.51780277  0.62300922  0.13419816  1
  C  C227  1  0.50375014  0.95404066  0.13411681  1
  C  C228  1  0.00466917  0.04408581  0.86805892  1
  C  C229  1  0.00295659  0.37431109  0.87205611  1
  C  C230  1  0.00618717  0.71275209  0.86592830  1
  C  C231  1  0.50582672  0.04768178  0.86764002  1
  C  C232  1  0.50608466  0.38068950  0.86720836  1
  C  C233  1  0.52776683  0.71611651  0.88801900  1
  C  C234  1  0.01312070  0.29054092  0.36723459  1
  C  C235  1  0.00060455  0.62522689  0.36939003  1
  C  C236  1  0.00507539  0.95741135  0.36733970  1
  C  C237  1  0.49819429  0.28528512  0.37120531  1
  C  C238  1  0.50815054  0.62451365  0.36891768  1
  C  C239  1  0.50021899  0.95409435  0.37352855  1
  C  C240  1  0.24076202  0.21216974  0.63068147  1
  C  C241  1  0.24481287  0.54639481  0.62743324  1
  C  C242  1  0.24585670  0.87663412  0.63106581  1
  C  C243  1  0.75631305  0.20912826  0.62775311  1
  C  C244  1  0.74361566  0.54447754  0.63456141  1
  C  C245  1  0.75223203  0.87625488  0.62351971  1
  C  C246  1  0.24561928  0.12281125  0.13373008  1
  C  C247  1  0.24425172  0.45242706  0.12621905  1
  C  C248  1  0.23935873  0.79004697  0.13552625  1
  C  C249  1  0.74583663  0.12361229  0.12846551  1
  C  C250  1  0.74467819  0.45453664  0.13726713  1
  C  C251  1  0.72111084  0.77959954  0.10467445  1
  C  C252  1  0.25142854  0.20801809  0.86978153  1
  C  C253  1  0.21790938  0.55182850  0.88896570  1
  C  C254  1  0.25264127  0.87836353  0.87475978  1
  C  C255  1  0.74407405  0.21189036  0.86704585  1
  C  C256  1  0.73162941  0.54822088  0.86458920  1
  C  C257  1  0.75097938  0.87515602  0.86436669  1
  C  C258  1  0.24472406  0.12434197  0.37309447  1
  C  C259  1  0.24592990  0.45414797  0.36659565  1
  C  C260  1  0.25557844  0.78907305  0.37222438  1
  C  C261  1  0.74778212  0.12048895  0.37241674  1
  C  C262  1  0.74376291  0.45402548  0.36882404  1
  C  C263  1  0.74820643  0.78851089  0.36927896  1
  C  C264  1  0.71850866  0.42417026  0.46381457  1
  C  C265  1  0.04425253  0.25927983  0.03944706  1
  C  C266  1  0.19946961  0.42573325  0.03341100  1
  C  C267  1  0.68886059  0.09307241  0.04144198  1
  C  C268  1  0.05594405  0.07103638  0.95881473  1
  C  C269  1  0.46460868  0.58948856  0.04782506  1
  C  C270  1  0.56857224  0.40636464  0.55143486  1
  C  C271  1  0.15658567  0.57929951  0.97671613  1
  C  C272  1  0.27216568  0.08777154  0.04134564  1
  C  C273  1  0.75734685  0.57547831  0.53930548  1
  C  C274  1  0.09061371  0.59155789  0.02019296  1
  C  C275  1  0.79303896  0.23995847  0.95604138  1
  C  C276  1  0.99284190  0.92850889  0.03326412  1
  C  C277  1  0.07045344  0.93555337  0.05109586  1
  C  C278  1  0.79618442  0.90419028  0.95500212  1
  C  C279  1  0.22684421  0.90703562  0.53431713  1
  C  C280  1  0.70947972  0.56670822  0.96327479  1
  C  C281  1  0.22412278  0.24744530  0.53736496  1
  C  C282  1  0.25990437  0.76010629  0.03920119  1
  C  C283  1  0.68469300  0.42800276  0.05009159  1
  C  C284  1  0.97781921  0.74553596  0.95897249  1
  C  C285  1  0.76309750  0.08277263  0.46522689  1
  C  C286  1  0.47808991  0.92313344  0.46833635  1
  C  C287  1  0.80644700  0.75880591  0.45652016  1
  C  C288  1  0.46246153  0.41170166  0.95740140  1
  C  C289  1  0.53299739  0.75039324  0.53927200  1
  C  C290  1  0.17895617  0.76526984  0.04808922  1
  C  C291  1  0.30700658  0.90149228  0.54438675  1
  C  C292  1  1.00831164  0.58796282  0.01176634  1
  C  C293  1  0.65729292  0.75605325  0.01657753  1
  C  C294  1  0.27999812  0.58185990  0.53529732  1
  C  C295  1  0.54815548  0.59556075  0.46019158  1
  C  C296  1  0.23866999  0.58283292  0.98597000  1
  C  C297  1  0.97478317  0.07291740  0.96284760  1
  C  C298  1  0.18779051  0.09436274  0.46023238  1
  C  C299  1  0.59244482  0.74532113  0.97253313  1
  C  C300  1  0.55850866  0.26225094  0.45917684  1
  C  C301  1  0.20300992  0.91083371  0.96339598  1
  C  C302  1  0.76590875  0.42428593  0.04112363  1
  C  C303  1  0.73981863  0.75029579  0.00707570  1
  C  C304  1  0.46921946  0.07621226  0.53415898  1
  C  C305  1  0.47747410  0.25806771  0.46850065  1
  C  C306  1  0.51171011  0.92450396  0.03800398  1
  C  C307  1  0.48374036  0.07645271  0.96358070  1
  C  C308  1  0.21881487  0.75543133  0.46243584  1
  C  C309  1  0.26578131  0.42271614  0.46075290  1
  C  C310  1  0.96275470  0.25950884  0.04068120  1
  C  C311  1  0.72548172  0.75502881  0.46385628  1
  N  N312  1  0.68645924  0.08701414  0.45687483  1
  N  N313  1  0.55518107  0.92597114  0.46257961  1
  N  N314  1  0.68627625  0.89819515  0.54029542  1
  N  N315  1  0.27861022  0.42510284  0.03317147  1
  N  N316  1  0.45577042  0.75021732  0.53837342  1
  N  N317  1  0.71432081  0.24365596  0.96201960  1
  N  N318  1  0.04160823  0.92068665  0.45735185  1
  N  N319  1  0.76690678  0.24282955  0.53482306  1
  N  N320  1  0.19496637  0.09069955  0.04473595  1
  N  N321  1  0.54372126  0.59273634  0.04032465  1
  N  N322  1  0.49093943  0.41228056  0.53834685  1
  N  N323  1  0.99090174  0.58974182  0.46171992  1
  N  N324  1  0.51271438  0.75283164  0.98130945  1
  N  N325  1  0.67943887  0.57367364  0.55005522  1
  N  N326  1  0.06748028  0.59606316  0.45201479  1
  N  N327  1  0.02588557  0.40859762  0.53105777  1
  N  N328  1  0.54008468  0.41092462  0.96174378  1
  N  N329  1  0.07156709  0.39667224  0.95383675  1
  N  N330  1  0.48940267  0.25576204  0.03989198  1
  N  N331  1  0.04508844  0.25457742  0.45881286  1
  N  N332  1  0.03133533  0.74219016  0.54054477  1
  N  N333  1  0.17907470  0.23913419  0.94860320  1
  N  N334  1  0.26638393  0.09061844  0.46595631  1
  N  N335  1  0.54805167  0.07468665  0.53684199  1
  N  N336  1  0.29598555  0.75681926  0.46422433  1
  N  N337  1  0.56240505  0.07330950  0.95462330  1
  N  N338  1  0.76242876  0.91194098  0.53048575  1
  N  N339  1  0.05787192  0.07307471  0.54564808  1
  N  N340  1  0.28263937  0.91221673  0.96628958  1
  N  N341  1  0.46919704  0.59386458  0.46209474  1
  N  N342  1  0.25466962  0.24412334  0.96217980  1
  N  N343  1  0.71648087  0.90497290  0.95637582  1
  N  N344  1  0.99606653  0.41163714  0.96443844  1
  N  N345  1  0.95876490  0.92650966  0.45667096  1
  N  N346  1  0.95552075  0.74019357  0.54543739  1
  N  N347  1  0.76746248  0.08983981  0.03558839  1
  N  N348  1  0.79623967  0.42539449  0.45923963  1
  N  N349  1  0.43425372  0.92944611  0.04988310  1
  N  N350  1  0.05502441  0.74425530  0.95552841  1
  N  N351  1  0.96900803  0.25574424  0.45625211  1
  N  N352  1  0.18714512  0.42487394  0.45386120  1
  N  N353  1  0.94890789  0.40494624  0.54152649  1
  N  N354  1  0.56663318  0.25611853  0.04774276  1
  N  N355  1  0.69056409  0.23995641  0.54581745  1
  N  N356  1  0.98067114  0.07529901  0.53600271  1
  N  N357  1  0.30087081  0.24298078  0.54428015  1
  N  N358  1  0.78785888  0.57161750  0.95255602  1
  N  N359  1  0.20118788  0.57804425  0.53821781  1
  N  N360  1  0.07303707  0.05560492  0.60379079  1
  N  N361  1  0.05987867  0.39126038  0.58461945  1
  N  N362  1  0.06334364  0.72574047  0.59640708  1
  N  N363  1  0.57219164  0.05277170  0.59337229  1
  N  N364  1  0.57280629  0.38610396  0.61016815  1
  N  N365  1  0.56140683  0.72646580  0.59269295  1
  N  N366  1  0.45173951  0.27949355  0.08916163  1
  N  N367  1  0.44870602  0.60698327  0.10612957  1
  N  N368  1  0.43136943  0.94746251  0.10988588  1
  N  N369  1  0.93912958  0.27550974  0.09753066  1
  N  N370  1  0.97341543  0.60439535  0.06715779  1
  N  N371  1  0.94595338  0.94242849  0.08520058  1
  N  N372  1  0.44816591  0.06079032  0.90966884  1
  N  N373  1  0.43955640  0.39375934  0.90007066  1
  N  N374  1  0.47342708  0.72992181  0.93050294  1
  N  N375  1  0.94399393  0.05654471  0.90817737  1
  N  N376  1  0.95270185  0.38775485  0.91773934  1
  N  N377  1  0.94575961  0.72655435  0.90495634  1
  N  N378  1  0.07407795  0.27652426  0.40396229  1
  N  N379  1  0.07277503  0.61607186  0.39369842  1
  N  N380  1  0.06601491  0.93556917  0.39913186  1
  N  N381  1  0.56991641  0.27931415  0.39877405  1
  N  N382  1  0.57385076  0.61353715  0.40305399  1
  N  N383  1  0.56930099  0.94526279  0.40213105  1
  N  N384  1  0.31121763  0.22085254  0.60394715  1
  N  N385  1  0.30726655  0.56232416  0.59026978  1
  N  N386  1  0.31798624  0.88360152  0.60279604  1
  N  N387  1  0.80861730  0.22288086  0.58384733  1
  N  N388  1  0.79810544  0.55774218  0.59084850  1
  N  N389  1  0.80414856  0.88875188  0.57864663  1
  N  N390  1  0.17808981  0.11295425  0.10320711  1
  N  N391  1  0.17779762  0.44171469  0.09158460  1
  N  N392  1  0.16756147  0.78371131  0.10781609  1
  N  N393  1  0.67506065  0.11239698  0.09967916  1
  N  N394  1  0.67318403  0.44688560  0.10976346  1
  N  N395  1  0.64883944  0.77448205  0.07879750  1
  N  N396  1  0.17760339  0.21830778  0.89063787  1
  N  N397  1  0.14631856  0.56016286  0.91533520  1
  N  N398  1  0.18448267  0.89086564  0.90593102  1
  N  N399  1  0.68529902  0.22595829  0.90587748  1
  N  N400  1  0.67456668  0.55160416  0.90903931  1
  N  N401  1  0.68877866  0.88320920  0.90161250  1
  N  N402  1  0.30229737  0.11102401  0.41273778  1
  N  N403  1  0.30345044  0.44049878  0.40778230  1
  N  N404  1  0.31925893  0.77812852  0.40701930  1
  N  N405  1  0.80285083  0.10279341  0.41470039  1
  N  N406  1  0.81159824  0.44396486  0.39847514  1
  N  N407  1  0.81904026  0.77954704  0.39662968  1
  N  N408  1  0.44137643  0.27253931  0.41330367  1
  N  N409  1  0.44593843  0.61224279  0.40506506  1
  N  N410  1  0.44225435  0.94020927  0.41495849  1
  N  N411  1  0.94763998  0.27816382  0.39963695  1
  N  N412  1  0.94870614  0.61014608  0.41299423  1
  N  N413  1  0.94020794  0.95432395  0.40266713  1
  N  N414  1  0.07338320  0.05310400  0.89858193  1
  N  N415  1  0.07628774  0.38250187  0.89392518  1
  N  N416  1  0.07332462  0.72341112  0.89690788  1
  N  N417  1  0.57563512  0.05428197  0.89595031  1
  N  N418  1  0.56751763  0.39124034  0.90442897  1
  N  N419  1  0.60064671  0.72476551  0.91330752  1
  N  N420  1  0.06907190  0.27610020  0.09859629  1
  N  N421  1  0.10187854  0.61051517  0.08147055  1
  N  N422  1  0.07113141  0.95242776  0.11062864  1
  N  N423  1  0.57718644  0.27712227  0.10513075  1
  N  N424  1  0.57612446  0.61722056  0.09285958  1
  N  N425  1  0.55584634  0.93937087  0.08921220  1
  N  N426  1  0.44350470  0.05645411  0.58965883  1
  N  N427  1  0.44743987  0.39005958  0.58677544  1
  N  N428  1  0.43307761  0.72476068  0.59403326  1
  N  N429  1  0.94726639  0.06053657  0.59065511  1
  N  N430  1  0.93431125  0.38520334  0.59897367  1
  N  N431  1  0.93736454  0.72305959  0.60467985  1
  N  N432  1  0.17399693  0.11361959  0.40210776  1
  N  N433  1  0.17668808  0.44447280  0.39516013  1
  N  N434  1  0.19088654  0.77497759  0.40697553  1
  N  N435  1  0.67696200  0.11084463  0.39782005  1
  N  N436  1  0.68441191  0.44088071  0.40915932  1
  N  N437  1  0.69054100  0.77284849  0.41118748  1
  N  N438  1  0.30017264  0.22311670  0.91556555  1
  N  N439  1  0.27447527  0.56551068  0.93112174  1
  N  N440  1  0.31308966  0.89070724  0.91236221  1
  N  N441  1  0.81276200  0.22072210  0.89812206  1
  N  N442  1  0.80060992  0.56321809  0.89054355  1
  N  N443  1  0.81784475  0.88760938  0.89743060  1
  N  N444  1  0.30550283  0.10712017  0.09490386  1
  N  N445  1  0.30667261  0.44265580  0.09002871  1
  N  N446  1  0.29608956  0.77591895  0.09395441  1
  N  N447  1  0.80327766  0.11058553  0.08866092  1
  N  N448  1  0.80184634  0.44109139  0.09577291  1
  N  N449  1  0.77623485  0.76494217  0.06012060  1
  N  N450  1  0.18469466  0.22887917  0.58881413  1
  N  N451  1  0.17886216  0.55532833  0.59468990  1
  N  N452  1  0.18949187  0.89126046  0.58960914  1
  N  N453  1  0.68420063  0.21934107  0.60359247  1
  N  N454  1  0.67248131  0.55437513  0.60940286  1
  N  N455  1  0.67960303  0.88543013  0.60052211  1
  Cl  Cl456  1  0.25972577  0.05706146  0.60881030  1
  Cl  Cl457  1  0.25865865  0.39526276  0.60797155  1
  Cl  Cl458  1  0.24707226  0.71904196  0.62331665  1
  Cl  Cl459  1  0.75936999  0.05614144  0.61411528  1
  Cl  Cl460  1  0.75466078  0.38055340  0.62762967  1
  Cl  Cl461  1  0.74946896  0.72210666  0.61192728  1
  Cl  Cl462  1  0.26995091  0.27259190  0.10019140  1
  Cl  Cl463  1  0.27195767  0.61234180  0.13074448  1
  Cl  Cl464  1  0.25182008  0.94759659  0.12406566  1
  Cl  Cl465  1  0.75884253  0.27345698  0.12498070  1
  Cl  Cl466  1  0.76600923  0.60893876  0.10346129  1
  Cl  Cl467  1  0.74652164  0.93492838  0.09831027  1
  Cl  Cl468  1  0.26440843  0.05518470  0.87993489  1
  Cl  Cl469  1  0.25849326  0.39027908  0.88442171  1
  Cl  Cl470  1  0.28158959  0.72890253  0.89124916  1
  Cl  Cl471  1  0.76063683  0.05679729  0.89076588  1
  Cl  Cl472  1  0.76595814  0.39326053  0.89552021  1
  Cl  Cl473  1  0.77085170  0.71556792  0.87837389  1
  Cl  Cl474  1  0.25805560  0.27180090  0.38160572  1
  Cl  Cl475  1  0.25959418  0.61377313  0.39553470  1
  Cl  Cl476  1  0.25164815  0.94633029  0.39148298  1
  Cl  Cl477  1  0.76358568  0.27067668  0.39309276  1
  Cl  Cl478  1  0.76425264  0.60580435  0.38347449  1
  Cl  Cl479  1  0.75748871  0.93823259  0.38477050  1
  Cl  Cl480  1  -0.00697687  0.22821614  0.60895337  1
  Cl  Cl481  1  -0.01480129  0.55749806  0.59875901  1
  Cl  Cl482  1  -0.00989111  0.89780649  0.59903422  1
  Cl  Cl483  1  0.49789179  0.21181854  0.62800044  1
  Cl  Cl484  1  0.48754926  0.55252535  0.63399646  1
  Cl  Cl485  1  0.50168435  0.88382082  0.62655475  1
  Cl  Cl486  1  -0.01264174  0.11046364  0.11756169  1
  Cl  Cl487  1  -0.01098200  0.43756281  0.10383602  1
  Cl  Cl488  1  -0.03712196  0.77054910  0.10876540  1
  Cl  Cl489  1  0.49089350  0.11054847  0.11453330  1
  Cl  Cl490  1  0.48683909  0.44572149  0.12737399  1
  Cl  Cl491  1  0.47440290  0.77352487  0.11685085  1
  Cl  Cl492  1  -0.00545295  0.21670887  0.87353153  1
  Cl  Cl493  1  -0.02260493  0.53891712  0.86949713  1
  Cl  Cl494  1  0.00015504  0.88655333  0.87233872  1
  Cl  Cl495  1  0.48491999  0.22845507  0.90148427  1
  Cl  Cl496  1  0.48415840  0.56423375  0.90342121  1
  Cl  Cl497  1  0.50144851  0.88921892  0.89380923  1
  Cl  Cl498  1  -0.00980905  0.10830191  0.38435879  1
  Cl  Cl499  1  -0.00644094  0.45153841  0.37275501  1
  Cl  Cl500  1  0.00895238  0.78678483  0.37489330  1
  Cl  Cl501  1  0.48739632  0.10358617  0.38520903  1
  Cl  Cl502  1  0.49201797  0.43856552  0.39858420  1
  Cl  Cl503  1  0.50590983  0.78258958  0.38522329  1
  Cl  Cl504  1  0.35340174  0.15192477  0.74544371  1
  Cl  Cl505  1  0.34681710  0.49395772  0.76366843  1
  Cl  Cl506  1  0.35619651  0.82337908  0.74997114  1
  Cl  Cl507  1  0.85581958  0.15613316  0.74730950  1
  Cl  Cl508  1  0.85338561  0.48536691  0.74741357  1
  Cl  Cl509  1  0.85443208  0.81755669  0.74256303  1
  Cl  Cl510  1  0.13735625  0.19184339  0.24621529  1
  Cl  Cl511  1  0.13631079  0.52314977  0.25128103  1
  Cl  Cl512  1  0.13345462  0.85810795  0.24538068  1
  Cl  Cl513  1  0.62991632  0.19059236  0.25638984  1
  Cl  Cl514  1  0.63395813  0.52589557  0.24759944  1
  Cl  Cl515  1  0.64675686  0.85119820  0.23445965  1
  Cl  Cl516  1  0.13399642  0.14362220  0.75070952  1
  Cl  Cl517  1  0.13321548  0.48062580  0.75503454  1
  Cl  Cl518  1  0.13796018  0.81301651  0.75362411  1
  Cl  Cl519  1  0.63489479  0.14567284  0.75217852  1
  Cl  Cl520  1  0.63204112  0.47644933  0.74892571  1
  Cl  Cl521  1  0.63535096  0.81189422  0.75478625  1
  Cl  Cl522  1  0.35972036  0.17990387  0.25070583  1
  Cl  Cl523  1  0.35548009  0.51445512  0.25294447  1
  Cl  Cl524  1  0.35660306  0.84675651  0.25176030  1
  Cl  Cl525  1  0.85182785  0.17839039  0.25207255  1
  Cl  Cl526  1  0.85800194  0.51165963  0.25004775  1
  Cl  Cl527  1  0.86471108  0.85117004  0.25955670  1
  Cl  Cl528  1  0.12176422  0.31139037  0.75617522  1
  Cl  Cl529  1  0.11101883  0.64503626  0.76080861  1
  Cl  Cl530  1  0.11362766  0.97811342  0.74360963  1
  Cl  Cl531  1  0.61002582  0.31133846  0.74963924  1
  Cl  Cl532  1  0.61752659  0.64264494  0.76175302  1
  Cl  Cl533  1  0.62165073  0.97805588  0.75877870  1
  Cl  Cl534  1  0.39376514  0.01157447  0.24891207  1
  Cl  Cl535  1  0.40034482  0.34679450  0.25351218  1
  Cl  Cl536  1  0.40112597  0.68107876  0.25415005  1
  Cl  Cl537  1  0.89460396  0.01536191  0.25575808  1
  Cl  Cl538  1  0.89944102  0.34499410  0.25315545  1
  Cl  Cl539  1  0.90026295  0.67969005  0.24985778  1
  Cl  Cl540  1  0.38977623  0.31799981  0.75109684  1
  Cl  Cl541  1  0.40206316  0.65992163  0.75497833  1
  Cl  Cl542  1  0.39980578  0.98831292  0.74629948  1
  Cl  Cl543  1  0.89901488  0.32330778  0.74866985  1
  Cl  Cl544  1  0.89081690  0.65014510  0.74610693  1
  Cl  Cl545  1  0.89312239  0.98478692  0.75044605  1
  Cl  Cl546  1  0.11879204  0.02522584  0.24777772  1
  Cl  Cl547  1  0.12442254  0.35820855  0.23231208  1
  Cl  Cl548  1  0.11878074  0.68772607  0.23941756  1
  Cl  Cl549  1  0.61685483  0.01676095  0.25781064  1
  Cl  Cl550  1  0.62143831  0.35900996  0.25804093  1
  Cl  Cl551  1  0.62157995  0.69109592  0.24566231  1
