# generated using pymatgen
data_H8PbC4(N3Cl2)2
_symmetry_space_group_name_H-M   'P 1'
_cell_length_a   16.63055251
_cell_length_b   22.52963885
_cell_length_c   21.59524495
_cell_angle_alpha   90.00000421
_cell_angle_beta   90.00845124
_cell_angle_gamma   89.97978954
_symmetry_Int_Tables_number   1
_chemical_formula_structural   H8PbC4(N3Cl2)2
_chemical_formula_sum   'H192 Pb24 C96 N144 Cl96'
_cell_volume   8091.31317170
_cell_formula_units_Z   24
loop_
 _symmetry_equiv_pos_site_id
 _symmetry_equiv_pos_as_xyz
  1  'x, y, z'
loop_
 _atom_site_type_symbol
 _atom_site_label
 _atom_site_symmetry_multiplicity
 _atom_site_fract_x
 _atom_site_fract_y
 _atom_site_fract_z
 _atom_site_occupancy
  H  H0  1  -0.00017310  0.03032374  0.68046323  1
  H  H1  1  0.00694945  0.36280271  0.67894385  1
  H  H2  1  0.00660978  0.68996595  0.67478224  1
  H  H3  1  0.50159323  0.02357459  0.67258081  1
  H  H4  1  0.48343428  0.35821462  0.67467544  1
  H  H5  1  0.49552174  0.69373013  0.67950282  1
  H  H6  1  -0.00321651  0.30770166  0.17944582  1
  H  H7  1  -0.01023588  0.63402445  0.18065990  1
  H  H8  1  0.02006266  0.97379883  0.17020836  1
  H  H9  1  0.52070348  0.30338896  0.17504661  1
  H  H10  1  0.50205413  0.63667263  0.17107061  1
  H  H11  1  0.47989430  0.97017107  0.17543657  1
  H  H12  1  -0.01944410  0.02888414  0.84518278  1
  H  H13  1  -0.00571921  0.35898450  0.81946511  1
  H  H14  1  -0.02128357  0.69763710  0.82790802  1
  H  H15  1  0.49715937  0.02716698  0.82508356  1
  H  H16  1  0.50499983  0.35983298  0.81967467  1
  H  H17  1  0.52894557  0.69228933  0.82927456  1
  H  H18  1  -0.00446823  0.30333353  0.32428811  1
  H  H19  1  0.01881188  0.63208645  0.34750247  1
  H  H20  1  0.00525576  0.96484871  0.31248357  1
  H  H21  1  0.49909985  0.30233609  0.32010858  1
  H  H22  1  0.50657983  0.63417390  0.32143104  1
  H  H23  1  0.48825377  0.97742719  0.33215561  1
  H  H24  1  0.25770594  0.19814881  0.67571353  1
  H  H25  1  0.22856771  0.53303337  0.65987440  1
  H  H26  1  0.22880677  0.86554823  0.67751170  1
  H  H27  1  0.75336811  0.19801185  0.67970958  1
  H  H28  1  0.74733566  0.53137165  0.67414261  1
  H  H29  1  0.76776808  0.85645178  0.67353308  1
  H  H30  1  0.25814754  0.14123458  0.17726760  1
  H  H31  1  0.24622952  0.46949105  0.18018719  1
  H  H32  1  0.24982780  0.80846123  0.17262744  1
  H  H33  1  0.76419331  0.13321544  0.15111763  1
  H  H34  1  0.76651671  0.46572000  0.17469151  1
  H  H35  1  0.75190273  0.81343826  0.18411303  1
  H  H36  1  0.23963882  0.19281781  0.82127059  1
  H  H37  1  0.23464375  0.52570399  0.81990983  1
  H  H38  1  0.25546734  0.85949048  0.82205286  1
  H  H39  1  0.74817128  0.19162337  0.82313312  1
  H  H40  1  0.75959825  0.52748068  0.82422632  1
  H  H41  1  0.74707388  0.86676575  0.82221771  1
  H  H42  1  0.23900625  0.13772282  0.32221691  1
  H  H43  1  0.23759515  0.47245436  0.32279822  1
  H  H44  1  0.25611466  0.80307092  0.31911654  1
  H  H45  1  0.76617292  0.13344566  0.31764179  1
  H  H46  1  0.75242971  0.47503280  0.32697135  1
  H  H47  1  0.74629314  0.80430125  0.32362171  1
  H  H48  1  0.12364595  0.06103379  0.61403178  1
  H  H49  1  0.11007318  0.39489560  0.59511022  1
  H  H50  1  0.12994782  0.71959066  0.60433624  1
  H  H51  1  0.62246354  0.05598338  0.60293687  1
  H  H52  1  0.61025964  0.38744063  0.60858368  1
  H  H53  1  0.63551731  0.71688012  0.62693587  1
  H  H54  1  0.38054174  0.28966782  0.12474384  1
  H  H55  1  0.38596488  0.60560730  0.09667527  1
  H  H56  1  0.37953848  0.93893446  0.09026934  1
  H  H57  1  0.86903462  0.27918877  0.11308609  1
  H  H58  1  0.89254672  0.60409996  0.09107041  1
  H  H59  1  0.87630395  0.95432057  0.12310754  1
  H  H60  1  0.36258837  0.05017428  0.88439964  1
  H  H61  1  0.37590933  0.38575826  0.88488418  1
  H  H62  1  0.38106620  0.71335104  0.86472643  1
  H  H63  1  0.84019001  0.05348150  0.89568987  1
  H  H64  1  0.87383996  0.38806632  0.89267541  1
  H  H65  1  0.88895497  0.73279739  0.91900169  1
  H  H66  1  0.13448504  0.28561322  0.38026872  1
  H  H67  1  0.15696344  0.61221197  0.39863134  1
  H  H68  1  0.12806088  0.94791954  0.38480216  1
  H  H69  1  0.63239146  0.28023586  0.38266848  1
  H  H70  1  0.64708448  0.61767652  0.37397449  1
  H  H71  1  0.62469345  0.95084289  0.38749525  1
  H  H72  1  0.36654060  0.22397761  0.59403798  1
  H  H73  1  0.33413610  0.56543101  0.57793215  1
  H  H74  1  0.37069047  0.88488061  0.62535123  1
  H  H75  1  0.85997108  0.22414190  0.59641886  1
  H  H76  1  0.86036980  0.56169938  0.59892811  1
  H  H77  1  0.86343550  0.89277193  0.58640223  1
  H  H78  1  0.14570070  0.10816213  0.10182569  1
  H  H79  1  0.13012180  0.44288706  0.10415634  1
  H  H80  1  0.12407298  0.77819947  0.10522861  1
  H  H81  1  0.66091881  0.10254469  0.06783198  1
  H  H82  1  0.63255831  0.44618312  0.11710463  1
  H  H83  1  0.62353341  0.78558345  0.11997668  1
  H  H84  1  0.12244368  0.22179759  0.89546061  1
  H  H85  1  0.11388509  0.55236945  0.89339133  1
  H  H86  1  0.12817851  0.89087793  0.88757075  1
  H  H87  1  0.62727813  0.21893000  0.89760012  1
  H  H88  1  0.61392096  0.54461749  0.86827281  1
  H  H89  1  0.63316753  0.89193878  0.90221498  1
  H  H90  1  0.37783095  0.11440131  0.37679629  1
  H  H91  1  0.38112132  0.45247393  0.37098846  1
  H  H92  1  0.36229547  0.77658712  0.40271496  1
  H  H93  1  0.87212380  0.11037667  0.40324750  1
  H  H94  1  0.88229687  0.44879772  0.39052913  1
  H  H95  1  0.86578711  0.77070351  0.39346162  1
  H  H96  1  0.38538558  0.27480387  0.40053091  1
  H  H97  1  0.40135572  0.60942442  0.40482609  1
  H  H98  1  0.37896550  0.94104939  0.40934518  1
  H  H99  1  0.88907001  0.27358410  0.40675755  1
  H  H100  1  0.91241708  0.60152601  0.42739519  1
  H  H101  1  0.87892119  0.94139413  0.38005260  1
  H  H102  1  0.08572068  0.06864880  0.92414888  1
  H  H103  1  0.12270733  0.38444606  0.88573147  1
  H  H104  1  0.12630964  0.71610993  0.86605973  1
  H  H105  1  0.60894661  0.05733595  0.90306748  1
  H  H106  1  0.62434481  0.38570489  0.89338607  1
  H  H107  1  0.61646566  0.73340414  0.91892939  1
  H  H108  1  0.11778735  0.27900548  0.10853186  1
  H  H109  1  0.13405384  0.61535707  0.13526518  1
  H  H110  1  0.11828536  0.93469925  0.08764362  1
  H  H111  1  0.62387399  0.27335405  0.09148881  1
  H  H112  1  0.63355532  0.61385380  0.10758173  1
  H  H113  1  0.62143398  0.95858577  0.12751020  1
  H  H114  1  0.37378807  0.05322423  0.60769754  1
  H  H115  1  0.36241185  0.38659485  0.60110635  1
  H  H116  1  0.38964335  0.72255557  0.59697949  1
  H  H117  1  0.87648275  0.04842031  0.60739574  1
  H  H118  1  0.86575950  0.38555406  0.62792373  1
  H  H119  1  0.88057701  0.71748404  0.60912686  1
  H  H120  1  0.13156954  0.10734108  0.40426918  1
  H  H121  1  0.14003488  0.43890749  0.41023148  1
  H  H122  1  0.11710478  0.77897714  0.37313860  1
  H  H123  1  0.62616252  0.11314215  0.37305770  1
  H  H124  1  0.63439647  0.44806589  0.40258084  1
  H  H125  1  0.61765652  0.78053302  0.39048209  1
  H  H126  1  0.37108881  0.21838047  0.88522372  1
  H  H127  1  0.36242821  0.55283670  0.88730496  1
  H  H128  1  0.37654242  0.88875564  0.89651044  1
  H  H129  1  0.87635519  0.21840719  0.88854332  1
  H  H130  1  0.85447434  0.55990080  0.91372728  1
  H  H131  1  0.88088709  0.88845909  0.88267111  1
  H  H132  1  0.39333088  0.11563107  0.11808376  1
  H  H133  1  0.37821700  0.44938150  0.12026977  1
  H  H134  1  0.37277334  0.78103640  0.10358953  1
  H  H135  1  0.90437990  0.11428250  0.10320796  1
  H  H136  1  0.88006688  0.43972166  0.09672435  1
  H  H137  1  0.87252540  0.78034735  0.11281897  1
  H  H138  1  0.12069649  0.21889947  0.61872379  1
  H  H139  1  0.08859033  0.55438869  0.60846184  1
  H  H140  1  0.12745421  0.89399350  0.58976537  1
  H  H141  1  0.61366765  0.21836557  0.62512535  1
  H  H142  1  0.61425055  0.54959292  0.61596748  1
  H  H143  1  0.62301492  0.88122808  0.63207482  1
  H  H144  1  0.77708708  0.91727905  0.49030686  1
  H  H145  1  0.39341502  0.25759499  1.00962180  1
  H  H146  1  0.08006987  0.92762888  0.49767426  1
  H  H147  1  0.59943473  0.57747443  0.00068527  1
  H  H148  1  0.36480448  0.08378433  0.01113676  1
  H  H149  1  0.79715690  0.08248203  0.50583335  1
  H  H150  1  0.01276786  0.09056751  1.02667663  1
  H  H151  1  0.63948973  0.58582133  0.49792093  1
  H  H152  1  0.92060794  0.91235556  0.49082603  1
  H  H153  1  0.92313014  0.74673485  0.49774446  1
  H  H154  1  0.84413232  0.42556355  0.49846738  1
  H  H155  1  0.65833867  0.41109074  0.00392894  1
  H  H156  1  0.41668520  0.41515385  0.49876183  1
  H  H157  1  0.11131418  0.25079071  0.48702178  1
  H  H158  1  0.16616140  0.75360838  -0.00163607  1
  H  H159  1  0.93869436  0.05529649  0.50205444  1
  H  H160  1  0.34864697  0.41767516  1.00728578  1
  H  H161  1  0.78940892  0.25208954  0.49209797  1
  H  H162  1  0.46056440  0.75580149  0.49453857  1
  H  H163  1  0.52218991  0.75695280  1.01146287  1
  H  H164  1  0.20823472  0.07321151  -0.00343686  1
  H  H165  1  0.06270975  0.11698172  0.52542341  1
  H  H166  1  0.32856050  0.75147997  -0.00639552  1
  H  H167  1  0.20525408  0.07320392  0.50548571  1
  H  H168  1  0.28975384  0.74616867  0.50492246  1
  H  H169  1  0.66400165  0.75159135  0.01030118  1
  H  H170  1  0.22490440  0.41123711  0.50547539  1
  H  H171  1  0.63517306  0.24405194  0.51543230  1
  H  H172  1  0.98087691  0.75562626  1.01243779  1
  H  H173  1  0.76944009  0.58213856  1.01015833  1
  H  H174  1  0.44944756  0.58519095  -0.00784937  1
  H  H175  1  0.88799894  0.91995069  0.01315662  1
  H  H176  1  0.83369293  0.25187336  0.99703057  1
  H  H177  1  0.26215569  0.58733602  0.47584251  1
  H  H178  1  0.96441870  0.25598351  0.50831639  1
  H  H179  1  0.07917366  0.41636641  0.99494053  1
  H  H180  1  0.03400305  0.43235882  0.49695766  1
  H  H181  1  0.97780943  0.58064432  -0.00541555  1
  H  H182  1  0.61269000  0.92474270  1.01263909  1
  H  H183  1  0.21013819  0.91597763  0.49174794  1
  H  H184  1  0.81703477  0.75697109  0.00760172  1
  H  H185  1  0.69626023  0.40745811  0.50019903  1
  H  H186  1  0.16582637  0.58036448  1.00131489  1
  H  H187  1  0.18079855  0.25791360  1.00020474  1
  H  H188  1  0.61422078  0.74314594  0.51733712  1
  H  H189  1  0.47314256  0.58119708  0.51023548  1
  H  H190  1  0.59959355  0.91952683  0.49719447  1
  H  H191  1  0.08155753  0.74752990  0.50046399  1
  Pb  Pb192  1  0.24074105  0.04994473  0.75635264  1
  Pb  Pb193  1  0.24574304  0.38254851  0.74208843  1
  Pb  Pb194  1  0.24231213  0.71649908  0.74136057  1
  Pb  Pb195  1  0.74027803  0.04912959  0.74350987  1
  Pb  Pb196  1  0.73584093  0.38543236  0.74951818  1
  Pb  Pb197  1  0.75055149  0.71826192  0.76707859  1
  Pb  Pb198  1  0.25966368  0.28156513  0.25086951  1
  Pb  Pb199  1  0.26393177  0.61572551  0.24916254  1
  Pb  Pb200  1  0.25840773  0.94732966  0.24857630  1
  Pb  Pb201  1  0.76023340  0.27839438  0.25017058  1
  Pb  Pb202  1  0.76360446  0.61463973  0.24898539  1
  Pb  Pb203  1  0.75439453  0.95285516  0.25859179  1
  Pb  Pb204  1  -0.00818082  0.21734148  0.74518982  1
  Pb  Pb205  1  -0.00775103  0.54740008  0.76323275  1
  Pb  Pb206  1  -0.00533474  0.88777096  0.74083626  1
  Pb  Pb207  1  0.49216501  0.21375276  0.75282969  1
  Pb  Pb208  1  0.48452714  0.55263290  0.74308258  1
  Pb  Pb209  1  0.49451804  0.88167803  0.75876901  1
  Pb  Pb210  1  0.00936327  0.11531902  0.26205859  1
  Pb  Pb211  1  0.01047112  0.44809299  0.25087551  1
  Pb  Pb212  1  0.00350047  0.78231405  0.24937400  1
  Pb  Pb213  1  0.51135234  0.11579973  0.23477712  1
  Pb  Pb214  1  0.51235667  0.44763217  0.25362297  1
  Pb  Pb215  1  0.50769381  0.78235770  0.25132847  1
  C  C216  1  -0.00015055  0.04663043  0.63309144  1
  C  C217  1  -0.00632947  0.38064730  0.63342840  1
  C  C218  1  0.00625791  0.70873953  0.62833576  1
  C  C219  1  0.49909360  0.04392096  0.62733452  1
  C  C220  1  0.48483607  0.37651496  0.62827614  1
  C  C221  1  0.50772579  0.70991666  0.63294567  1
  C  C222  1  -0.00585852  0.28992919  0.13306130  1
  C  C223  1  0.00530099  0.61941929  0.13431557  1
  C  C224  1  0.00416292  0.95553086  0.12540103  1
  C  C225  1  0.50723465  0.28893360  0.12826818  1
  C  C226  1  0.50738059  0.61918333  0.12425335  1
  C  C227  1  0.49469100  0.95586693  0.12891870  1
  C  C228  1  -0.03049142  0.04834820  0.89048827  1
  C  C229  1  -0.00313038  0.37651285  0.86619485  1
  C  C230  1  -0.00200463  0.71401153  0.87282653  1
  C  C231  1  0.48899771  0.04379488  0.87158170  1
  C  C232  1  0.50133680  0.37633857  0.86653763  1
  C  C233  1  0.50904459  0.71130748  0.87284693  1
  C  C234  1  0.00670115  0.28790640  0.37123895  1
  C  C235  1  0.03022601  0.61519514  0.39374845  1
  C  C236  1  0.00394990  0.95207802  0.36101340  1
  C  C237  1  0.50572131  0.28699611  0.36749371  1
  C  C238  1  0.51841823  0.62113064  0.36895902  1
  C  C239  1  0.49798839  0.95843828  0.37759884  1
  C  C240  1  0.24766919  0.21306231  0.62880140  1
  C  C241  1  0.21729056  0.54856820  0.61290251  1
  C  C242  1  0.24174425  0.88011175  0.63064793  1
  C  C243  1  0.74148887  0.21265227  0.63257893  1
  C  C244  1  0.74011382  0.54716036  0.62704838  1
  C  C245  1  0.75150920  0.87483569  0.62872485  1
  C  C246  1  0.26648142  0.12274637  0.13114668  1
  C  C247  1  0.25226886  0.45414826  0.13290261  1
  C  C248  1  0.24830631  0.79028362  0.12598474  1
  C  C249  1  0.77739069  0.11701941  0.10494535  1
  C  C250  1  0.75894818  0.45042250  0.12748506  1
  C  C251  1  0.74993182  0.79499618  0.13762865  1
  C  C252  1  0.24460744  0.21085404  0.86775805  1
  C  C253  1  0.23694687  0.54227910  0.86703584  1
  C  C254  1  0.25359948  0.87860359  0.86815822  1
  C  C255  1  0.75045059  0.20951293  0.86973442  1
  C  C256  1  0.74264133  0.54252423  0.87019167  1
  C  C257  1  0.75353068  0.88183658  0.86953213  1
  C  C258  1  0.24948221  0.12054419  0.36842348  1
  C  C259  1  0.25297061  0.45533896  0.36823536  1
  C  C260  1  0.24462402  0.78716882  0.36575899  1
  C  C261  1  0.75459106  0.11934608  0.36486612  1
  C  C262  1  0.75648241  0.45753057  0.37386825  1
  C  C263  1  0.74295503  0.78613520  0.36977328  1
  C  C264  1  0.76780510  0.57900628  0.53307530  1
  C  C265  1  0.15425698  0.57570129  0.52690885  1
  C  C266  1  0.75962348  0.08533967  0.00789863  1
  C  C267  1  0.07572220  0.74243120  0.95049770  1
  C  C268  1  0.78630820  0.42012865  0.03260671  1
  C  C269  1  0.68663189  0.57500809  0.53765855  1
  C  C270  1  0.02833822  0.25730933  0.04109675  1
  C  C271  1  0.42937046  0.74203809  0.94885551  1
  C  C272  1  0.21601933  0.24448143  0.95994035  1
  C  C273  1  0.52336251  0.26013310  0.03150491  1
  C  C274  1  0.07691320  0.59212370  0.05271679  1
  C  C275  1  0.56168108  0.93201552  0.04348074  1
  C  C276  1  0.79233669  0.24040815  0.95986194  1
  C  C277  1  0.24009517  0.08713678  0.03838996  1
  C  C278  1  0.44320655  0.26532470  0.04133373  1
  C  C279  1  0.70505154  0.42168463  0.03825174  1
  C  C280  1  0.48181864  0.92556791  0.03205570  1
  C  C281  1  0.67934356  0.90622496  0.54904369  1
  C  C282  1  0.04252833  0.93181668  0.45677184  1
  C  C283  1  0.20432529  0.57027840  0.96075015  1
  C  C284  1  0.53217646  0.08326984  0.53860347  1
  C  C285  1  0.51327674  0.07699527  0.96542586  1
  C  C286  1  0.77621967  0.75096000  0.46118059  1
  C  C287  1  0.01581251  0.91735620  0.03067699  1
  C  C288  1  0.28788062  0.76098968  0.03319715  1
  C  C289  1  0.70391851  0.76228329  0.04860650  1
  C  C290  1  0.84198259  0.09056752  0.01827505  1
  C  C291  1  0.03820115  0.40565816  0.95707370  1
  C  C292  1  0.96083808  0.92668699  0.45419914  1
  C  C293  1  0.26800871  0.24073630  0.53272356  1
  C  C294  1  0.80400979  0.90784611  0.95925681  1
  C  C295  1  0.23349343  0.08717443  0.46237659  1
  C  C296  1  0.48890183  0.74234930  0.53786219  1
  C  C297  1  0.53378517  0.40651498  0.95986833  1
  C  C298  1  0.00660744  0.41729344  0.54023417  1
  C  C299  1  0.76078769  0.24053513  0.53593168  1
  C  C300  1  0.96310201  0.73797645  0.53682062  1
  C  C301  1  0.22193144  0.42531509  0.03801779  1
  C  C302  1  0.26065941  0.75820313  0.46139107  1
  C  C303  1  0.67018428  0.56602530  0.95250541  1
  C  C304  1  0.76949531  0.09274386  0.46141358  1
  C  C305  1  0.90641380  0.07928161  0.97473084  1
  C  C306  1  1.00802569  0.58305111  0.49014790  1
  C  C307  1  0.50197209  0.59399499  0.46663753  1
  C  C308  1  0.30321887  0.42729234  0.04212644  1
  C  C309  1  0.47434360  0.92143485  0.47129106  1
  C  C310  1  0.09080506  0.58748453  0.48191513  1
  C  C311  1  0.58222566  0.59741620  0.45504949  1
  N  N312  1  0.71318492  0.24061623  0.96313992  1
  N  N313  1  0.45491328  0.08230208  0.53863606  1
  N  N314  1  0.68248026  0.23826033  0.54678204  1
  N  N315  1  0.53079588  0.40843529  0.53844781  1
  N  N316  1  0.69141228  0.09303301  0.45128224  1
  N  N317  1  0.93931434  0.92610451  0.04302090  1
  N  N318  1  0.72659458  0.90967179  0.96646143  1
  N  N319  1  0.04243675  0.07699260  0.54234657  1
  N  N320  1  0.28336442  0.57127197  0.95883080  1
  N  N321  1  -0.01387860  0.08654490  0.98292046  1
  N  N322  1  0.72571763  0.43301545  0.46785173  1
  N  N323  1  0.50472651  0.74810392  0.96621183  1
  N  N324  1  0.80388071  0.42494884  0.46097275  1
  N  N325  1  0.30845808  0.90658253  0.54697612  1
  N  N326  1  0.23186364  0.90999858  0.53618101  1
  N  N327  1  0.99998196  0.74801395  0.96711894  1
  N  N328  1  0.98856612  0.25395221  0.46399124  1
  N  N329  1  0.78350973  0.75956569  0.04740607  1
  N  N330  1  0.32226851  0.42482759  0.44900048  1
  N  N331  1  0.69860306  0.75415883  0.46078548  1
  N  N332  1  0.55593499  0.59403790  0.03518010  1
  N  N333  1  0.75603425  0.90998444  0.53499755  1
  N  N334  1  0.45257447  0.40784938  0.53740784  1
  N  N335  1  0.43599801  0.07418132  0.96045307  1
  N  N336  1  0.47832998  0.58229718  0.03424543  1
  N  N337  1  0.55629904  0.25895740  0.45677093  1
  N  N338  1  0.55223046  0.92668113  0.46369056  1
  N  N339  1  0.92880095  0.41514949  0.55131177  1
  N  N340  1  0.18227288  0.75937226  0.45205849  1
  N  N341  1  0.21079688  0.91239698  0.95807710  1
  N  N342  1  0.31900475  0.08932652  0.04559359  1
  N  N343  1  0.95916373  0.07596337  0.54151231  1
  N  N344  1  0.20820045  0.75961976  0.03533592  1
  N  N345  1  0.06547447  0.26744951  0.45790613  1
  N  N346  1  1.00017881  0.58854922  0.03907561  1
  N  N347  1  0.04280529  0.74050315  0.53725496  1
  N  N348  1  0.74691948  0.57198143  0.96588892  1
  N  N349  1  0.56715768  0.73986923  0.54894907  1
  N  N350  1  0.48024425  0.25687438  0.46234852  1
  N  N351  1  0.45601861  0.40723160  0.95797920  1
  N  N352  1  0.29506903  0.24341203  0.95665203  1
  N  N353  1  0.24594467  0.41942369  0.46060809  1
  N  N354  1  0.95911733  0.40778042  0.95950791  1
  N  N355  1  0.95054683  0.25753654  0.04148768  1
  N  N356  1  0.28690816  0.91155080  0.96069824  1
  N  N357  1  0.23408110  0.58185116  0.51885773  1
  N  N358  1  0.31168648  0.08962422  0.45348869  1
  N  N359  1  0.19086949  0.23865053  0.53968436  1
  N  N360  1  0.06301243  0.06636726  0.60235231  1
  N  N361  1  0.04773261  0.39644382  0.59027702  1
  N  N362  1  0.06916636  0.72092752  0.59313609  1
  N  N363  1  0.56233845  0.06031397  0.59196407  1
  N  N364  1  0.55004400  0.39048992  0.59573517  1
  N  N365  1  0.57852065  0.71798126  0.60671583  1
  N  N366  1  0.43470908  0.28322734  0.10266478  1
  N  N367  1  0.44726501  0.60719631  0.08593689  1
  N  N368  1  0.44142222  0.93984752  0.08363600  1
  N  N369  1  0.92928855  0.27845741  0.09995098  1
  N  N370  1  0.95504324  0.60816445  0.08844514  1
  N  N371  1  0.93168838  0.95077661  0.10111624  1
  N  N372  1  0.42043227  0.05299940  0.90084376  1
  N  N373  1  0.43577082  0.38812414  0.89868076  1
  N  N374  1  0.43206305  0.72106961  0.89061389  1
  N  N375  1  0.89699913  0.05785576  0.91606355  1
  N  N376  1  0.93514269  0.38948814  0.90261726  1
  N  N377  1  0.95105824  0.72721739  0.92022734  1
  N  N378  1  0.07728006  0.27883804  0.39779735  1
  N  N379  1  0.10165308  0.60744946  0.42037888  1
  N  N380  1  0.06807862  0.94741074  0.39838991  1
  N  N381  1  0.57367413  0.27796932  0.39809590  1
  N  N382  1  0.59155099  0.61408178  0.39506803  1
  N  N383  1  0.56743990  0.95046727  0.40586268  1
  N  N384  1  0.30478851  0.22523541  0.58617450  1
  N  N385  1  0.27234621  0.56092793  0.57056421  1
  N  N386  1  0.31396987  0.88967414  0.60609960  1
  N  N387  1  0.79773924  0.22489879  0.58927727  1
  N  N388  1  0.79960874  0.56201791  0.58708329  1
  N  N389  1  0.80149791  0.88727484  0.58291660  1
  N  N390  1  0.20721278  0.10705371  0.09173693  1
  N  N391  1  0.19121508  0.44141632  0.09290410  1
  N  N392  1  0.18410378  0.77931800  0.09190072  1
  N  N393  1  0.72268376  0.10162224  0.06029564  1
  N  N394  1  0.68955394  0.44065646  0.09845273  1
  N  N395  1  0.68281014  0.78246455  0.10507823  1
  N  N396  1  0.18363002  0.22491092  0.90562657  1
  N  N397  1  0.17425758  0.55323821  0.90435754  1
  N  N398  1  0.18854085  0.89242738  0.90059757  1
  N  N399  1  0.68888952  0.22128189  0.90678367  1
  N  N400  1  0.66716707  0.54907113  0.89237705  1
  N  N401  1  0.69524369  0.89304527  0.90930328  1
  N  N402  1  0.31991979  0.11057690  0.39520721  1
  N  N403  1  0.32583808  0.44486467  0.39064945  1
  N  N404  1  0.30023069  0.77488043  0.40892649  1
  N  N405  1  0.81004971  0.10873212  0.40875149  1
  N  N406  1  0.82335984  0.44880830  0.40594578  1
  N  N407  1  0.80535227  0.77031195  0.40610553  1
  N  N408  1  0.44754392  0.27416165  0.40726321  1
  N  N409  1  0.46326820  0.60944711  0.41212811  1
  N  N410  1  0.44039657  0.94078917  0.41826829  1
  N  N411  1  0.95123248  0.27684838  0.41389726  1
  N  N412  1  0.97343971  0.60009672  0.43711009  1
  N  N413  1  0.93830439  0.93964755  0.39450248  1
  N  N414  1  0.02449396  0.06290087  0.93228573  1
  N  N415  1  0.06300355  0.38697921  0.89992587  1
  N  N416  1  0.07454709  0.72302816  0.89150307  1
  N  N417  1  0.54751847  0.05853647  0.91203176  1
  N  N418  1  0.56355134  0.38833998  0.90451880  1
  N  N419  1  0.55509242  0.72616286  0.92031297  1
  N  N420  1  0.05721979  0.27636749  0.09637596  1
  N  N421  1  0.08043938  0.61016236  0.11208305  1
  N  N422  1  0.05642995  0.93556272  0.08153213  1
  N  N423  1  0.56196624  0.27423888  0.08378433  1
  N  N424  1  0.57467908  0.60830959  0.09349193  1
  N  N425  1  0.56791890  0.95071129  0.10465828  1
  N  N426  1  0.43400915  0.05730338  0.59510645  1
  N  N427  1  0.42320253  0.38676435  0.59112129  1
  N  N428  1  0.45155317  0.72463196  0.59033742  1
  N  N429  1  0.93729449  0.04919989  0.59543311  1
  N  N430  1  0.92230411  0.39202108  0.60942626  1
  N  N431  1  0.94018408  0.71986265  0.59387087  1
  N  N432  1  0.19340763  0.10577553  0.41044155  1
  N  N433  1  0.20241221  0.44121530  0.41322602  1
  N  N434  1  0.17416929  0.77761745  0.39215188  1
  N  N435  1  0.68401283  0.10962625  0.39144591  1
  N  N436  1  0.69605021  0.44291182  0.41073300  1
  N  N437  1  0.67765600  0.77626003  0.40293883  1
  N  N438  1  0.31135202  0.22258368  0.89882659  1
  N  N439  1  0.30185592  0.55349632  0.90052729  1
  N  N440  1  0.31507777  0.89045431  0.90523506  1
  N  N441  1  0.81673553  0.22186350  0.90263699  1
  N  N442  1  0.79215129  0.55544380  0.91596765  1
  N  N443  1  0.82272062  0.89159555  0.90006842  1
  N  N444  1  0.33496254  0.11318586  0.10190657  1
  N  N445  1  0.32069503  0.44513516  0.10220220  1
  N  N446  1  0.31279519  0.77867732  0.09017307  1
  N  N447  1  0.84995803  0.11006186  0.08005534  1
  N  N448  1  0.81887153  0.43750456  0.08632680  1
  N  N449  1  0.81179516  0.78341077  0.10110491  1
  N  N450  1  0.17803624  0.22178304  0.60102399  1
  N  N451  1  0.14472820  0.55639759  0.58655518  1
  N  N452  1  0.18947365  0.89127770  0.58587666  1
  N  N453  1  0.67089324  0.22002311  0.60586913  1
  N  N454  1  0.67044749  0.55537592  0.59716728  1
  N  N455  1  0.67638328  0.88638654  0.60803378  1
  Cl  Cl456  1  0.24571677  0.05385512  0.61811660  1
  Cl  Cl457  1  0.23442797  0.39336719  0.59834314  1
  Cl  Cl458  1  0.25988718  0.71834640  0.60529233  1
  Cl  Cl459  1  0.75350451  0.05171082  0.60850927  1
  Cl  Cl460  1  0.73364587  0.38735233  0.60938249  1
  Cl  Cl461  1  0.75987321  0.72117943  0.63412599  1
  Cl  Cl462  1  0.24024976  0.27730216  0.11922042  1
  Cl  Cl463  1  0.26527997  0.60980034  0.11749160  1
  Cl  Cl464  1  0.24783416  0.93914252  0.11683825  1
  Cl  Cl465  1  0.74558426  0.27259250  0.11766238  1
  Cl  Cl466  1  0.76823236  0.60560450  0.10002123  1
  Cl  Cl467  1  0.75299726  0.94998122  0.13129973  1
  Cl  Cl468  1  0.21384386  0.06431566  0.89073064  1
  Cl  Cl469  1  0.24679705  0.38805546  0.87274973  1
  Cl  Cl470  1  0.25266686  0.72170850  0.87381486  1
  Cl  Cl471  1  0.72549854  0.05535408  0.87724024  1
  Cl  Cl472  1  0.74777269  0.39018918  0.88284878  1
  Cl  Cl473  1  0.75903635  0.73234647  0.90862744  1
  Cl  Cl474  1  0.26139976  0.27769379  0.38683515  1
  Cl  Cl475  1  0.28019313  0.61053174  0.38741762  1
  Cl  Cl476  1  0.25266218  0.93778268  0.39105390  1
  Cl  Cl477  1  0.76675332  0.27674376  0.38979442  1
  Cl  Cl478  1  0.78406229  0.61066947  0.37853770  1
  Cl  Cl479  1  0.75500463  0.93742787  0.39596027  1
  Cl  Cl480  1  -0.01638995  0.22525349  0.60194267  1
  Cl  Cl481  1  -0.02391094  0.56149343  0.63044509  1
  Cl  Cl482  1  -0.00374984  0.89501431  0.60242234  1
  Cl  Cl483  1  0.48719104  0.22257032  0.62062728  1
  Cl  Cl484  1  0.45829835  0.55826888  0.60959441  1
  Cl  Cl485  1  0.49570757  0.88733138  0.62560570  1
  Cl  Cl486  1  0.02686463  0.10705597  0.11855212  1
  Cl  Cl487  1  0.00599163  0.44284482  0.11762366  1
  Cl  Cl488  1  -0.00446310  0.77375591  0.10561967  1
  Cl  Cl489  1  0.53105670  0.10905092  0.10052299  1
  Cl  Cl490  1  0.50627788  0.45073248  0.12611809  1
  Cl  Cl491  1  0.50092849  0.77409287  0.10860041  1
  Cl  Cl492  1  0.00044789  0.21527940  0.87655167  1
  Cl  Cl493  1  -0.02142421  0.56337929  0.90224416  1
  Cl  Cl494  1  0.00491151  0.89015988  0.87526421  1
  Cl  Cl495  1  0.50117301  0.21923726  0.88654224  1
  Cl  Cl496  1  0.48508786  0.56136385  0.88483165  1
  Cl  Cl497  1  0.50508620  0.88978239  0.89446433  1
  Cl  Cl498  1  0.00044882  0.11037547  0.39886769  1
  Cl  Cl499  1  0.01437566  0.44406900  0.39223603  1
  Cl  Cl500  1  -0.01116420  0.76540035  0.38287473  1
  Cl  Cl501  1  0.50122428  0.10989179  0.36597972  1
  Cl  Cl502  1  0.51228537  0.44883046  0.38821994  1
  Cl  Cl503  1  0.48843560  0.78011856  0.38764173  1
  Cl  Cl504  1  0.35024009  0.15232132  0.75627431  1
  Cl  Cl505  1  0.34852578  0.48800381  0.74970766  1
  Cl  Cl506  1  0.35900023  0.81433691  0.74114307  1
  Cl  Cl507  1  0.85911673  0.14613312  0.74549321  1
  Cl  Cl508  1  0.85257366  0.48364710  0.74803149  1
  Cl  Cl509  1  0.85237214  0.81860568  0.75573080  1
  Cl  Cl510  1  0.13916296  0.18547477  0.25392730  1
  Cl  Cl511  1  0.14329600  0.52004913  0.24798099  1
  Cl  Cl512  1  0.12989211  0.85756062  0.26010558  1
  Cl  Cl513  1  0.64075672  0.18315509  0.25829870  1
  Cl  Cl514  1  0.63995020  0.52152707  0.24988427  1
  Cl  Cl515  1  0.64037152  0.85264394  0.25618551  1
  Cl  Cl516  1  0.12721443  0.14780426  0.73249238  1
  Cl  Cl517  1  0.12967768  0.48130595  0.73862986  1
  Cl  Cl518  1  0.13751355  0.81164580  0.74802236  1
  Cl  Cl519  1  0.63965842  0.14957669  0.74464806  1
  Cl  Cl520  1  0.63104076  0.47977149  0.75009984  1
  Cl  Cl521  1  0.62980174  0.81184554  0.74587128  1
  Cl  Cl522  1  0.36240488  0.18411080  0.24683762  1
  Cl  Cl523  1  0.36585630  0.51877193  0.25614205  1
  Cl  Cl524  1  0.35382853  0.84611172  0.24510604  1
  Cl  Cl525  1  0.86146792  0.18168262  0.23503259  1
  Cl  Cl526  1  0.85809347  0.51389118  0.24756392  1
  Cl  Cl527  1  0.86467564  0.85106713  0.25441179  1
  Cl  Cl528  1  0.10966974  0.31363277  0.74365049  1
  Cl  Cl529  1  0.11106901  0.64416835  0.75647578  1
  Cl  Cl530  1  0.10649479  0.98166811  0.74816174  1
  Cl  Cl531  1  0.60493562  0.31406709  0.73967165  1
  Cl  Cl532  1  0.61300848  0.64280848  0.75288654  1
  Cl  Cl533  1  0.60521908  0.98203535  0.74502046  1
  Cl  Cl534  1  0.39284493  0.01715071  0.24847896  1
  Cl  Cl535  1  0.38930221  0.35395959  0.24259337  1
  Cl  Cl536  1  0.40025784  0.68020792  0.24625612  1
  Cl  Cl537  1  0.89154392  0.01908149  0.24649820  1
  Cl  Cl538  1  0.89278437  0.35055054  0.25724480  1
  Cl  Cl539  1  0.89370168  0.68269747  0.24114981  1
  Cl  Cl540  1  0.38581593  0.31816273  0.75429255  1
  Cl  Cl541  1  0.39438876  0.65331848  0.75405268  1
  Cl  Cl542  1  0.38229121  0.98290989  0.75543731  1
  Cl  Cl543  1  0.88562703  0.31748465  0.74646262  1
  Cl  Cl544  1  0.89048184  0.65369995  0.75743737  1
  Cl  Cl545  1  0.89064910  0.98258290  0.75838312  1
  Cl  Cl546  1  0.11182713  0.02021747  0.25075779  1
  Cl  Cl547  1  0.11176950  0.35207570  0.25752560  1
  Cl  Cl548  1  0.11580237  0.68616677  0.25455296  1
  Cl  Cl549  1  0.61321893  0.01366395  0.25381934  1
  Cl  Cl550  1  0.61260528  0.34949150  0.25385057  1
  Cl  Cl551  1  0.61736222  0.68868645  0.24325854  1
