# generated using pymatgen
data_H8PbC4(N3Cl2)2
_symmetry_space_group_name_H-M   'P 1'
_cell_length_a   16.62052883
_cell_length_b   22.49755225
_cell_length_c   21.58770585
_cell_angle_alpha   90.00042496
_cell_angle_beta   89.99460431
_cell_angle_gamma   89.99778509
_symmetry_Int_Tables_number   1
_chemical_formula_structural   H8PbC4(N3Cl2)2
_chemical_formula_sum   'H192 Pb24 C96 N144 Cl96'
_cell_volume   8072.10117474
_cell_formula_units_Z   24
loop_
 _symmetry_equiv_pos_site_id
 _symmetry_equiv_pos_as_xyz
  1  'x, y, z'
loop_
 _atom_site_type_symbol
 _atom_site_label
 _atom_site_symmetry_multiplicity
 _atom_site_fract_x
 _atom_site_fract_y
 _atom_site_fract_z
 _atom_site_occupancy
  H  H0  1  0.00478475  0.03292565  0.67944094  1
  H  H1  1  -0.00260589  0.36654489  0.68095596  1
  H  H2  1  0.00036164  0.69945138  0.68274007  1
  H  H3  1  0.49870839  0.03314238  0.68156669  1
  H  H4  1  0.50430470  0.36666931  0.68191401  1
  H  H5  1  0.49794991  0.70027570  0.68168299  1
  H  H6  1  -0.00404467  0.30116995  0.18056742  1
  H  H7  1  -0.00198829  0.63278194  0.18082433  1
  H  H8  1  -0.00330667  0.96708708  0.18201325  1
  H  H9  1  0.50211708  0.30091308  0.18327846  1
  H  H10  1  0.49642753  0.63316480  0.18149417  1
  H  H11  1  0.50396772  0.96641405  0.18312467  1
  H  H12  1  -0.00619488  0.03405874  0.82043120  1
  H  H13  1  0.00101883  0.36623350  0.81872074  1
  H  H14  1  0.00515539  0.69955940  0.81724100  1
  H  H15  1  0.50248465  0.03173496  0.81809076  1
  H  H16  1  0.49866763  0.36647895  0.81748177  1
  H  H17  1  0.49218285  0.70001055  0.81673023  1
  H  H18  1  -0.00135694  0.30017130  0.31761754  1
  H  H19  1  -0.00018454  0.63422434  0.31783842  1
  H  H20  1  0.00049733  0.96693492  0.31772465  1
  H  H21  1  0.49412491  0.30103465  0.31790190  1
  H  H22  1  0.49825760  0.63380043  0.32013656  1
  H  H23  1  0.50158588  0.96704346  0.31769000  1
  H  H24  1  0.25327271  0.19962623  0.68288786  1
  H  H25  1  0.25151771  0.53320324  0.67977347  1
  H  H26  1  0.25104324  0.86768897  0.67871979  1
  H  H27  1  0.74775693  0.19950040  0.68140940  1
  H  H28  1  0.75099146  0.53294460  0.67982980  1
  H  H29  1  0.74425570  0.86520434  0.68164835  1
  H  H30  1  0.24826301  0.13388282  0.18347301  1
  H  H31  1  0.24680485  0.46672772  0.18079601  1
  H  H32  1  0.24915740  0.80142254  0.17997350  1
  H  H33  1  0.74738039  0.13295230  0.18267277  1
  H  H34  1  0.75302872  0.46636296  0.17992029  1
  H  H35  1  0.75004312  0.80057712  0.18260953  1
  H  H36  1  0.25347597  0.19942075  0.81853562  1
  H  H37  1  0.25190192  0.53270812  0.81938283  1
  H  H38  1  0.24588010  0.86822363  0.81822865  1
  H  H39  1  0.74884609  0.19981157  0.81607998  1
  H  H40  1  0.75476930  0.53364775  0.81794678  1
  H  H41  1  0.75212024  0.86674273  0.81939282  1
  H  H42  1  0.24406316  0.13292921  0.31683632  1
  H  H43  1  0.25012850  0.46608855  0.32043533  1
  H  H44  1  0.25637009  0.80034954  0.31786262  1
  H  H45  1  0.75288582  0.13403526  0.32123873  1
  H  H46  1  0.74855321  0.46683623  0.31818125  1
  H  H47  1  0.74498848  0.80014425  0.31780430  1
  H  H48  1  0.11949429  0.05712161  0.60094106  1
  H  H49  1  0.12492370  0.38731475  0.61121146  1
  H  H50  1  0.12699872  0.71939486  0.61505388  1
  H  H51  1  0.62682123  0.05337817  0.61463751  1
  H  H52  1  0.62283059  0.38980535  0.60423510  1
  H  H53  1  0.62892756  0.71876196  0.61692531  1
  H  H54  1  0.37534794  0.28110440  0.11472013  1
  H  H55  1  0.38122978  0.60935904  0.10198140  1
  H  H56  1  0.37633511  0.94600039  0.11277690  1
  H  H57  1  0.88020550  0.27815916  0.10187796  1
  H  H58  1  0.87952133  0.61015839  0.10425612  1
  H  H59  1  0.87834770  0.94577007  0.10531981  1
  H  H60  1  0.37258014  0.05149645  0.88306380  1
  H  H61  1  0.37509399  0.38810457  0.88934166  1
  H  H62  1  0.37826975  0.72327610  0.89630957  1
  H  H63  1  0.87578488  0.05442904  0.89458733  1
  H  H64  1  0.87614723  0.38851791  0.89137003  1
  H  H65  1  0.87322005  0.71912841  0.88329597  1
  H  H66  1  0.12839164  0.28094683  0.38387457  1
  H  H67  1  0.12503704  0.61271260  0.39017021  1
  H  H68  1  0.12467896  0.94561166  0.39047883  1
  H  H69  1  0.62852893  0.28111492  0.37991430  1
  H  H70  1  0.62681755  0.61292239  0.38900922  1
  H  H71  1  0.62099385  0.94586660  0.39356960  1
  H  H72  1  0.37080691  0.22011909  0.60726641  1
  H  H73  1  0.37255686  0.55590039  0.60662901  1
  H  H74  1  0.37524357  0.88697912  0.60915083  1
  H  H75  1  0.87117366  0.22105614  0.60915554  1
  H  H76  1  0.87334129  0.55458257  0.60645400  1
  H  H77  1  0.87598491  0.88578404  0.61731926  1
  H  H78  1  0.12488978  0.11351222  0.11145195  1
  H  H79  1  0.12697053  0.44552473  0.10442943  1
  H  H80  1  0.12545293  0.77672824  0.11005730  1
  H  H81  1  0.62943763  0.11091883  0.10576811  1
  H  H82  1  0.62471484  0.44689734  0.11166360  1
  H  H83  1  0.62506062  0.77978898  0.11160859  1
  H  H84  1  0.12192108  0.21834761  0.88423514  1
  H  H85  1  0.11994166  0.55266479  0.88324606  1
  H  H86  1  0.12303609  0.88846681  0.89108919  1
  H  H87  1  0.62530563  0.22057927  0.88664476  1
  H  H88  1  0.61885154  0.55164312  0.87750541  1
  H  H89  1  0.62282048  0.88641840  0.88525608  1
  H  H90  1  0.37934799  0.11571000  0.37709383  1
  H  H91  1  0.37397981  0.44472698  0.39143087  1
  H  H92  1  0.36852518  0.77905718  0.39679327  1
  H  H93  1  0.87595952  0.11191246  0.39283432  1
  H  H94  1  0.87543684  0.44587992  0.38725052  1
  H  H95  1  0.87291186  0.77965654  0.38765114  1
  H  H96  1  0.38066524  0.27811336  0.39697540  1
  H  H97  1  0.37868500  0.61133224  0.39601169  1
  H  H98  1  0.37138891  0.94744802  0.38606543  1
  H  H99  1  0.87900780  0.27941805  0.39061790  1
  H  H100  1  0.87651148  0.61160270  0.39176684  1
  H  H101  1  0.87524076  0.94584039  0.38850391  1
  H  H102  1  0.12403485  0.05129486  0.88426025  1
  H  H103  1  0.12507493  0.38813261  0.89234255  1
  H  H104  1  0.12214483  0.72187565  0.89522788  1
  H  H105  1  0.62204630  0.05478573  0.89373422  1
  H  H106  1  0.62439602  0.38820963  0.88811298  1
  H  H107  1  0.62645610  0.71830237  0.88026104  1
  H  H108  1  0.12835950  0.28184138  0.11772104  1
  H  H109  1  0.12837704  0.61262237  0.11594248  1
  H  H110  1  0.12763450  0.94725274  0.11443186  1
  H  H111  1  0.62552159  0.27859881  0.11005726  1
  H  H112  1  0.62993853  0.61469826  0.12021766  1
  H  H113  1  0.62476976  0.94413455  0.10672013  1
  H  H114  1  0.37776902  0.05250106  0.60920281  1
  H  H115  1  0.37475900  0.38769306  0.61367938  1
  H  H116  1  0.37970819  0.72041171  0.60767255  1
  H  H117  1  0.87143742  0.05037161  0.61641731  1
  H  H118  1  0.87611893  0.38860380  0.60793134  1
  H  H119  1  0.87741445  0.71880678  0.61124103  1
  H  H120  1  0.13099856  0.11172522  0.39542586  1
  H  H121  1  0.12525329  0.44696852  0.39124863  1
  H  H122  1  0.12049722  0.78332343  0.37744763  1
  H  H123  1  0.62688410  0.11204264  0.39013700  1
  H  H124  1  0.62603862  0.44581384  0.39254067  1
  H  H125  1  0.62427466  0.77778205  0.39429940  1
  H  H126  1  0.36998922  0.22355993  0.89753811  1
  H  H127  1  0.36872025  0.55608206  0.89724328  1
  H  H128  1  0.37231781  0.88653214  0.88514504  1
  H  H129  1  0.87513930  0.21848571  0.88447232  1
  H  H130  1  0.86723949  0.55505611  0.89727743  1
  H  H131  1  0.87201016  0.88943786  0.89489399  1
  H  H132  1  0.37404825  0.11254574  0.11199264  1
  H  H133  1  0.37582823  0.44632931  0.11430886  1
  H  H134  1  0.37436471  0.78167008  0.10884772  1
  H  H135  1  0.87863934  0.11419860  0.11546546  1
  H  H136  1  0.87407362  0.44557213  0.10596653  1
  H  H137  1  0.87421124  0.77873158  0.10989065  1
  H  H138  1  0.12204512  0.21874548  0.62004325  1
  H  H139  1  0.12341071  0.55329261  0.61161619  1
  H  H140  1  0.12628153  0.88639426  0.60997503  1
  H  H141  1  0.62252956  0.22077637  0.60953354  1
  H  H142  1  0.62397027  0.55442015  0.61227739  1
  H  H143  1  0.62799743  0.88880355  0.60254697  1
  H  H144  1  0.93848720  0.92141935  -0.00375187  1
  H  H145  1  0.06031589  0.74736233  1.00287851  1
  H  H146  1  0.94063775  0.58424979  -0.00054987  1
  H  H147  1  0.43470813  0.74725292  0.49588777  1
  H  H148  1  0.16735928  0.58304314  0.50593286  1
  H  H149  1  0.56186648  0.91851387  0.50233974  1
  H  H150  1  0.83089451  0.41787586  0.49715018  1
  H  H151  1  0.60325981  0.58576760  0.00687105  1
  H  H152  1  0.17746371  0.76424727  0.00282722  1
  H  H153  1  0.81290895  0.91535448  1.00010387  1
  H  H154  1  0.90356884  0.08462797  0.51165258  1
  H  H155  1  0.40889302  0.07921237  0.99501743  1
  H  H156  1  0.33191487  0.91479424  0.99834712  1
  H  H157  1  0.15156758  0.24711392  0.50700148  1
  H  H158  1  0.42374236  0.08139480  0.49878178  1
  H  H159  1  0.58399427  0.58605923  0.49425586  1
  H  H160  1  0.42028640  0.25648887  0.00146997  1
  H  H161  1  0.42374937  0.41572022  0.99851560  1
  H  H162  1  0.32155734  0.74615013  0.00686200  1
  H  H163  1  0.82070906  0.58355339  0.50255435  1
  H  H164  1  0.44346871  0.75024139  1.00312460  1
  H  H165  1  0.94547182  0.25282385  -0.00234606  1
  H  H166  1  0.67197753  0.24918133  0.50553242  1
  H  H167  1  0.17308963  0.08492407  0.00254791  1
  H  H168  1  0.67037959  0.08379098  0.49541572  1
  H  H169  1  0.17344655  0.41244832  0.49215474  1
  H  H170  1  0.30591898  0.75353747  0.50613456  1
  H  H171  1  0.67322805  0.75175818  0.00240513  1
  H  H172  1  0.69360062  0.91181066  0.49952977  1
  H  H173  1  0.80440710  0.58210318  1.00582924  1
  H  H174  1  0.32439600  0.42480231  0.49673193  1
  H  H175  1  0.09007323  0.74891226  0.50367482  1
  H  H176  1  0.44512905  0.25143188  0.50398579  1
  H  H177  1  0.05305215  0.07097288  0.49743898  1
  H  H178  1  0.92954489  0.25265420  0.50124884  1
  H  H179  1  0.19231252  0.08486720  0.50442069  1
  H  H180  1  0.30542261  0.57998565  1.00189225  1
  H  H181  1  0.31575231  0.24530902  0.49702747  1
  H  H182  1  0.92361421  0.91735353  0.49776130  1
  H  H183  1  0.56461681  0.07374243  0.99950730  1
  H  H184  1  0.66811691  0.41963770  0.00540651  1
  H  H185  1  0.67444180  0.24169472  1.00079603  1
  H  H186  1  0.83142060  0.24274965  0.99828460  1
  H  H187  1  0.57004603  0.26327884  0.00239344  1
  H  H188  1  0.68977878  0.08488797  -0.00267403  1
  H  H189  1  0.44505059  0.58381257  -0.00089296  1
  H  H190  1  0.30380202  0.24817763  1.00084072  1
  H  H191  1  0.92311371  0.74721905  0.50112034  1
  Pb  Pb192  1  0.24889799  0.04596714  0.74743789  1
  Pb  Pb193  1  0.24764955  0.38309567  0.74643676  1
  Pb  Pb194  1  0.25003964  0.71624090  0.75486435  1
  Pb  Pb195  1  0.74873482  0.04795618  0.75144407  1
  Pb  Pb196  1  0.75155429  0.38256138  0.75097802  1
  Pb  Pb197  1  0.75176135  0.71371194  0.75098376  1
  Pb  Pb198  1  0.25123708  0.28597085  0.25003534  1
  Pb  Pb199  1  0.25118698  0.61743221  0.25147882  1
  Pb  Pb200  1  0.25073294  0.95210319  0.24912005  1
  Pb  Pb201  1  0.75278998  0.28561411  0.24828903  1
  Pb  Pb202  1  0.75190232  0.61832963  0.25193007  1
  Pb  Pb203  1  0.75030428  0.95142099  0.24902518  1
  Pb  Pb204  1  -0.00022709  0.21434196  0.75229664  1
  Pb  Pb205  1  -0.00125068  0.54815505  0.75244513  1
  Pb  Pb206  1  -0.00097743  0.88155920  0.75211187  1
  Pb  Pb207  1  0.49722519  0.21610763  0.75200596  1
  Pb  Pb208  1  0.49848770  0.54879015  0.75105620  1
  Pb  Pb209  1  0.50150076  0.88014577  0.74748797  1
  Pb  Pb210  1  0.00092449  0.11815486  0.25613635  1
  Pb  Pb211  1  -0.00012449  0.45262261  0.24993728  1
  Pb  Pb212  1  -0.00068157  0.78564348  0.24766174  1
  Pb  Pb213  1  0.50287639  0.11889914  0.24544417  1
  Pb  Pb214  1  0.50161155  0.45220558  0.24962058  1
  Pb  Pb215  1  0.50032689  0.78451083  0.25088650  1
  C  C216  1  -0.00158077  0.04679591  0.63136506  1
  C  C217  1  -0.00013430  0.38061702  0.63320004  1
  C  C218  1  0.00164473  0.71330188  0.63456246  1
  C  C219  1  0.50070894  0.04695211  0.63354605  1
  C  C220  1  0.50068100  0.38097700  0.63402193  1
  C  C221  1  0.50190931  0.71382767  0.63371429  1
  C  C222  1  0.00122342  0.28723233  0.13282169  1
  C  C223  1  0.00174149  0.61890486  0.13295385  1
  C  C224  1  0.00106448  0.95328913  0.13398308  1
  C  C225  1  0.50164561  0.28673524  0.13512058  1
  C  C226  1  0.50241760  0.61896829  0.13355393  1
  C  C227  1  0.50181232  0.95261476  0.13498057  1
  C  C228  1  -0.00201288  0.04711483  0.86856099  1
  C  C229  1  0.00070259  0.38077429  0.86659732  1
  C  C230  1  0.00006784  0.71387249  0.86502080  1
  C  C231  1  0.49937194  0.04634998  0.86601328  1
  C  C232  1  0.49951164  0.38111068  0.86533688  1
  C  C233  1  0.49922850  0.71390296  0.86454668  1
  C  C234  1  0.00163684  0.28646313  0.36561041  1
  C  C235  1  0.00038603  0.61977016  0.36577142  1
  C  C236  1  0.00011180  0.95254870  0.36562870  1
  C  C237  1  0.50142267  0.28640482  0.36542378  1
  C  C238  1  0.50158463  0.61939984  0.36803610  1
  C  C239  1  0.49778834  0.95308660  0.36571045  1
  C  C240  1  0.24842495  0.21365765  0.63490467  1
  C  C241  1  0.24875758  0.54750901  0.63196991  1
  C  C242  1  0.25087197  0.88078908  0.63022736  1
  C  C243  1  0.74676616  0.21416675  0.63356715  1
  C  C244  1  0.74983138  0.54744221  0.63199525  1
  C  C245  1  0.74911730  0.87963168  0.63387921  1
  C  C246  1  0.24931070  0.11964115  0.13552023  1
  C  C247  1  0.24967374  0.45251995  0.13303573  1
  C  C248  1  0.24977771  0.78613615  0.13218428  1
  C  C249  1  0.75202077  0.11900059  0.13468478  1
  C  C250  1  0.75019424  0.45239949  0.13198709  1
  C  C251  1  0.74989170  0.78626630  0.13470088  1
  C  C252  1  0.24880316  0.21382515  0.86634364  1
  C  C253  1  0.24699163  0.54675724  0.86719366  1
  C  C254  1  0.24766963  0.88119406  0.86649395  1
  C  C255  1  0.74969769  0.21374552  0.86422786  1
  C  C256  1  0.74712456  0.54685982  0.86587482  1
  C  C257  1  0.74925117  0.88074667  0.86730024  1
  C  C258  1  0.25126115  0.11987023  0.36480745  1
  C  C259  1  0.24976816  0.45235945  0.36871866  1
  C  C260  1  0.24867047  0.78715773  0.36576793  1
  C  C261  1  0.75153091  0.11925101  0.36900232  1
  C  C262  1  0.74992325  0.45250424  0.36607146  1
  C  C263  1  0.74730539  0.78607781  0.36580645  1
  C  C264  1  0.21021663  0.90354384  0.53761327  1
  C  C265  1  0.21309845  0.09507144  0.04185573  1
  C  C266  1  0.72343873  0.09474418  0.03934232  1
  C  C267  1  0.70028089  0.90669001  0.95919938  1
  C  C268  1  0.77092375  0.57201551  0.96375596  1
  C  C269  1  0.78986926  0.42784984  0.45868923  1
  C  C270  1  0.97206073  0.92998042  0.03861443  1
  C  C271  1  0.04574282  0.73799116  0.54102535  1
  C  C272  1  0.96498025  0.40664104  0.53902230  1
  C  C273  1  0.69009565  0.57063497  0.95487206  1
  C  C274  1  0.79278097  0.23579663  0.95830818  1
  C  C275  1  0.45754158  0.26196251  0.04258908  1
  C  C276  1  0.79162837  0.09309401  0.46350175  1
  C  C277  1  0.19800517  0.23705670  0.54299329  1
  C  C278  1  0.96258637  0.92782996  0.45885553  1
  C  C279  1  0.02723731  0.73810426  0.96055679  1
  C  C280  1  0.05233633  0.59284681  0.04155086  1
  C  C281  1  0.05481318  0.26061582  0.04265278  1
  C  C282  1  0.46506006  0.07149955  0.53770764  1
  C  C283  1  0.28674641  0.57503989  0.53747327  1
  C  C284  1  0.55651389  0.59547589  0.04344075  1
  C  C285  1  0.70377590  0.57396056  0.53931087  1
  C  C286  1  0.20897944  0.90457314  0.96114742  1
  C  C287  1  0.46361441  0.40559175  0.95915833  1
  C  C288  1  0.96341570  0.73769453  0.53960250  1
  C  C289  1  0.47748257  0.26109230  0.46127514  1
  C  C290  1  0.30682421  0.09756042  0.45452293  1
  C  C291  1  0.19178837  0.76437274  0.45516170  1
  C  C292  1  0.45096903  0.07095200  0.95736384  1
  C  C293  1  0.29061599  0.90386963  0.53745266  1
  C  C294  1  0.54669946  0.07159221  0.54101971  1
  C  C295  1  0.78778481  0.42667261  0.03675634  1
  C  C296  1  0.19468441  0.57276254  0.95809079  1
  C  C297  1  0.52784608  0.92882710  0.46060760  1
  C  C298  1  0.22590895  0.09549544  0.46253139  1
  C  C299  1  0.27276818  0.76264786  0.46369724  1
  C  C300  1  0.55134268  0.73767636  0.54247764  1
  C  C301  1  0.29349691  0.42624891  0.04161035  1
  C  C302  1  0.04964256  0.26252311  0.45773960  1
  C  C303  1  0.96534387  0.07198039  0.96298937  1
  C  C304  1  0.47506435  0.73903773  0.96044878  1
  C  C305  1  0.47012895  0.73810364  0.53714766  1
  C  C306  1  0.29058385  0.90479883  0.96072449  1
  C  C307  1  0.04636150  0.07093290  0.95958364  1
  C  C308  1  0.71069393  0.23619043  0.95931380  1
  C  C309  1  0.96794925  0.26193563  0.46170254  1
  C  C310  1  0.27991601  0.23706709  0.53824939  1
  C  C311  1  0.71252780  0.76195852  0.04132415  1
  N  N312  1  0.29261015  0.09520666  0.04143370  1
  N  N313  1  0.27432712  0.23952844  0.96024356  1
  N  N314  1  0.79036115  0.76182955  0.45896786  1
  N  N315  1  0.72381836  0.90668793  0.54041647  1
  N  N316  1  0.71055288  0.42791151  0.46115067  1
  N  N317  1  0.27350012  0.57321842  0.96184129  1
  N  N318  1  0.96197454  0.40590926  0.96063228  1
  N  N319  1  0.54320041  0.59566620  0.45917358  1
  N  N320  1  0.53206339  0.40636384  0.53840142  1
  N  N321  1  0.71004043  0.23763197  0.54126324  1
  N  N322  1  0.78308911  0.57367653  0.53849201  1
  N  N323  1  0.04193385  0.92827210  0.46000306  1
  N  N324  1  0.94824383  0.73721386  0.95676982  1
  N  N325  1  0.97621204  0.25995785  0.03811842  1
  N  N326  1  0.80186630  0.90456478  0.54372393  1
  N  N327  1  0.28886434  0.77057840  0.03803835  1
  N  N328  1  0.77925595  0.90683424  0.96143853  1
  N  N329  1  0.70882807  0.42757783  0.03997209  1
  N  N330  1  0.78853528  0.23872247  0.53985110  1
  N  N331  1  0.46508317  0.59493974  0.46319415  1
  N  N332  1  0.03817033  0.40641981  0.96079229  1
  N  N333  1  0.04025440  0.59532266  0.45983219  1
  N  N334  1  0.20769981  0.57362494  0.54024405  1
  N  N335  1  0.45542783  0.40556689  0.54146316  1
  N  N336  1  0.55411616  0.73718384  0.95522177  1
  N  N337  1  0.94692777  0.06700311  0.54168700  1
  N  N338  1  0.21035905  0.43578345  0.46270931  1
  N  N339  1  0.45917874  0.92871637  0.04155857  1
  N  N340  1  0.96325971  0.59477795  0.46034344  1
  N  N341  1  0.71367660  0.76122675  0.46103355  1
  N  N342  1  0.53578389  0.92838466  0.03958109  1
  N  N343  1  0.97344124  0.59299923  0.03849486  1
  N  N344  1  0.05120333  0.92985723  0.04186775  1
  N  N345  1  0.54320735  0.40511780  0.95955054  1
  N  N346  1  0.80257849  0.09572734  0.04259093  1
  N  N347  1  0.19664860  0.23737830  0.95699278  1
  N  N348  1  0.79185513  0.76191787  0.04026955  1
  N  N349  1  0.21084212  0.75600407  0.04174720  1
  N  N350  1  0.53068635  0.07341332  0.95987288  1
  N  N351  1  0.04288691  0.40592995  0.53905956  1
  N  N352  1  0.53733671  0.25898366  0.04225026  1
  N  N353  1  0.71230540  0.09314401  0.46127063  1
  N  N354  1  0.21601203  0.42596175  0.03712832  1
  N  N355  1  0.55655748  0.26161175  0.45577510  1
  N  N356  1  0.28824428  0.42026628  0.45843355  1
  N  N357  1  0.44870219  0.92962802  0.45810993  1
  N  N358  1  0.47714449  0.59408445  0.03829320  1
  N  N359  1  0.02525786  0.07929162  0.53897286  1
  N  N360  1  0.05753786  0.05592019  0.59137629  1
  N  N361  1  0.06447929  0.38949594  0.59890116  1
  N  N362  1  0.06765843  0.72277954  0.60039208  1
  N  N363  1  0.56764758  0.05680283  0.59911449  1
  N  N364  1  0.56132360  0.39137772  0.59562156  1
  N  N365  1  0.57015177  0.72309813  0.60071525  1
  N  N366  1  0.43522708  0.27704185  0.10045711  1
  N  N367  1  0.44363350  0.60862523  0.09376880  1
  N  N368  1  0.43699674  0.94376052  0.10059422  1
  N  N369  1  0.94173983  0.27768199  0.09338805  1
  N  N370  1  0.94107306  0.60972278  0.09454144  1
  N  N371  1  0.93952214  0.94388147  0.09493962  1
  N  N372  1  0.43154176  0.05594041  0.89878073  1
  N  N373  1  0.43558840  0.39092172  0.90173566  1
  N  N374  1  0.43983280  0.72458747  0.90521003  1
  N  N375  1  0.93578825  0.05760237  0.90753748  1
  N  N376  1  0.93712753  0.39039227  0.90223875  1
  N  N377  1  0.93315272  0.72250079  0.89719387  1
  N  N378  1  0.06939871  0.27732324  0.39946204  1
  N  N379  1  0.06417333  0.61073002  0.40137043  1
  N  N380  1  0.06345393  0.94316324  0.40158428  1
  N  N381  1  0.56948270  0.27750409  0.39564588  1
  N  N382  1  0.56673854  0.61045923  0.40181527  1
  N  N383  1  0.55974978  0.94312599  0.40420375  1
  N  N384  1  0.31003571  0.22266512  0.59595522  1
  N  N385  1  0.31250583  0.55875562  0.59397340  1
  N  N386  1  0.31616366  0.89011763  0.59400005  1
  N  N387  1  0.81043839  0.22366029  0.59750817  1
  N  N388  1  0.81226667  0.55719306  0.59570677  1
  N  N389  1  0.81675359  0.88954483  0.60266177  1
  N  N390  1  0.18535354  0.10988535  0.09919593  1
  N  N391  1  0.18853279  0.44240080  0.09538392  1
  N  N392  1  0.18576656  0.77778631  0.09674635  1
  N  N393  1  0.69065148  0.10890234  0.09560932  1
  N  N394  1  0.68479092  0.44329780  0.09865110  1
  N  N395  1  0.68513282  0.77677997  0.09899680  1
  N  N396  1  0.18123059  0.22218177  0.89820255  1
  N  N397  1  0.17813686  0.55682760  0.89940372  1
  N  N398  1  0.18321766  0.89057102  0.90426583  1
  N  N399  1  0.68502944  0.22264305  0.90036935  1
  N  N400  1  0.67620932  0.55543191  0.89565348  1
  N  N401  1  0.68152438  0.89063794  0.90105351  1
  N  N402  1  0.32170285  0.11210800  0.39547612  1
  N  N403  1  0.31361549  0.44451511  0.40449680  1
  N  N404  1  0.30727503  0.77690944  0.40661901  1
  N  N405  1  0.81600978  0.10902367  0.40615846  1
  N  N406  1  0.81554595  0.44279885  0.40067186  1
  N  N407  1  0.81230253  0.77712648  0.39997364  1
  N  N408  1  0.44223241  0.27569474  0.40611096  1
  N  N409  1  0.43972622  0.60976005  0.40604100  1
  N  N410  1  0.43183426  0.94444309  0.39897932  1
  N  N411  1  0.93935283  0.27678458  0.40313407  1
  N  N412  1  0.93767301  0.60983227  0.40218439  1
  N  N413  1  0.93526052  0.94288027  0.40120846  1
  N  N414  1  0.06583818  0.05568107  0.90157352  1
  N  N415  1  0.06388888  0.39072820  0.90259973  1
  N  N416  1  0.06091913  0.72406994  0.90450614  1
  N  N417  1  0.56041475  0.05563010  0.90396573  1
  N  N418  1  0.56367191  0.39023939  0.90031145  1
  N  N419  1  0.56712290  0.72176607  0.89542738  1
  N  N420  1  0.07055138  0.27711467  0.10113183  1
  N  N421  1  0.07011750  0.60895861  0.09994209  1
  N  N422  1  0.06742159  0.94451445  0.10118825  1
  N  N423  1  0.56446129  0.27826411  0.09866520  1
  N  N424  1  0.57209267  0.61085608  0.10271746  1
  N  N425  1  0.56347764  0.94296756  0.09732079  1
  N  N426  1  0.43764612  0.05600996  0.59656772  1
  N  N427  1  0.43490345  0.38962505  0.60070237  1
  N  N428  1  0.44018407  0.72324880  0.59538505  1
  N  N429  1  0.93032200  0.05651430  0.60136900  1
  N  N430  1  0.93649479  0.39122202  0.59576329  1
  N  N431  1  0.93758709  0.72247905  0.59822492  1
  N  N432  1  0.19218663  0.10984675  0.40532867  1
  N  N433  1  0.18560984  0.44212167  0.40332725  1
  N  N434  1  0.17792655  0.77911263  0.39594635  1
  N  N435  1  0.68723272  0.10931706  0.40307555  1
  N  N436  1  0.68727934  0.44313454  0.40286818  1
  N  N437  1  0.68574758  0.77609609  0.40351721  1
  N  N438  1  0.30818471  0.22435152  0.90567691  1
  N  N439  1  0.30687790  0.55605517  0.90631041  1
  N  N440  1  0.31338847  0.88992103  0.90067319  1
  N  N441  1  0.81560759  0.22192992  0.89903031  1
  N  N442  1  0.80559172  0.55682843  0.90679298  1
  N  N443  1  0.81059709  0.89038061  0.90493829  1
  N  N444  1  0.31345046  0.11043934  0.10040197  1
  N  N445  1  0.31672057  0.44244212  0.09951142  1
  N  N446  1  0.31388335  0.77533692  0.09745896  1
  N  N447  1  0.81845076  0.11045230  0.10199599  1
  N  N448  1  0.81371561  0.44209134  0.09368756  1
  N  N449  1  0.81331368  0.77677414  0.09882589  1
  N  N450  1  0.18026245  0.22255335  0.60333777  1
  N  N451  1  0.18352811  0.55667695  0.59856570  1
  N  N452  1  0.18535441  0.88966704  0.59427821  1
  N  N453  1  0.68326051  0.22362861  0.59807974  1
  N  N454  1  0.68320219  0.55766349  0.59710417  1
  N  N455  1  0.69004389  0.88915809  0.59413330  1
  Cl  Cl456  1  0.24226259  0.05347376  0.61377981  1
  Cl  Cl457  1  0.25027416  0.39209393  0.60663885  1
  Cl  Cl458  1  0.25397121  0.71686317  0.62224722  1
  Cl  Cl459  1  0.74995582  0.05340362  0.61475967  1
  Cl  Cl460  1  0.75021331  0.38711406  0.61815999  1
  Cl  Cl461  1  0.75328125  0.71372587  0.62172132  1
  Cl  Cl462  1  0.25583642  0.27934798  0.11243051  1
  Cl  Cl463  1  0.25991708  0.61117580  0.10781363  1
  Cl  Cl464  1  0.25265592  0.94484802  0.11555106  1
  Cl  Cl465  1  0.75218556  0.28036134  0.11181388  1
  Cl  Cl466  1  0.75710089  0.61151367  0.11863829  1
  Cl  Cl467  1  0.75295731  0.94367522  0.11056649  1
  Cl  Cl468  1  0.24902946  0.05161309  0.87945205  1
  Cl  Cl469  1  0.25018893  0.38559378  0.87806304  1
  Cl  Cl470  1  0.25107851  0.72423314  0.89878447  1
  Cl  Cl471  1  0.74488407  0.05115114  0.88495158  1
  Cl  Cl472  1  0.74934739  0.38917404  0.88710702  1
  Cl  Cl473  1  0.74938992  0.71898994  0.88309488  1
  Cl  Cl474  1  0.25574799  0.28198947  0.38314907  1
  Cl  Cl475  1  0.25002430  0.60993137  0.38700064  1
  Cl  Cl476  1  0.24769907  0.94890826  0.37982277  1
  Cl  Cl477  1  0.75284444  0.27864576  0.38078741  1
  Cl  Cl478  1  0.75189765  0.60978556  0.38951013  1
  Cl  Cl479  1  0.74454879  0.94709398  0.38717493  1
  Cl  Cl480  1  -0.00600669  0.21697465  0.62021503  1
  Cl  Cl481  1  -0.00177087  0.55096657  0.62037412  1
  Cl  Cl482  1  -0.00074964  0.88819528  0.61986999  1
  Cl  Cl483  1  0.49853705  0.21961292  0.61766164  1
  Cl  Cl484  1  0.50012998  0.55542716  0.61891709  1
  Cl  Cl485  1  0.50768440  0.88693229  0.61196170  1
  Cl  Cl486  1  0.00182758  0.11918119  0.12471819  1
  Cl  Cl487  1  0.00026730  0.45073337  0.11841736  1
  Cl  Cl488  1  0.00262693  0.77782130  0.11373800  1
  Cl  Cl489  1  0.50349639  0.11097591  0.10660153  1
  Cl  Cl490  1  0.50050211  0.44831055  0.11488121  1
  Cl  Cl491  1  0.49588613  0.77777583  0.11484906  1
  Cl  Cl492  1  -0.00277991  0.22089626  0.88892643  1
  Cl  Cl493  1  -0.00856263  0.55709082  0.88961130  1
  Cl  Cl494  1  -0.00511506  0.88830132  0.88619862  1
  Cl  Cl495  1  0.49485796  0.22319393  0.89308351  1
  Cl  Cl496  1  0.48915955  0.55711277  0.89233770  1
  Cl  Cl497  1  0.49899236  0.88393731  0.87516885  1
  Cl  Cl498  1  0.00292239  0.10856445  0.39415552  1
  Cl  Cl499  1  0.00205218  0.44648523  0.38265136  1
  Cl  Cl500  1  -0.00518801  0.78069600  0.38072983  1
  Cl  Cl501  1  0.50450939  0.11469810  0.37785396  1
  Cl  Cl502  1  0.49784187  0.44885323  0.38043858  1
  Cl  Cl503  1  0.49831836  0.77905860  0.38412218  1
  Cl  Cl504  1  0.36186011  0.14259902  0.75071644  1
  Cl  Cl505  1  0.36174069  0.47588394  0.74872158  1
  Cl  Cl506  1  0.36119888  0.80902081  0.75066153  1
  Cl  Cl507  1  0.86114922  0.14271488  0.74847006  1
  Cl  Cl508  1  0.86092400  0.47539379  0.74888676  1
  Cl  Cl509  1  0.86143494  0.80877159  0.74868781  1
  Cl  Cl510  1  0.13852824  0.19170657  0.25167764  1
  Cl  Cl511  1  0.13944599  0.52458664  0.25046859  1
  Cl  Cl512  1  0.13791280  0.85750739  0.25017231  1
  Cl  Cl513  1  0.63652392  0.19114230  0.25018236  1
  Cl  Cl514  1  0.63755476  0.52427561  0.24923273  1
  Cl  Cl515  1  0.63797142  0.85832747  0.24952062  1
  Cl  Cl516  1  0.13703658  0.14346026  0.74985442  1
  Cl  Cl517  1  0.13872570  0.47565663  0.74923986  1
  Cl  Cl518  1  0.13849241  0.80864539  0.75014110  1
  Cl  Cl519  1  0.63833943  0.14196156  0.75003925  1
  Cl  Cl520  1  0.63630347  0.47643269  0.75268609  1
  Cl  Cl521  1  0.63723794  0.80863289  0.75160101  1
  Cl  Cl522  1  0.36371979  0.19033034  0.24851485  1
  Cl  Cl523  1  0.36141257  0.52412088  0.24922567  1
  Cl  Cl524  1  0.36093633  0.85736902  0.24863806  1
  Cl  Cl525  1  0.86144233  0.19017773  0.24987143  1
  Cl  Cl526  1  0.86258075  0.52393905  0.25067239  1
  Cl  Cl527  1  0.86182986  0.85805267  0.24933221  1
  Cl  Cl528  1  0.11208986  0.30852039  0.74769207  1
  Cl  Cl529  1  0.11323018  0.64207998  0.75016671  1
  Cl  Cl530  1  0.11153538  0.97660462  0.75196293  1
  Cl  Cl531  1  0.61078085  0.30776068  0.75340464  1
  Cl  Cl532  1  0.61266544  0.64170350  0.75132788  1
  Cl  Cl533  1  0.61291853  0.97578249  0.74849704  1
  Cl  Cl534  1  0.38697281  0.02498354  0.25046062  1
  Cl  Cl535  1  0.38849795  0.35740677  0.24860497  1
  Cl  Cl536  1  0.38825028  0.68987211  0.24947964  1
  Cl  Cl537  1  0.88809443  0.02532599  0.25113184  1
  Cl  Cl538  1  0.88770183  0.35759262  0.24934705  1
  Cl  Cl539  1  0.88758106  0.69105979  0.24950072  1
  Cl  Cl540  1  0.38882165  0.30817101  0.74882961  1
  Cl  Cl541  1  0.38741099  0.64222475  0.75161007  1
  Cl  Cl542  1  0.38788676  0.97685794  0.75122230  1
  Cl  Cl543  1  0.88647688  0.30903782  0.75139583  1
  Cl  Cl544  1  0.88718885  0.64275838  0.75143683  1
  Cl  Cl545  1  0.88690682  0.97592720  0.74750640  1
  Cl  Cl546  1  0.11158149  0.02442233  0.24948419  1
  Cl  Cl547  1  0.11504089  0.35667084  0.25038118  1
  Cl  Cl548  1  0.11384469  0.69083261  0.24790993  1
  Cl  Cl549  1  0.61200534  0.02498608  0.24894050  1
  Cl  Cl550  1  0.61246250  0.35765422  0.25049709  1
  Cl  Cl551  1  0.61181248  0.69014364  0.24939017  1
