# generated using pymatgen
data_H8PbC4(N3Cl2)2
_symmetry_space_group_name_H-M   'P 1'
_cell_length_a   16.62909280
_cell_length_b   22.51625465
_cell_length_c   21.59333932
_cell_angle_alpha   90.00102292
_cell_angle_beta   89.98875297
_cell_angle_gamma   89.99831818
_symmetry_Int_Tables_number   1
_chemical_formula_structural   H8PbC4(N3Cl2)2
_chemical_formula_sum   'H192 Pb24 C96 N144 Cl96'
_cell_volume   8085.08350048
_cell_formula_units_Z   24
loop_
 _symmetry_equiv_pos_site_id
 _symmetry_equiv_pos_as_xyz
  1  'x, y, z'
loop_
 _atom_site_type_symbol
 _atom_site_label
 _atom_site_symmetry_multiplicity
 _atom_site_fract_x
 _atom_site_fract_y
 _atom_site_fract_z
 _atom_site_occupancy
  H  H0  1  -0.00343890  0.03013106  0.67738590  1
  H  H1  1  -0.00448796  0.36249320  0.68149290  1
  H  H2  1  -0.00946098  0.69253580  0.67524140  1
  H  H3  1  0.49543617  0.02558117  0.67468364  1
  H  H4  1  0.51067533  0.36003907  0.67625573  1
  H  H5  1  0.50491151  0.69724763  0.67807571  1
  H  H6  1  -0.00076258  0.30274855  0.17843359  1
  H  H7  1  0.01250084  0.63779581  0.17813675  1
  H  H8  1  0.00017280  0.97054010  0.17737585  1
  H  H9  1  0.50907915  0.30321740  0.18038155  1
  H  H10  1  0.48764133  0.63470514  0.17355768  1
  H  H11  1  0.49395569  0.97430588  0.18194317  1
  H  H12  1  0.01405913  0.02991922  0.81767481  1
  H  H13  1  0.01117030  0.36195235  0.82468030  1
  H  H14  1  0.00071867  0.69810312  0.81766461  1
  H  H15  1  0.48838793  0.02941130  0.82383735  1
  H  H16  1  0.50203502  0.36574739  0.82209912  1
  H  H17  1  0.51233460  0.69318581  0.82275942  1
  H  H18  1  -0.00511193  0.30451051  0.32115984  1
  H  H19  1  0.00060874  0.63704681  0.32250195  1
  H  H20  1  -0.00103616  0.97459517  0.32509181  1
  H  H21  1  0.50024918  0.29980147  0.32582343  1
  H  H22  1  0.49540749  0.64037812  0.32621905  1
  H  H23  1  0.49923058  0.97184899  0.32145062  1
  H  H24  1  0.25397702  0.19658375  0.67833646  1
  H  H25  1  0.26600860  0.53188771  0.67450673  1
  H  H26  1  0.23967310  0.86344094  0.67571223  1
  H  H27  1  0.74890766  0.19241312  0.67628706  1
  H  H28  1  0.73881895  0.53387073  0.67940053  1
  H  H29  1  0.74259852  0.86023769  0.67795667  1
  H  H30  1  0.23531376  0.13405178  0.18407873  1
  H  H31  1  0.24299083  0.46704260  0.18146960  1
  H  H32  1  0.26056327  0.80411910  0.17735255  1
  H  H33  1  0.76112389  0.13217668  0.18045395  1
  H  H34  1  0.74826272  0.47260598  0.17405782  1
  H  H35  1  0.74377038  0.80574353  0.17954564  1
  H  H36  1  0.24956563  0.19674263  0.82632279  1
  H  H37  1  0.24948684  0.53121341  0.81925618  1
  H  H38  1  0.24926162  0.86111828  0.82306504  1
  H  H39  1  0.73673849  0.19797100  0.81982170  1
  H  H40  1  0.76289288  0.52802077  0.82317175  1
  H  H41  1  0.75721269  0.86533354  0.82008116  1
  H  H42  1  0.26183051  0.13982741  0.32410305  1
  H  H43  1  0.26073429  0.47330580  0.32296299  1
  H  H44  1  0.24491873  0.80636192  0.31962806  1
  H  H45  1  0.74274597  0.14374362  0.32363011  1
  H  H46  1  0.74260153  0.46829176  0.31648719  1
  H  H47  1  0.75650589  0.80476887  0.32034527  1
  H  H48  1  0.12693675  0.05024768  0.61542447  1
  H  H49  1  0.12086830  0.38755358  0.61437967  1
  H  H50  1  0.11820006  0.71834834  0.60865909  1
  H  H51  1  0.63155461  0.05127982  0.61928409  1
  H  H52  1  0.61248513  0.38973338  0.58940096  1
  H  H53  1  0.61501209  0.72449343  0.59847529  1
  H  H54  1  0.36869473  0.28401885  0.12541528  1
  H  H55  1  0.37196970  0.60720603  0.09715625  1
  H  H56  1  0.38360787  0.94285847  0.10259337  1
  H  H57  1  0.87432079  0.28076152  0.11073327  1
  H  H58  1  0.87082799  0.61500136  0.12892106  1
  H  H59  1  0.88520522  0.94216150  0.10046514  1
  H  H60  1  0.38392576  0.05988604  0.90764057  1
  H  H61  1  0.36922508  0.38559144  0.88099513  1
  H  H62  1  0.36983649  0.71236578  0.87274667  1
  H  H63  1  0.88039445  0.05378809  0.87891558  1
  H  H64  1  0.86830253  0.38221159  0.87279270  1
  H  H65  1  0.87159580  0.72192641  0.88516960  1
  H  H66  1  0.12798332  0.28255232  0.38248486  1
  H  H67  1  0.11707205  0.61152218  0.39698636  1
  H  H68  1  0.12099419  0.94568438  0.39598062  1
  H  H69  1  0.62741697  0.27868911  0.39101474  1
  H  H70  1  0.60605497  0.61107597  0.40661521  1
  H  H71  1  0.61962897  0.94427877  0.39505906  1
  H  H72  1  0.36975165  0.22250129  0.59993245  1
  H  H73  1  0.38205925  0.55638330  0.59979473  1
  H  H74  1  0.37454459  0.88172942  0.61887601  1
  H  H75  1  0.87238559  0.21874347  0.60424923  1
  H  H76  1  0.88114754  0.55160341  0.62804673  1
  H  H77  1  0.87449390  0.88533445  0.61605541  1
  H  H78  1  0.11954408  0.11492135  0.10573780  1
  H  H79  1  0.13996328  0.44087493  0.09705660  1
  H  H80  1  0.13306745  0.78106698  0.10957914  1
  H  H81  1  0.61977267  0.11618310  0.12944306  1
  H  H82  1  0.63408634  0.44241991  0.09897380  1
  H  H83  1  0.63444151  0.77315398  0.09882055  1
  H  H84  1  0.13090208  0.22454007  0.90020510  1
  H  H85  1  0.13600412  0.55398625  0.89717709  1
  H  H86  1  0.11505357  0.88644172  0.88258773  1
  H  H87  1  0.63189251  0.22750316  0.90515830  1
  H  H88  1  0.63196080  0.55096885  0.88685607  1
  H  H89  1  0.61910757  0.88348483  0.87335949  1
  H  H90  1  0.36389079  0.10747481  0.40930516  1
  H  H91  1  0.38149825  0.44547262  0.39679277  1
  H  H92  1  0.37931201  0.78183722  0.38158471  1
  H  H93  1  0.87032407  0.11412600  0.38993162  1
  H  H94  1  0.88052538  0.44843193  0.37428006  1
  H  H95  1  0.87662691  0.77751366  0.39507558  1
  H  H96  1  0.37852624  0.27878700  0.39671038  1
  H  H97  1  0.35886814  0.61547197  0.38236713  1
  H  H98  1  0.37114294  0.94700257  0.38691839  1
  H  H99  1  0.88021590  0.27524683  0.39863408  1
  H  H100  1  0.86862870  0.61690569  0.38458294  1
  H  H101  1  0.87296130  0.94656993  0.39379704  1
  H  H102  1  0.12901254  0.05476373  0.89509563  1
  H  H103  1  0.11186080  0.39103631  0.91127990  1
  H  H104  1  0.12035206  0.72122273  0.89227577  1
  H  H105  1  0.62829235  0.05091766  0.87458573  1
  H  H106  1  0.61643467  0.39127658  0.89898938  1
  H  H107  1  0.61189945  0.72621716  0.91001215  1
  H  H108  1  0.12325888  0.27942308  0.10848221  1
  H  H109  1  0.11267940  0.60778366  0.09049129  1
  H  H110  1  0.13312051  0.94575859  0.11694819  1
  H  H111  1  0.61431207  0.27816785  0.09511021  1
  H  H112  1  0.61986797  0.61005709  0.11238006  1
  H  H113  1  0.63062287  0.94962453  0.12414772  1
  H  H114  1  0.38455209  0.05743127  0.59562366  1
  H  H115  1  0.36967334  0.38379377  0.62602879  1
  H  H116  1  0.36866312  0.71344871  0.62227561  1
  H  H117  1  0.87895875  0.05448640  0.60242046  1
  H  H118  1  0.87164853  0.38456600  0.61106042  1
  H  H119  1  0.86893238  0.72272111  0.60522671  1
  H  H120  1  0.11970148  0.11751206  0.37289756  1
  H  H121  1  0.13369083  0.44781042  0.39053105  1
  H  H122  1  0.13164403  0.77754583  0.40009362  1
  H  H123  1  0.62222361  0.11359522  0.39745532  1
  H  H124  1  0.63406693  0.44073854  0.39871206  1
  H  H125  1  0.62790315  0.78104240  0.38627931  1
  H  H126  1  0.37951914  0.22295571  0.89021792  1
  H  H127  1  0.38395193  0.54976394  0.87977741  1
  H  H128  1  0.36155491  0.89034932  0.90329027  1
  H  H129  1  0.87594489  0.21816247  0.87488997  1
  H  H130  1  0.87939254  0.55676121  0.90050496  1
  H  H131  1  0.86507449  0.89159640  0.90136756  1
  H  H132  1  0.36805947  0.11322075  0.12386425  1
  H  H133  1  0.38494577  0.45411167  0.12938573  1
  H  H134  1  0.38091740  0.77465873  0.10389601  1
  H  H135  1  0.86469995  0.10954583  0.09545095  1
  H  H136  1  0.88132682  0.44544667  0.11410824  1
  H  H137  1  0.88080185  0.78390427  0.12476080  1
  H  H138  1  0.12146309  0.21767691  0.61559143  1
  H  H139  1  0.13545647  0.55181199  0.61435643  1
  H  H140  1  0.12779665  0.89027116  0.59692707  1
  H  H141  1  0.62368528  0.21979719  0.60599271  1
  H  H142  1  0.63807923  0.56036353  0.58946366  1
  H  H143  1  0.62708761  0.88942673  0.60034872  1
  H  H144  1  0.81902411  0.58276282  1.00153646  1
  H  H145  1  0.45246327  0.91362501  -0.00190869  1
  H  H146  1  0.03188362  0.41591847  1.00954146  1
  H  H147  1  0.34047178  0.25401709  0.99648907  1
  H  H148  1  0.79623308  0.92088120  1.00714343  1
  H  H149  1  0.67020731  0.74935096  0.49585576  1
  H  H150  1  0.61432056  0.08436733  0.98952675  1
  H  H151  1  0.21397546  0.41512951  -0.00792263  1
  H  H152  1  0.02996648  0.58096017  -0.00587868  1
  H  H153  1  0.45532933  0.08844313  0.49530072  1
  H  H154  1  0.58383115  0.57775367  0.00584848  1
  H  H155  1  0.09538200  0.08038776  0.50141951  1
  H  H156  1  0.39014751  0.74625896  0.50892130  1
  H  H157  1  0.91598834  0.41184286  0.50082164  1
  H  H158  1  0.70449863  0.40990021  0.50141601  1
  H  H159  1  0.06677731  0.07819361  1.00463594  1
  H  H160  1  0.39451965  0.41950708  0.99502989  1
  H  H161  1  0.53116891  0.41423081  0.49172582  1
  H  H162  1  0.63745300  0.91453206  -0.01274328  1
  H  H163  1  0.35197867  0.91277040  0.50428796  1
  H  H164  1  0.72122975  0.58752897  0.49351203  1
  H  H165  1  0.33665813  0.08877497  0.00832447  1
  H  H166  1  0.70981159  0.25363687  1.00366549  1
  H  H167  1  0.06558993  0.75296968  0.99876265  1
  H  H168  1  0.06264019  0.58019282  0.50496993  1
  H  H169  1  0.89957299  0.58346631  0.49491690  1
  H  H170  1  0.70355374  0.75066553  -0.00256366  1
  H  H171  1  0.52813454  0.75064945  1.00669384  1
  H  H172  1  0.95035367  0.91366351  -0.00257217  1
  H  H173  1  0.92131353  0.91878568  0.49801357  1
  H  H174  1  0.07916559  0.41627354  0.50332440  1
  H  H175  1  0.78929421  0.08493665  -0.01047476  1
  H  H176  1  0.32745052  0.41884657  0.49959391  1
  H  H177  1  0.91573278  0.07438350  0.98838982  1
  H  H178  1  0.32660516  0.74785035  0.00121636  1
  H  H179  1  0.53616379  0.58319229  0.50771225  1
  H  H180  1  0.85755893  0.75041592  0.01240728  1
  H  H181  1  0.54027961  0.25171403  -0.00746804  1
  H  H182  1  0.28319062  0.08102747  0.50759632  1
  H  H183  1  0.17846223  0.09636682  -0.00490242  1
  H  H184  1  0.91685877  0.24782600  -0.00019489  1
  H  H185  1  0.29015676  0.91601096  1.00508803  1
  H  H186  1  0.07145241  0.75114607  0.50317514  1
  H  H187  1  0.45981912  0.08019538  1.00817871  1
  H  H188  1  0.85003214  0.41603724  0.00507028  1
  H  H189  1  0.69273360  0.91857210  0.49928028  1
  H  H190  1  0.19673750  0.58217065  1.00597275  1
  H  H191  1  0.15515131  0.24988241  0.50512250  1
  Pb  Pb192  1  0.25579973  0.05142818  0.75115371  1
  Pb  Pb193  1  0.24664562  0.38202421  0.75353834  1
  Pb  Pb194  1  0.24581681  0.71272081  0.75182476  1
  Pb  Pb195  1  0.75120449  0.04649881  0.74960364  1
  Pb  Pb196  1  0.74731326  0.38124966  0.74506743  1
  Pb  Pb197  1  0.75037093  0.71709820  0.75210630  1
  Pb  Pb198  1  0.25015771  0.28653137  0.24967205  1
  Pb  Pb199  1  0.25075396  0.61916417  0.24302865  1
  Pb  Pb200  1  0.25022474  0.95223176  0.24595559  1
  Pb  Pb201  1  0.74831491  0.28651249  0.24133643  1
  Pb  Pb202  1  0.74743193  0.61964605  0.25635180  1
  Pb  Pb203  1  0.75674554  0.95086177  0.25329445  1
  Pb  Pb204  1  -0.00045320  0.21456985  0.75156418  1
  Pb  Pb205  1  0.00046352  0.54660550  0.76113168  1
  Pb  Pb206  1  0.00279857  0.88226791  0.75155024  1
  Pb  Pb207  1  0.50289706  0.21642017  0.75151794  1
  Pb  Pb208  1  0.50409347  0.54977431  0.74251853  1
  Pb  Pb209  1  0.49621578  0.88086587  0.75321331  1
  Pb  Pb210  1  -0.00138989  0.12027894  0.23980391  1
  Pb  Pb211  1  0.00350473  0.45250950  0.24435653  1
  Pb  Pb212  1  0.00567425  0.78331924  0.25808630  1
  Pb  Pb213  1  0.49907302  0.11862214  0.25716731  1
  Pb  Pb214  1  0.50382559  0.45277618  0.25683257  1
  Pb  Pb215  1  0.50227260  0.78629386  0.24156853  1
  C  C216  1  0.00150068  0.04512708  0.62988666  1
  C  C217  1  -0.00407131  0.37791148  0.63379369  1
  C  C218  1  -0.00715209  0.71044443  0.62875299  1
  C  C219  1  0.50367094  0.04352190  0.62867694  1
  C  C220  1  0.49776531  0.37629335  0.63000804  1
  C  C221  1  0.49533095  0.71163199  0.63079455  1
  C  C222  1  -0.00171452  0.28722514  0.13097046  1
  C  C223  1  -0.00122320  0.62153337  0.13204431  1
  C  C224  1  0.00599014  0.95423706  0.13045512  1
  C  C225  1  0.49687231  0.28882485  0.13326581  1
  C  C226  1  0.49363697  0.61824417  0.12663313  1
  C  C227  1  0.50309597  0.95625731  0.13590471  1
  C  C228  1  0.00714583  0.04502837  0.86518625  1
  C  C229  1  -0.00288136  0.37770992  0.87095575  1
  C  C230  1  -0.00283937  0.71363610  0.86515819  1
  C  C231  1  0.50028603  0.04535373  0.87059371  1
  C  C232  1  0.49512856  0.38082502  0.86948480  1
  C  C233  1  0.49812642  0.70941494  0.86878557  1
  C  C234  1  0.00086900  0.28796218  0.36790296  1
  C  C235  1  -0.00484176  0.62167603  0.36997217  1
  C  C236  1  -0.00275484  0.95637202  0.37157137  1
  C  C237  1  0.50212540  0.28538299  0.37388833  1
  C  C238  1  0.48691077  0.62334025  0.37272953  1
  C  C239  1  0.49695456  0.95496848  0.36821265  1
  C  C240  1  0.24840497  0.21217937  0.63101488  1
  C  C241  1  0.26094001  0.54640949  0.62697263  1
  C  C242  1  0.24811743  0.87844048  0.62849537  1
  C  C243  1  0.74825111  0.20980968  0.62947981  1
  C  C244  1  0.75235331  0.54831659  0.63259875  1
  C  C245  1  0.74759845  0.87719319  0.63114347  1
  C  C246  1  0.24124712  0.12110962  0.13581944  1
  C  C247  1  0.25594926  0.45423212  0.13408445  1
  C  C248  1  0.25866699  0.78700309  0.13044340  1
  C  C249  1  0.74842160  0.11982658  0.13285614  1
  C  C250  1  0.75521542  0.45496104  0.12771193  1
  C  C251  1  0.75267473  0.78869757  0.13291969  1
  C  C252  1  0.25388591  0.21403053  0.87297303  1
  C  C253  1  0.25630492  0.54487602  0.86705369  1
  C  C254  1  0.24218969  0.87808259  0.86976941  1
  C  C255  1  0.74797921  0.21369983  0.86650686  1
  C  C256  1  0.75851282  0.54484842  0.87012904  1
  C  C257  1  0.74644857  0.87980420  0.86737266  1
  C  C258  1  0.24874810  0.12295227  0.37010171  1
  C  C259  1  0.25915902  0.45675808  0.37011692  1
  C  C260  1  0.25175022  0.79000094  0.36658151  1
  C  C261  1  0.74484845  0.12508771  0.36986625  1
  C  C262  1  0.75268743  0.45349544  0.36366937  1
  C  C263  1  0.75387197  0.78816381  0.36742174  1
  C  C264  1  0.76196666  0.09577534  0.03396169  1
  C  C265  1  0.29273881  0.57387315  0.53209982  1
  C  C266  1  0.42793682  0.59175967  0.45957259  1
  C  C267  1  0.81145110  0.75920764  0.04703354  1
  C  C268  1  0.72580811  0.42041797  0.03396649  1
  C  C269  1  0.22251946  0.90769082  0.53294782  1
  C  C270  1  0.46217494  0.58507845  0.03246470  1
  C  C271  1  0.71155921  0.75983346  0.45825405  1
  C  C272  1  0.68539176  0.90541687  0.95427138  1
  C  C273  1  0.03896800  0.25880518  0.03827560  1
  C  C274  1  0.32213331  0.43316012  0.04806382  1
  C  C275  1  0.51901932  0.74112482  0.53499018  1
  C  C276  1  0.23015463  0.57122785  0.96410945  1
  C  C277  1  0.03630567  0.07160792  0.96067364  1
  C  C278  1  0.20069358  0.23997806  0.54148794  1
  C  C279  1  0.30368927  0.90452979  0.53874946  1
  C  C280  1  0.73432427  0.42337494  0.45866218  1
  C  C281  1  0.05026231  0.07133461  0.53783973  1
  C  C282  1  0.21079780  0.57218886  0.53705392  1
  C  C283  1  0.21950994  0.24678305  0.96664411  1
  C  C284  1  0.51177325  0.26258021  0.03662554  1
  C  C285  1  0.02888698  0.74124618  0.95886601  1
  C  C286  1  0.46569678  0.25983879  0.46673586  1
  C  C287  1  0.95740699  0.25871407  0.03758129  1
  C  C288  1  0.44237065  0.40905943  0.95956277  1
  C  C289  1  0.45357778  0.92357073  0.45841910  1
  C  C290  1  0.02612981  0.59189541  0.46483237  1
  C  C291  1  0.56416959  0.07454162  0.95480576  1
  C  C292  1  0.43819110  0.73734047  0.54207252  1
  C  C293  1  0.18181089  0.09220840  0.45269479  1
  C  C294  1  0.06012113  0.92196192  0.04240222  1
  C  C295  1  0.56201422  0.07913029  0.54403330  1
  C  C296  1  0.29338494  0.09876699  0.04457504  1
  C  C297  1  0.94443668  0.59368850  0.45987381  1
  C  C298  1  0.96902855  0.07308866  0.53535634  1
  C  C299  1  0.68214547  0.09874057  0.04668505  1
  C  C300  1  0.05031546  0.25930298  0.45707589  1
  C  C301  1  0.95614971  0.40287307  0.53941108  1
  C  C302  1  0.03820458  0.40473025  0.54065793  1
  C  C303  1  0.21187899  0.10110350  0.03807998  1
  C  C304  1  0.48264156  0.92536054  0.04134183  1
  C  C305  1  0.76635034  0.90831562  0.96423236  1
  C  C306  1  0.95422497  0.74547728  0.53726037  1
  C  C307  1  0.52346113  0.41040564  0.96408648  1
  C  C308  1  0.31122641  0.56934982  0.95667801  1
  C  C309  1  0.24245831  0.42781557  0.03562212  1
  C  C310  1  0.92943468  0.40464469  0.95459938  1
  C  C311  1  0.54583460  0.25990241  0.46481662  1
  N  N312  1  0.74331192  0.57450619  0.53692946  1
  N  N313  1  0.29111750  0.42876122  0.46216771  1
  N  N314  1  0.53113792  0.92248343  0.46224203  1
  N  N315  1  0.42967412  0.73684087  0.95142176  1
  N  N316  1  0.78500346  0.57472215  0.96257580  1
  N  N317  1  0.30236905  0.75987819  0.45494149  1
  N  N318  1  0.54091842  0.58730789  0.03830345  1
  N  N319  1  0.94966571  0.74096644  0.95710383  1
  N  N320  1  0.78529782  0.24150600  0.53729784  1
  N  N321  1  0.72323953  0.90945184  0.53944807  1
  N  N322  1  0.25910817  0.08904808  0.46408712  1
  N  N323  1  0.93113077  0.59267299  0.04959087  1
  N  N324  1  0.43164595  0.40528565  0.54693832  1
  N  N325  1  0.70911011  0.24187696  0.53799177  1
  N  N326  1  0.81273812  0.42637146  0.45104363  1
  N  N327  1  0.03307790  0.74294295  0.53931730  1
  N  N328  1  0.73428182  0.24393721  0.96059862  1
  N  N329  1  0.97320628  0.25639497  0.46347750  1
  N  N330  1  0.50842216  0.40742670  0.53602809  1
  N  N331  1  0.48372340  0.07985274  0.53680219  1
  N  N332  1  0.21277430  0.42965332  0.46159992  1
  N  N333  1  0.00780813  0.58935331  0.03834919  1
  N  N334  1  0.79067465  0.75825262  0.46145932  1
  N  N335  1  0.26341000  0.90999926  0.96226080  1
  N  N336  1  0.95732251  0.07249904  0.95364636  1
  N  N337  1  0.80133230  0.90726393  0.54304251  1
  N  N338  1  0.56110992  0.92707341  0.04886157  1
  N  N339  1  0.81927606  0.57238619  0.54895420  1
  N  N340  1  0.29049433  0.75740899  0.03890391  1
  N  N341  1  0.29819496  0.24498144  0.96232671  1
  N  N342  1  0.98143145  0.92190591  0.03759416  1
  N  N343  1  0.27971281  0.24187479  0.53573454  1
  N  N344  1  0.21208194  0.76030562  0.03882509  1
  N  N345  1  0.81117936  0.23990236  0.95191603  1
  N  N346  1  0.43362170  0.26456686  0.04645182  1
  N  N347  1  0.18572783  0.90856585  0.95658440  1
  N  N348  1  0.73252071  0.75533716  0.03949797  1
  N  N349  1  0.00695246  0.40781794  0.96632352  1
  N  N350  1  0.03716178  0.92554434  0.46369150  1
  N  N351  1  0.78746939  0.09094418  0.45970224  1
  N  N352  1  0.48554647  0.07737669  0.96496967  1
  N  N353  1  0.22680895  0.75877871  0.46124217  1
  N  N354  1  0.80420230  0.42382352  0.03969173  1
  N  N355  1  0.71143103  0.09092116  0.46198816  1
  N  N356  1  0.70658043  0.57177304  0.96010464  1
  N  N357  1  0.50670938  0.59070495  0.46619916  1
  N  N358  1  0.95904153  0.92534554  0.46107446  1
  N  N359  1  0.50612839  0.74240454  0.96223980  1
  N  N360  1  0.06927718  0.05391419  0.59820460  1
  N  N361  1  0.06135113  0.38936005  0.59963452  1
  N  N362  1  0.05786709  0.72022793  0.59511175  1
  N  N363  1  0.57459906  0.05739423  0.60110937  1
  N  N364  1  0.54995479  0.38750368  0.58530952  1
  N  N365  1  0.55353305  0.72550742  0.58857923  1
  N  N366  1  0.42611013  0.28093786  0.10683193  1
  N  N367  1  0.43265628  0.60417120  0.08712291  1
  N  N368  1  0.44559462  0.94277676  0.09462574  1
  N  N369  1  0.93326007  0.27649814  0.09652493  1
  N  N370  1  0.92644093  0.61101377  0.10847461  1
  N  N371  1  0.94687404  0.94364526  0.09102708  1
  N  N372  1  0.44604395  0.05593173  0.91410933  1
  N  N373  1  0.42614821  0.39047170  0.89921697  1
  N  N374  1  0.42549927  0.71830529  0.89253576  1
  N  N375  1  0.93932744  0.05354808  0.89563793  1
  N  N376  1  0.92311859  0.38739187  0.89485569  1
  N  N377  1  0.93143686  0.72406801  0.89797289  1
  N  N378  1  0.06974772  0.27776516  0.39885530  1
  N  N379  1  0.05622195  0.60944063  0.40839172  1
  N  N380  1  0.06030694  0.94318558  0.40706800  1
  N  N381  1  0.56904864  0.27517858  0.40812899  1
  N  N382  1  0.54390270  0.61240623  0.41380505  1
  N  N383  1  0.55821377  0.94285960  0.40481454  1
  N  N384  1  0.30782852  0.22442138  0.59204207  1
  N  N385  1  0.32210888  0.55847333  0.58754224  1
  N  N386  1  0.31799711  0.88649651  0.59959143  1
  N  N387  1  0.81118495  0.22127865  0.59382440  1
  N  N388  1  0.82488301  0.55540005  0.60792799  1
  N  N389  1  0.81552424  0.88874305  0.60090023  1
  N  N390  1  0.18051647  0.11464728  0.09527671  1
  N  N391  1  0.20203051  0.44151801  0.09044649  1
  N  N392  1  0.19312223  0.77735874  0.09645277  1
  N  N393  1  0.67452144  0.11310008  0.10685427  1
  N  N394  1  0.69513728  0.43980758  0.08812962  1
  N  N395  1  0.69633720  0.77661568  0.09155763  1
  N  N396  1  0.19176705  0.22763385  0.91136073  1
  N  N397  1  0.19691933  0.55568904  0.90718284  1
  N  N398  1  0.17320307  0.89033140  0.89826381  1
  N  N399  1  0.69422972  0.22590741  0.90983462  1
  N  N400  1  0.69119866  0.55444342  0.90189342  1
  N  N401  1  0.67450089  0.88790792  0.89421972  1
  N  N402  1  0.30147148  0.11105821  0.41410874  1
  N  N403  1  0.32068309  0.44576205  0.40708928  1
  N  N404  1  0.31969869  0.77911533  0.39651040  1
  N  N405  1  0.80985573  0.11203461  0.40264886  1
  N  N406  1  0.82252955  0.44521961  0.39168435  1
  N  N407  1  0.81541096  0.77592572  0.40435036  1
  N  N408  1  0.43811692  0.27506945  0.41118922  1
  N  N409  1  0.41595195  0.61079214  0.40106072  1
  N  N410  1  0.43028447  0.94286272  0.40137114  1
  N  N411  1  0.94215443  0.27486498  0.40666746  1
  N  N412  1  0.92652151  0.61203661  0.40090153  1
  N  N413  1  0.93318540  0.94584564  0.40614370  1
  N  N414  1  0.06788811  0.05601814  0.90539398  1
  N  N415  1  0.04921169  0.38895107  0.91546947  1
  N  N416  1  0.05932643  0.72442835  0.90302815  1
  N  N417  1  0.57287286  0.05640342  0.89558534  1
  N  N418  1  0.55534131  0.39334651  0.91002508  1
  N  N419  1  0.54925787  0.72309502  0.91339956  1
  N  N420  1  0.06326919  0.27589514  0.09456821  1
  N  N421  1  0.05037233  0.60953165  0.08710423  1
  N  N422  1  0.07545219  0.94162405  0.10004040  1
  N  N423  1  0.55183399  0.27695402  0.08956058  1
  N  N424  1  0.56100266  0.60850554  0.09605386  1
  N  N425  1  0.57236319  0.94616175  0.10773608  1
  N  N426  1  0.44669570  0.05570076  0.58794301  1
  N  N427  1  0.42593342  0.38745223  0.60599022  1
  N  N428  1  0.42489975  0.71902366  0.60256041  1
  N  N429  1  0.93969356  0.05731845  0.59060132  1
  N  N430  1  0.93129514  0.38642126  0.59771270  1
  N  N431  1  0.92889330  0.72569094  0.59265197  1
  N  N432  1  0.17498793  0.11177420  0.39404078  1
  N  N433  1  0.19372751  0.44672431  0.40417310  1
  N  N434  1  0.19386203  0.77799741  0.40687046  1
  N  N435  1  0.68328433  0.11220171  0.40642262  1
  N  N436  1  0.69602508  0.44014645  0.40563152  1
  N  N437  1  0.68734992  0.77778240  0.40081248  1
  N  N438  1  0.32021037  0.22423006  0.90476409  1
  N  N439  1  0.32635197  0.55358360  0.89796567  1
  N  N440  1  0.29930027  0.88916301  0.91074778  1
  N  N441  1  0.81908271  0.22305952  0.89287191  1
  N  N442  1  0.81787788  0.55750166  0.90866377  1
  N  N443  1  0.80319339  0.89211310  0.90966164  1
  N  N444  1  0.31026047  0.11125406  0.10541117  1
  N  N445  1  0.32985476  0.44883491  0.10776107  1
  N  N446  1  0.32015794  0.77462073  0.09383184  1
  N  N447  1  0.80269427  0.10930575  0.08877204  1
  N  N448  1  0.82319489  0.44627829  0.09742094  1
  N  N449  1  0.82417544  0.77818645  0.10550145  1
  N  N450  1  0.18015964  0.22223476  0.59988032  1
  N  N451  1  0.19250136  0.55569136  0.59478297  1
  N  N452  1  0.18902375  0.89203014  0.58695005  1
  N  N453  1  0.68451143  0.22272941  0.59517886  1
  N  N454  1  0.70082825  0.56099331  0.58782413  1
  N  N455  1  0.68892317  0.88890057  0.59170550  1
  Cl  Cl456  1  0.26360345  0.06002333  0.60547663  1
  Cl  Cl457  1  0.24565528  0.38982698  0.62152629  1
  Cl  Cl458  1  0.23886554  0.71741434  0.62146871  1
  Cl  Cl459  1  0.75654240  0.04756780  0.62197403  1
  Cl  Cl460  1  0.73420327  0.39357597  0.60917970  1
  Cl  Cl461  1  0.73843966  0.72207253  0.61874653  1
  Cl  Cl462  1  0.24450135  0.27874969  0.11565272  1
  Cl  Cl463  1  0.23845029  0.61060298  0.10761567  1
  Cl  Cl464  1  0.26244498  0.93777839  0.10628246  1
  Cl  Cl465  1  0.73652859  0.27857613  0.09979311  1
  Cl  Cl466  1  0.74356028  0.60946549  0.12198057  1
  Cl  Cl467  1  0.76367283  0.94349338  0.11882391  1
  Cl  Cl468  1  0.25825384  0.05934220  0.88787194  1
  Cl  Cl469  1  0.23249277  0.38812450  0.88875079  1
  Cl  Cl470  1  0.24327941  0.71939595  0.88563585  1
  Cl  Cl471  1  0.75719267  0.05683849  0.88449992  1
  Cl  Cl472  1  0.74007586  0.38927051  0.87961501  1
  Cl  Cl473  1  0.73448012  0.72667505  0.89836291  1
  Cl  Cl474  1  0.25233817  0.28350413  0.37999488  1
  Cl  Cl475  1  0.23664487  0.61497818  0.37400624  1
  Cl  Cl476  1  0.24532509  0.94996447  0.37844456  1
  Cl  Cl477  1  0.75635700  0.27920299  0.37207471  1
  Cl  Cl478  1  0.72950109  0.61027586  0.39913295  1
  Cl  Cl479  1  0.74523347  0.94057719  0.39100180  1
  Cl  Cl480  1  -0.00498856  0.21725387  0.62103171  1
  Cl  Cl481  1  0.00753991  0.55777341  0.63041608  1
  Cl  Cl482  1  -0.00038395  0.88641494  0.61744364  1
  Cl  Cl483  1  0.49658212  0.21779957  0.61873614  1
  Cl  Cl484  1  0.51948122  0.55866376  0.60071262  1
  Cl  Cl485  1  0.50674371  0.88834142  0.62280059  1
  Cl  Cl486  1  -0.00800302  0.10625728  0.10312679  1
  Cl  Cl487  1  0.01383628  0.43947418  0.10344066  1
  Cl  Cl488  1  0.00985507  0.78398195  0.12381682  1
  Cl  Cl489  1  0.49120568  0.10576392  0.11945425  1
  Cl  Cl490  1  0.51437597  0.45046377  0.12592362  1
  Cl  Cl491  1  0.51023402  0.77032029  0.09984299  1
  Cl  Cl492  1  0.00668779  0.21995016  0.88579166  1
  Cl  Cl493  1  0.00619609  0.55625098  0.90057330  1
  Cl  Cl494  1  -0.01267490  0.89331135  0.89139131  1
  Cl  Cl495  1  0.50930535  0.22468751  0.88987868  1
  Cl  Cl496  1  0.51025516  0.55397389  0.87665815  1
  Cl  Cl497  1  0.48094744  0.89078433  0.88997333  1
  Cl  Cl498  1  -0.00743185  0.11322352  0.37134755  1
  Cl  Cl499  1  0.01034210  0.44266883  0.37595810  1
  Cl  Cl500  1  0.00975854  0.77430044  0.39667793  1
  Cl  Cl501  1  0.48727294  0.10615732  0.39739631  1
  Cl  Cl502  1  0.50919285  0.44109581  0.39813879  1
  Cl  Cl503  1  0.50385506  0.78003860  0.37211153  1
  Cl  Cl504  1  0.35257441  0.14923556  0.75322772  1
  Cl  Cl505  1  0.36273077  0.47959656  0.74910460  1
  Cl  Cl506  1  0.35921015  0.81314128  0.74725201  1
  Cl  Cl507  1  0.86247965  0.14705813  0.75736165  1
  Cl  Cl508  1  0.86383618  0.47918086  0.74536352  1
  Cl  Cl509  1  0.85329307  0.81305368  0.75254853  1
  Cl  Cl510  1  0.14061904  0.18455359  0.25623661  1
  Cl  Cl511  1  0.14375576  0.51509140  0.25023677  1
  Cl  Cl512  1  0.14285834  0.84892866  0.24984563  1
  Cl  Cl513  1  0.63389825  0.18674654  0.24233819  1
  Cl  Cl514  1  0.64512159  0.51442237  0.24931608  1
  Cl  Cl515  1  0.63784572  0.85415895  0.24463856  1
  Cl  Cl516  1  0.13603981  0.14692324  0.75082804  1
  Cl  Cl517  1  0.14194712  0.48669231  0.74713041  1
  Cl  Cl518  1  0.14033737  0.81708011  0.75238617  1
  Cl  Cl519  1  0.63885466  0.14717914  0.75063237  1
  Cl  Cl520  1  0.64451789  0.48755577  0.74974829  1
  Cl  Cl521  1  0.63187301  0.81287053  0.75942235  1
  Cl  Cl522  1  0.36404036  0.18752751  0.24239408  1
  Cl  Cl523  1  0.36539273  0.52152078  0.24821223  1
  Cl  Cl524  1  0.36267817  0.85167833  0.24940542  1
  Cl  Cl525  1  0.85808165  0.18456719  0.24448350  1
  Cl  Cl526  1  0.86741689  0.52338079  0.24990649  1
  Cl  Cl527  1  0.85703192  0.85230801  0.25198375  1
  Cl  Cl528  1  0.10567203  0.31793473  0.74821855  1
  Cl  Cl529  1  0.10406523  0.65131163  0.75298128  1
  Cl  Cl530  1  0.10954463  0.97864121  0.74900087  1
  Cl  Cl531  1  0.60322000  0.31741075  0.75139768  1
  Cl  Cl532  1  0.60289553  0.64925780  0.74691663  1
  Cl  Cl533  1  0.61462184  0.97797239  0.76004052  1
  Cl  Cl534  1  0.38706296  0.01859196  0.24905931  1
  Cl  Cl535  1  0.38731918  0.35522654  0.24772472  1
  Cl  Cl536  1  0.38935248  0.68578728  0.24622288  1
  Cl  Cl537  1  0.89558871  0.01491983  0.25064700  1
  Cl  Cl538  1  0.88633461  0.35512204  0.24036995  1
  Cl  Cl539  1  0.88083133  0.69022029  0.24952369  1
  Cl  Cl540  1  0.38319340  0.31320944  0.75092335  1
  Cl  Cl541  1  0.38513833  0.64593184  0.75245690  1
  Cl  Cl542  1  0.39211952  0.98578289  0.74741384  1
  Cl  Cl543  1  0.88342519  0.31295051  0.75970731  1
  Cl  Cl544  1  0.88312490  0.64532152  0.75689804  1
  Cl  Cl545  1  0.89018871  0.98214521  0.75001285  1
  Cl  Cl546  1  0.11293777  0.01976926  0.24359001  1
  Cl  Cl547  1  0.10792437  0.34834447  0.24728530  1
  Cl  Cl548  1  0.09920740  0.68192338  0.25172803  1
  Cl  Cl549  1  0.60983482  0.02065022  0.24650765  1
  Cl  Cl550  1  0.60726247  0.34859323  0.25638600  1
  Cl  Cl551  1  0.60931318  0.68310426  0.24396153  1
