# generated using pymatgen
data_H8PbC4(N3Cl2)2
_symmetry_space_group_name_H-M   'P 1'
_cell_length_a   16.62083694
_cell_length_b   22.50959160
_cell_length_c   21.58975909
_cell_angle_alpha   90.00165451
_cell_angle_beta   90.01626483
_cell_angle_gamma   90.00479086
_symmetry_Int_Tables_number   1
_chemical_formula_structural   H8PbC4(N3Cl2)2
_chemical_formula_sum   'H192 Pb24 C96 N144 Cl96'
_cell_volume   8077.33846329
_cell_formula_units_Z   24
loop_
 _symmetry_equiv_pos_site_id
 _symmetry_equiv_pos_as_xyz
  1  'x, y, z'
loop_
 _atom_site_type_symbol
 _atom_site_label
 _atom_site_symmetry_multiplicity
 _atom_site_fract_x
 _atom_site_fract_y
 _atom_site_fract_z
 _atom_site_occupancy
  H  H0  1  0.00596077  0.02980090  0.67757747  1
  H  H1  1  -0.00336083  0.36362038  0.67658094  1
  H  H2  1  -0.00401628  0.69597262  0.67495608  1
  H  H3  1  0.49365120  0.02817415  0.67890109  1
  H  H4  1  0.50286382  0.36177764  0.67637589  1
  H  H5  1  0.50453531  0.69617008  0.67788797  1
  H  H6  1  0.00751652  0.30389133  0.17694211  1
  H  H7  1  -0.00669317  0.63715028  0.18034193  1
  H  H8  1  0.00863516  0.96745327  0.17753534  1
  H  H9  1  0.48420585  0.30348112  0.17650972  1
  H  H10  1  0.50749262  0.63489804  0.17767796  1
  H  H11  1  0.48832239  0.95962376  0.18118841  1
  H  H12  1  0.01267254  0.03131771  0.82288509  1
  H  H13  1  0.01422048  0.36493365  0.81797021  1
  H  H14  1  -0.00493248  0.69502722  0.82126772  1
  H  H15  1  0.48717709  0.03167292  0.82364453  1
  H  H16  1  0.48940022  0.36389021  0.82525636  1
  H  H17  1  0.49749452  0.69752741  0.82009206  1
  H  H18  1  0.00013729  0.30448454  0.32158883  1
  H  H19  1  0.00448407  0.63603887  0.32042080  1
  H  H20  1  0.00074797  0.96847227  0.31812023  1
  H  H21  1  0.49133656  0.30123702  0.32248694  1
  H  H22  1  0.50453484  0.63559519  0.32229834  1
  H  H23  1  0.51110885  0.97189474  0.32117985  1
  H  H24  1  0.25554274  0.19609182  0.67615377  1
  H  H25  1  0.23903981  0.52976984  0.67786769  1
  H  H26  1  0.24633895  0.86488909  0.67959361  1
  H  H27  1  0.75784522  0.19684097  0.68379247  1
  H  H28  1  0.75251567  0.53048358  0.67948050  1
  H  H29  1  0.74647530  0.86350284  0.68197213  1
  H  H30  1  0.24236427  0.13740025  0.18183588  1
  H  H31  1  0.24457233  0.47171980  0.17752895  1
  H  H32  1  0.25397827  0.79994278  0.18132958  1
  H  H33  1  0.75626494  0.13602445  0.17637459  1
  H  H34  1  0.75806724  0.47094544  0.17615863  1
  H  H35  1  0.75143566  0.80365796  0.18138773  1
  H  H36  1  0.23764022  0.20056604  0.82028414  1
  H  H37  1  0.24630291  0.53216706  0.82414076  1
  H  H38  1  0.26390835  0.86487800  0.81661378  1
  H  H39  1  0.76571260  0.19879562  0.82596273  1
  H  H40  1  0.74635827  0.52998913  0.82098079  1
  H  H41  1  0.74454391  0.86427076  0.82276412  1
  H  H42  1  0.24316248  0.13950165  0.32339429  1
  H  H43  1  0.25279257  0.46971400  0.32289308  1
  H  H44  1  0.25704480  0.80343526  0.32172365  1
  H  H45  1  0.76331938  0.13492418  0.31989284  1
  H  H46  1  0.74970084  0.46737825  0.32243736  1
  H  H47  1  0.74086327  0.80257820  0.32279485  1
  H  H48  1  0.11828750  0.05670524  0.59738155  1
  H  H49  1  0.12873373  0.38711214  0.61478178  1
  H  H50  1  0.12418321  0.71469556  0.60724460  1
  H  H51  1  0.62171057  0.05313968  0.61238386  1
  H  H52  1  0.62115414  0.38821287  0.60182518  1
  H  H53  1  0.62279471  0.72177592  0.60191135  1
  H  H54  1  0.37518172  0.27604882  0.09378736  1
  H  H55  1  0.36897242  0.61472041  0.12352293  1
  H  H56  1  0.37966646  0.94198895  0.09662427  1
  H  H57  1  0.87089676  0.28085564  0.12048203  1
  H  H58  1  0.86798672  0.61220610  0.11161550  1
  H  H59  1  0.86967091  0.95172942  0.12358683  1
  H  H60  1  0.38606470  0.06335234  0.90950489  1
  H  H61  1  0.38448819  0.39290524  0.91055858  1
  H  H62  1  0.38794628  0.72080865  0.90069184  1
  H  H63  1  0.87568823  0.05196776  0.87931722  1
  H  H64  1  0.87494405  0.38301568  0.87463839  1
  H  H65  1  0.88643473  0.72533686  0.90411579  1
  H  H66  1  0.13662738  0.28321719  0.38053726  1
  H  H67  1  0.11610423  0.60807063  0.40139771  1
  H  H68  1  0.11720003  0.94455813  0.39300824  1
  H  H69  1  0.62676090  0.28323301  0.37859008  1
  H  H70  1  0.61584208  0.61123545  0.40245430  1
  H  H71  1  0.61601908  0.94162326  0.40582601  1
  H  H72  1  0.36700735  0.22600445  0.59715296  1
  H  H73  1  0.37559399  0.54980062  0.61816627  1
  H  H74  1  0.37967231  0.88289604  0.62037278  1
  H  H75  1  0.86788384  0.22113066  0.60190961  1
  H  H76  1  0.88057795  0.55384773  0.61141489  1
  H  H77  1  0.88328653  0.88256848  0.62650077  1
  H  H78  1  0.12013776  0.11081989  0.11107487  1
  H  H79  1  0.12955107  0.44241827  0.10035074  1
  H  H80  1  0.11641102  0.78320409  0.12600732  1
  H  H81  1  0.62056367  0.11723806  0.11741176  1
  H  H82  1  0.62244807  0.44921135  0.11729808  1
  H  H83  1  0.61509254  0.78188277  0.12159376  1
  H  H84  1  0.12903035  0.22531148  0.90505597  1
  H  H85  1  0.13328539  0.55489354  0.90436016  1
  H  H86  1  0.12513186  0.88414507  0.87345059  1
  H  H87  1  0.62628045  0.21606189  0.87596899  1
  H  H88  1  0.63196172  0.55736415  0.89941512  1
  H  H89  1  0.63074167  0.89060492  0.90218948  1
  H  H90  1  0.37944087  0.11757688  0.38147043  1
  H  H91  1  0.37315036  0.44625369  0.39529400  1
  H  H92  1  0.37161289  0.77759568  0.39763543  1
  H  H93  1  0.87616531  0.10735399  0.39893369  1
  H  H94  1  0.87371664  0.44207933  0.39194157  1
  H  H95  1  0.87620543  0.78127999  0.38063005  1
  H  H96  1  0.38041894  0.27762290  0.40265919  1
  H  H97  1  0.36908412  0.61657190  0.37836222  1
  H  H98  1  0.37142913  0.95050033  0.37552974  1
  H  H99  1  0.88820750  0.27711349  0.40069779  1
  H  H100  1  0.86917101  0.61396465  0.38204139  1
  H  H101  1  0.86793773  0.94869661  0.38150837  1
  H  H102  1  0.12214658  0.05969310  0.90477599  1
  H  H103  1  0.12114974  0.39202053  0.90156762  1
  H  H104  1  0.13241882  0.71593606  0.87874076  1
  H  H105  1  0.62949838  0.04851882  0.87489929  1
  H  H106  1  0.62919888  0.38379410  0.87763046  1
  H  H107  1  0.63483096  0.71566397  0.87551072  1
  H  H108  1  0.11815302  0.27583179  0.09558334  1
  H  H109  1  0.11712092  0.61099113  0.10895424  1
  H  H110  1  0.11549093  0.94201891  0.09533946  1
  H  H111  1  0.62174913  0.28216293  0.12010734  1
  H  H112  1  0.61427736  0.60744562  0.09339912  1
  H  H113  1  0.62619264  0.94992759  0.12166727  1
  H  H114  1  0.37258082  0.05582815  0.60534429  1
  H  H115  1  0.37247142  0.38537315  0.61209480  1
  H  H116  1  0.37442021  0.71718378  0.61286215  1
  H  H117  1  0.87048781  0.05163941  0.61853280  1
  H  H118  1  0.88046388  0.39072970  0.60062286  1
  H  H119  1  0.87633034  0.72615285  0.60323914  1
  H  H120  1  0.13298014  0.10720462  0.40434639  1
  H  H121  1  0.12451939  0.44771984  0.38774636  1
  H  H122  1  0.12336803  0.78503629  0.38268571  1
  H  H123  1  0.62853833  0.11620018  0.38160775  1
  H  H124  1  0.62519535  0.44895819  0.39520851  1
  H  H125  1  0.62947314  0.77475416  0.40375451  1
  H  H126  1  0.37558773  0.21803227  0.87919033  1
  H  H127  1  0.38070656  0.55395647  0.88504222  1
  H  H128  1  0.37124534  0.88970178  0.90074521  1
  H  H129  1  0.87027248  0.22401671  0.91118281  1
  H  H130  1  0.87978782  0.55227191  0.88217970  1
  H  H131  1  0.87757819  0.88718562  0.88508958  1
  H  H132  1  0.36948167  0.11381314  0.11267567  1
  H  H133  1  0.37744280  0.44533901  0.11856376  1
  H  H134  1  0.36290929  0.77727584  0.09962190  1
  H  H135  1  0.86714509  0.10919975  0.09472400  1
  H  H136  1  0.86997292  0.44183669  0.09766969  1
  H  H137  1  0.86293186  0.77641915  0.10139376  1
  H  H138  1  0.11980600  0.21866987  0.61787814  1
  H  H139  1  0.12813819  0.55405776  0.59627273  1
  H  H140  1  0.13192618  0.88852997  0.60124922  1
  H  H141  1  0.62057666  0.21856057  0.62467367  1
  H  H142  1  0.63032511  0.55488053  0.60792132  1
  H  H143  1  0.63635591  0.88769615  0.60119055  1
  H  H144  1  0.83756217  0.58374789  0.50641668  1
  H  H145  1  0.61479671  0.08415512  0.98310871  1
  H  H146  1  0.67449474  0.41048817  0.49335173  1
  H  H147  1  0.08645961  0.75244178  0.50566396  1
  H  H148  1  0.60379665  0.25107593  0.49298607  1
  H  H149  1  0.04901194  0.91432270  -0.00945155  1
  H  H150  1  0.17058266  0.08239034  0.00069721  1
  H  H151  1  0.20069985  0.59445356  0.99964998  1
  H  H152  1  0.32181034  0.09953986  0.00380749  1
  H  H153  1  0.29636235  0.74942855  -0.00675449  1
  H  H154  1  0.45756437  0.90557496  0.00212918  1
  H  H155  1  0.31511053  0.74863056  0.50561996  1
  H  H156  1  0.20667113  0.07986670  0.50396652  1
  H  H157  1  0.13602282  0.75715650  1.01199333  1
  H  H158  1  0.57828503  0.08638158  0.50384101  1
  H  H159  1  0.10830625  0.25621498  0.48909170  1
  H  H160  1  0.79566355  0.74796016  -0.00379078  1
  H  H161  1  0.35203663  0.57769378  0.99421909  1
  H  H162  1  0.79815503  0.24796899  0.49660663  1
  H  H163  1  0.70264566  0.91373708  0.49408099  1
  H  H164  1  0.64052204  0.24663848  -0.00848073  1
  H  H165  1  0.20456508  0.25456383  1.00381790  1
  H  H166  1  0.91259184  0.58270149  0.00222491  1
  H  H167  1  0.68011091  0.58908625  0.50002061  1
  H  H168  1  0.06083817  0.91510488  0.50248044  1
  H  H169  1  0.39214478  0.58652174  0.49268983  1
  H  H170  1  0.04971655  0.08272769  1.00709874  1
  H  H171  1  0.64814630  0.42013183  0.00832068  1
  H  H172  1  0.86448252  0.91309392  0.51262611  1
  H  H173  1  0.41031992  0.41560546  0.50643141  1
  H  H174  1  0.46830657  0.07850402  1.00884743  1
  H  H175  1  0.04688741  0.24652256  -0.00487492  1
  H  H176  1  0.09548113  0.41898733  0.50871055  1
  H  H177  1  0.53825149  0.91715200  0.50468887  1
  H  H178  1  0.80716219  0.41132398  -0.00773129  1
  H  H179  1  0.29800816  0.91619115  1.00433012  1
  H  H180  1  0.04730785  0.41885652  1.00515698  1
  H  H181  1  0.82661894  0.42583037  0.49822385  1
  H  H182  1  0.04916377  0.08107319  0.49459005  1
  H  H183  1  0.84780307  0.91704452  0.99256449  1
  H  H184  1  0.96132667  0.74850558  1.00514733  1
  H  H185  1  0.19521830  0.41582375  -0.00283667  1
  H  H186  1  0.95334142  0.24549651  0.50625576  1
  H  H187  1  0.35195726  0.91172229  0.50575524  1
  H  H188  1  0.59831434  0.92260614  0.01411485  1
  H  H189  1  0.45353810  0.74890509  1.00742778  1
  H  H190  1  0.92769028  0.74510112  0.49906391  1
  H  H191  1  0.61385024  0.74377572  -0.01056103  1
  Pb  Pb192  1  0.24564784  0.05049216  0.75350850  1
  Pb  Pb193  1  0.25425539  0.38123798  0.76007325  1
  Pb  Pb194  1  0.25321250  0.71380388  0.75007249  1
  Pb  Pb195  1  0.75003750  0.04716865  0.74626501  1
  Pb  Pb196  1  0.74633583  0.38275580  0.74044739  1
  Pb  Pb197  1  0.75458205  0.71266134  0.75090592  1
  Pb  Pb198  1  0.25063803  0.28813414  0.24295256  1
  Pb  Pb199  1  0.24588233  0.61833716  0.24777755  1
  Pb  Pb200  1  0.25168394  0.95018893  0.24186390  1
  Pb  Pb201  1  0.75424067  0.28319516  0.25688688  1
  Pb  Pb202  1  0.74300082  0.61789066  0.25249869  1
  Pb  Pb203  1  0.74482914  0.95467641  0.25526931  1
  Pb  Pb204  1  -0.00426768  0.21791819  0.75443849  1
  Pb  Pb205  1  0.00411715  0.54644951  0.75091571  1
  Pb  Pb206  1  0.00167299  0.88086935  0.74745037  1
  Pb  Pb207  1  0.49848388  0.21343113  0.74591421  1
  Pb  Pb208  1  0.50007034  0.54783354  0.75086756  1
  Pb  Pb209  1  0.50437411  0.88163934  0.75175307  1
  Pb  Pb210  1  0.00499572  0.11642661  0.25005762  1
  Pb  Pb211  1  -0.00184271  0.45283961  0.24701417  1
  Pb  Pb212  1  -0.00735322  0.78510520  0.24678289  1
  Pb  Pb213  1  0.49807734  0.12118481  0.24414521  1
  Pb  Pb214  1  0.50199147  0.45112502  0.25777908  1
  Pb  Pb215  1  0.49694129  0.78493810  0.25184424  1
  C  C216  1  -0.00146596  0.04470023  0.63026778  1
  C  C217  1  0.00233402  0.38016008  0.62963387  1
  C  C218  1  -0.00113687  0.71222453  0.62754443  1
  C  C219  1  0.49583168  0.04522197  0.63196869  1
  C  C220  1  0.49853186  0.37789483  0.62920908  1
  C  C221  1  0.50078058  0.71156041  0.63054239  1
  C  C222  1  -0.00088310  0.28756702  0.13020152  1
  C  C223  1  -0.00694892  0.62040391  0.13325259  1
  C  C224  1  -0.00186483  0.95344020  0.13016367  1
  C  C225  1  0.49385384  0.28702417  0.13015122  1
  C  C226  1  0.49698229  0.61957093  0.13088862  1
  C  C227  1  0.49825160  0.94927073  0.13257228  1
  C  C228  1  0.00398577  0.04632090  0.87001986  1
  C  C229  1  0.00312451  0.37912506  0.86528178  1
  C  C230  1  0.00438176  0.71100977  0.86812530  1
  C  C231  1  0.50116251  0.04714731  0.87023272  1
  C  C232  1  0.50079690  0.37984468  0.87168756  1
  C  C233  1  0.50730706  0.71175308  0.86752722  1
  C  C234  1  0.00904417  0.28842251  0.36866802  1
  C  C235  1  -0.00349123  0.62043662  0.36762818  1
  C  C236  1  -0.00431604  0.95390564  0.36579845  1
  C  C237  1  0.50044199  0.28733873  0.36999732  1
  C  C238  1  0.49566556  0.62150803  0.36975264  1
  C  C239  1  0.49972818  0.95576870  0.36773784  1
  C  C240  1  0.24699905  0.21297404  0.62979903  1
  C  C241  1  0.24786980  0.54437357  0.63069028  1
  C  C242  1  0.25345291  0.87883883  0.63191925  1
  C  C243  1  0.74838455  0.21209293  0.63660408  1
  C  C244  1  0.75501585  0.54678985  0.63209285  1
  C  C245  1  0.75588963  0.87764243  0.63441296  1
  C  C246  1  0.24470964  0.12219090  0.13404188  1
  C  C247  1  0.25015517  0.45456025  0.13094134  1
  C  C248  1  0.24386188  0.78670320  0.13359620  1
  C  C249  1  0.74801721  0.12150898  0.12901555  1
  C  C250  1  0.74970459  0.45491132  0.12899932  1
  C  C251  1  0.74275407  0.78791036  0.13439779  1
  C  C252  1  0.24695429  0.21508701  0.86769308  1
  C  C253  1  0.25359826  0.54684138  0.87188041  1
  C  C254  1  0.25303115  0.87947777  0.86379081  1
  C  C255  1  0.75329611  0.21331472  0.87276628  1
  C  C256  1  0.75256634  0.54625427  0.86782744  1
  C  C257  1  0.75123920  0.88063969  0.86976649  1
  C  C258  1  0.25129515  0.12264423  0.36998371  1
  C  C259  1  0.25008730  0.45461341  0.37044390  1
  C  C260  1  0.25087234  0.78885886  0.36930721  1
  C  C261  1  0.75571345  0.11997491  0.36709576  1
  C  C262  1  0.74939776  0.45286803  0.37052701  1
  C  C263  1  0.74876922  0.78657687  0.36959943  1
  C  C264  1  0.53267154  0.40780016  0.53435522  1
  C  C265  1  0.73377733  0.90340759  0.53712140  1
  C  C266  1  0.22503466  0.90539992  0.53600937  1
  C  C267  1  0.94390537  0.92889367  0.45617091  1
  C  C268  1  0.80227125  0.75729328  0.45717501  1
  C  C269  1  0.81507535  0.90285649  0.54635104  1
  C  C270  1  0.76832404  0.23824282  0.54047049  1
  C  C271  1  0.98407544  0.25825845  0.46374884  1
  C  C272  1  0.30432358  0.42151387  0.04334489  1
  C  C273  1  0.27815908  0.76099898  0.46572849  1
  C  C274  1  0.56006888  0.40717144  0.95742893  1
  C  C275  1  0.53716515  0.07496859  0.54134896  1
  C  C276  1  0.77061079  0.24101659  0.97002382  1
  C  C277  1  0.69523967  0.09753360  0.03957628  1
  C  C278  1  0.20405849  0.42829970  0.46174423  1
  C  C279  1  0.30626692  0.90318148  0.54096181  1
  C  C280  1  0.26975213  0.24693204  0.53619761  1
  C  C281  1  0.77990765  0.08970249  0.46172415  1
  C  C282  1  0.56624875  0.73527766  0.95580091  1
  C  C283  1  0.94021109  0.25557914  0.04394415  1
  C  C284  1  0.55681243  0.26097011  0.45909178  1
  C  C285  1  0.47440148  0.25516287  0.03533632  1
  C  C286  1  0.97118087  0.41266695  0.53506499  1
  C  C287  1  0.52032443  0.59496164  0.46618719  1
  C  C288  1  0.71736974  0.57662167  0.53940767  1
  C  C289  1  0.69026918  0.23852609  0.95943758  1
  C  C290  1  0.47583392  0.25961475  0.46607012  1
  C  C291  1  0.20648687  0.09372761  0.04111353  1
  C  C292  1  0.48515600  0.73764150  0.96487425  1
  C  C293  1  0.43946355  0.59129717  0.04475338  1
  C  C294  1  0.80237242  0.57478113  0.95701637  1
  C  C295  1  0.18423805  0.76510063  0.04504725  1
  C  C296  1  0.93571156  0.93012103  0.04320215  1
  C  C297  1  0.01899006  0.40684330  0.96136043  1
  C  C298  1  0.26517167  0.76151036  0.03576493  1
  C  C299  1  0.94396357  0.07428312  0.95738307  1
  C  C300  1  0.26937049  0.90597408  0.96018148  1
  C  C301  1  0.22601405  0.57255569  0.53508312  1
  C  C302  1  0.19694631  0.76488953  0.45943079  1
  C  C303  1  0.01601134  0.92610825  0.03222821  1
  C  C304  1  0.76485464  0.75911929  0.03933422  1
  C  C305  1  0.45549756  0.73949892  0.54009131  1
  C  C306  1  0.94136595  0.07399187  0.54226443  1
  C  C307  1  0.95429948  0.59265570  0.04107459  1
  C  C308  1  0.28568193  0.42735728  0.46430101  1
  C  C309  1  0.43950242  0.59626674  0.45906688  1
  C  C310  1  0.02505160  0.92659089  0.46204576  1
  C  C311  1  0.77474183  0.42439973  0.03386090  1
  N  N312  1  0.48900264  0.08165897  0.96359922  1
  N  N313  1  0.56560861  0.06880956  0.95427841  1
  N  N314  1  0.71082603  0.43550676  0.46481036  1
  N  N315  1  0.55113731  0.25690178  0.04306996  1
  N  N316  1  0.45795073  0.07579283  0.53838832  1
  N  N317  1  0.48395530  0.41084565  0.96910679  1
  N  N318  1  0.04303830  0.73331621  0.53556155  1
  N  N319  1  0.01995217  0.59163408  0.46345389  1
  N  N320  1  0.96542889  0.74816215  0.53755219  1
  N  N321  1  0.23320557  0.08934285  0.46208610  1
  N  N322  1  0.31049833  0.09308393  0.45597032  1
  N  N323  1  0.68630725  0.75963843  0.04663108  1
  N  N324  1  0.01987184  0.07426686  0.53591467  1
  N  N325  1  0.72515493  0.57681078  0.96379602  1
  N  N326  1  0.19247466  0.24438596  0.54176560  1
  N  N327  1  0.94387454  0.59392666  0.45717174  1
  N  N328  1  0.22857981  0.56696518  0.96826146  1
  N  N329  1  0.43699269  0.92751981  0.45222127  1
  N  N330  1  0.70259281  0.09261239  0.45753623  1
  N  N331  1  0.72214173  0.90860392  0.96507973  1
  N  N332  1  0.01855362  0.25512769  0.03657339  1
  N  N333  1  0.22570469  0.42261256  0.03790652  1
  N  N334  1  0.03391203  0.59225111  0.03961918  1
  N  N335  1  0.51389654  0.92349288  0.46108884  1
  N  N336  1  0.04994424  0.41024789  0.54102817  1
  N  N337  1  0.19096072  0.90502454  0.95100957  1
  N  N338  1  0.77203223  0.09374124  0.03152518  1
  N  N339  1  0.78902976  0.42169664  0.46054517  1
  N  N340  1  0.30730413  0.23692955  0.95560524  1
  N  N341  1  0.23002224  0.23932841  0.96308949  1
  N  N342  1  0.72533442  0.75525859  0.46590004  1
  N  N343  1  0.79704452  0.57579185  0.54163497  1
  N  N344  1  0.47645959  0.93718295  0.03372166  1
  N  N345  1  0.06376444  0.73826815  0.95405506  1
  N  N346  1  0.94057919  0.40343074  0.95263186  1
  N  N347  1  0.45377360  0.40647387  0.53926809  1
  N  N348  1  0.68993742  0.23824636  0.54864363  1
  N  N349  1  0.51581244  0.58867893  0.03378251  1
  N  N350  1  0.98675444  0.74133473  0.96178748  1
  N  N351  1  0.28616915  0.09569899  0.04235967  1
  N  N352  1  0.06292740  0.26072739  0.45580395  1
  N  N353  1  0.69572801  0.42734596  0.04150211  1
  N  N354  1  0.80029628  0.90775590  0.95804543  1
  N  N355  1  0.02215960  0.07534019  0.96521050  1
  N  N356  1  0.53273152  0.74129274  0.53537969  1
  N  N357  1  0.30642157  0.57612535  0.95838920  1
  N  N358  1  0.55571853  0.94109725  0.04286401  1
  N  N359  1  0.30286044  0.57176148  0.54178374  1
  N  N360  1  0.05630083  0.05404787  0.58923304  1
  N  N361  1  0.06959423  0.39006957  0.59898135  1
  N  N362  1  0.06443199  0.72070947  0.59411263  1
  N  N363  1  0.56195803  0.05666519  0.59851954  1
  N  N364  1  0.56065570  0.39047641  0.59038714  1
  N  N365  1  0.56131199  0.72336652  0.59284080  1
  N  N366  1  0.43684112  0.27336994  0.08782606  1
  N  N367  1  0.42525435  0.61000616  0.10395636  1
  N  N368  1  0.44197547  0.93875730  0.09064728  1
  N  N369  1  0.92798691  0.27504208  0.10210331  1
  N  N370  1  0.92802616  0.60920267  0.09842491  1
  N  N371  1  0.92566157  0.94637812  0.10273987  1
  N  N372  1  0.44826843  0.05840072  0.91480756  1
  N  N373  1  0.44676902  0.39316891  0.91427147  1
  N  N374  1  0.44964514  0.72306298  0.90927586  1
  N  N375  1  0.93258307  0.05710292  0.89838365  1
  N  N376  1  0.93276676  0.38614986  0.89296091  1
  N  N377  1  0.94890847  0.72224573  0.91055316  1
  N  N378  1  0.07803945  0.28069770  0.39779678  1
  N  N379  1  0.05382924  0.60826675  0.40839268  1
  N  N380  1  0.05628634  0.94242536  0.40435049  1
  N  N381  1  0.57070462  0.27843178  0.39829971  1
  N  N382  1  0.55429278  0.61010719  0.41224940  1
  N  N383  1  0.55364820  0.94364832  0.41096815  1
  N  N384  1  0.30524168  0.22788516  0.58902647  1
  N  N385  1  0.31690177  0.55407346  0.60219773  1
  N  N386  1  0.32267308  0.88674636  0.60180224  1
  N  N387  1  0.80575826  0.22288854  0.59434126  1
  N  N388  1  0.82005948  0.55671958  0.59852094  1
  N  N389  1  0.82694062  0.88702380  0.60693230  1
  N  N390  1  0.18061412  0.10859290  0.09824706  1
  N  N391  1  0.19109888  0.44456494  0.09118921  1
  N  N392  1  0.17237044  0.78063378  0.10564747  1
  N  N393  1  0.67771308  0.11397463  0.09920583  1
  N  N394  1  0.68089927  0.44693002  0.09974842  1
  N  N395  1  0.67380987  0.77741509  0.10589909  1
  N  N396  1  0.19145607  0.22780817  0.90955640  1
  N  N397  1  0.19514258  0.55918574  0.91152254  1
  N  N398  1  0.18281647  0.88867830  0.89104811  1
  N  N399  1  0.68111847  0.22155515  0.89805389  1
  N  N400  1  0.69394045  0.55875547  0.90689322  1
  N  N401  1  0.69238947  0.89230040  0.90975979  1
  N  N402  1  0.32135856  0.11268394  0.39806541  1
  N  N403  1  0.31287736  0.44334188  0.40797288  1
  N  N404  1  0.31063524  0.77614161  0.40829227  1
  N  N405  1  0.81494720  0.10607769  0.40750871  1
  N  N406  1  0.81358426  0.44375289  0.40570150  1
  N  N407  1  0.81893583  0.77625513  0.39870990  1
  N  N408  1  0.44188327  0.27568314  0.41247366  1
  N  N409  1  0.42549492  0.61274646  0.39816352  1
  N  N410  1  0.42861758  0.94541967  0.39365526  1
  N  N411  1  0.95020680  0.27465692  0.40939896  1
  N  N412  1  0.92805183  0.61172274  0.39758248  1
  N  N413  1  0.92629404  0.94504617  0.39782678  1
  N  N414  1  0.06063418  0.05614828  0.91193650  1
  N  N415  1  0.05894961  0.39195724  0.90821381  1
  N  N416  1  0.07462693  0.72101021  0.89555050  1
  N  N417  1  0.57330972  0.05648158  0.89409815  1
  N  N418  1  0.57307012  0.38871841  0.89796483  1
  N  N419  1  0.57861274  0.71953882  0.89541419  1
  N  N420  1  0.05596037  0.27644623  0.08890018  1
  N  N421  1  0.05600784  0.60945155  0.09750714  1
  N  N422  1  0.05402189  0.94091783  0.08792645  1
  N  N423  1  0.56357025  0.27651118  0.10304810  1
  N  N424  1  0.55183799  0.60688659  0.08873768  1
  N  N425  1  0.56827396  0.94625677  0.10367638  1
  N  N426  1  0.43379702  0.05716626  0.59531300  1
  N  N427  1  0.43215869  0.38755749  0.59727782  1
  N  N428  1  0.43319067  0.72187800  0.59772673  1
  N  N429  1  0.92809244  0.05631169  0.60087500  1
  N  N430  1  0.94137471  0.39365127  0.59006411  1
  N  N431  1  0.93716483  0.72535697  0.59136963  1
  N  N432  1  0.19510005  0.10912946  0.41094515  1
  N  N433  1  0.18323080  0.44442692  0.40395134  1
  N  N434  1  0.18119467  0.78134431  0.40080318  1
  N  N435  1  0.68756424  0.11186510  0.39723261  1
  N  N436  1  0.68578077  0.44295041  0.40573610  1
  N  N437  1  0.69172842  0.77392552  0.41008966  1
  N  N438  1  0.31735744  0.22187852  0.89626342  1
  N  N439  1  0.32215777  0.55465010  0.90196037  1
  N  N440  1  0.30911836  0.89074546  0.90701385  1
  N  N441  1  0.80865265  0.22576291  0.91765755  1
  N  N442  1  0.82165537  0.55661622  0.89866602  1
  N  N443  1  0.81855912  0.89072446  0.90040789  1
  N  N444  1  0.30941760  0.11693449  0.09884714  1
  N  N445  1  0.31961593  0.44079279  0.10104985  1
  N  N446  1  0.30103521  0.77507051  0.09151220  1
  N  N447  1  0.80498917  0.10919734  0.08847001  1
  N  N448  1  0.80865279  0.44123911  0.08830133  1
  N  N449  1  0.80085819  0.77651492  0.09291007  1
  N  N450  1  0.17806071  0.22302658  0.60136655  1
  N  N451  1  0.18987414  0.55607520  0.58858706  1
  N  N452  1  0.19347063  0.89062334  0.59088551  1
  N  N453  1  0.67903227  0.22190350  0.60841909  1
  N  N454  1  0.69096327  0.55892101  0.59561924  1
  N  N455  1  0.69818722  0.88763332  0.59222600  1
  Cl  Cl456  1  0.24041478  0.06011168  0.61042577  1
  Cl  Cl457  1  0.25098073  0.38509006  0.62751608  1
  Cl  Cl458  1  0.24720228  0.71562192  0.61737610  1
  Cl  Cl459  1  0.74594551  0.05356482  0.61593098  1
  Cl  Cl460  1  0.75216658  0.39135197  0.60340007  1
  Cl  Cl461  1  0.75270759  0.72037426  0.61915905  1
  Cl  Cl462  1  0.24184538  0.27693012  0.10095162  1
  Cl  Cl463  1  0.24127245  0.60780743  0.10985783  1
  Cl  Cl464  1  0.25621467  0.94530522  0.10551211  1
  Cl  Cl465  1  0.74649031  0.28662682  0.12619297  1
  Cl  Cl466  1  0.74212154  0.61226082  0.12126009  1
  Cl  Cl467  1  0.74594616  0.94890317  0.12379860  1
  Cl  Cl468  1  0.25834228  0.06538724  0.89932317  1
  Cl  Cl469  1  0.24705608  0.39405106  0.89875308  1
  Cl  Cl470  1  0.26438680  0.71658324  0.88527000  1
  Cl  Cl471  1  0.75242446  0.04878213  0.87727484  1
  Cl  Cl472  1  0.75190988  0.38709498  0.87381033  1
  Cl  Cl473  1  0.76997088  0.72513775  0.88746545  1
  Cl  Cl474  1  0.25985323  0.28018871  0.37578765  1
  Cl  Cl475  1  0.23665997  0.61032149  0.37854187  1
  Cl  Cl476  1  0.24220499  0.94925057  0.37367471  1
  Cl  Cl477  1  0.76570640  0.28021147  0.39231058  1
  Cl  Cl478  1  0.74072899  0.60753463  0.39056401  1
  Cl  Cl479  1  0.73655892  0.94284960  0.38978704  1
  Cl  Cl480  1  -0.00974488  0.22007053  0.61536097  1
  Cl  Cl481  1  0.00456486  0.55124529  0.61755038  1
  Cl  Cl482  1  0.01263167  0.88567214  0.61493625  1
  Cl  Cl483  1  0.49078166  0.22455029  0.61332731  1
  Cl  Cl484  1  0.50626699  0.54848930  0.61774874  1
  Cl  Cl485  1  0.51393744  0.89350070  0.61291660  1
  Cl  Cl486  1  -0.00317269  0.10972915  0.10842306  1
  Cl  Cl487  1  0.00285213  0.43931592  0.11145277  1
  Cl  Cl488  1  -0.01865376  0.77039810  0.10524126  1
  Cl  Cl489  1  0.49095122  0.10283224  0.10493170  1
  Cl  Cl490  1  0.50043577  0.44939088  0.12851569  1
  Cl  Cl491  1  0.48402804  0.78438344  0.11565493  1
  Cl  Cl492  1  0.00625287  0.22293217  0.89881612  1
  Cl  Cl493  1  0.00834218  0.55419165  0.88524071  1
  Cl  Cl494  1  -0.00202967  0.88506021  0.88079029  1
  Cl  Cl495  1  0.49771989  0.21659147  0.87690502  1
  Cl  Cl496  1  0.50499275  0.55426307  0.88209845  1
  Cl  Cl497  1  0.49983119  0.89083946  0.89826440  1
  Cl  Cl498  1  0.00983054  0.10665867  0.39436145  1
  Cl  Cl499  1  -0.00361255  0.44153382  0.38221259  1
  Cl  Cl500  1  -0.00013474  0.77906111  0.38084862  1
  Cl  Cl501  1  0.50397544  0.11577069  0.37512031  1
  Cl  Cl502  1  0.50160610  0.44481852  0.39399928  1
  Cl  Cl503  1  0.50234828  0.77978465  0.38279563  1
  Cl  Cl504  1  0.36106386  0.14818471  0.75316231  1
  Cl  Cl505  1  0.36183463  0.48146545  0.75046764  1
  Cl  Cl506  1  0.36250022  0.81609889  0.74411875  1
  Cl  Cl507  1  0.85758162  0.14916655  0.75354481  1
  Cl  Cl508  1  0.86612793  0.47872002  0.74979252  1
  Cl  Cl509  1  0.86459897  0.81467842  0.74627065  1
  Cl  Cl510  1  0.13860252  0.18636850  0.25105520  1
  Cl  Cl511  1  0.13653619  0.51756726  0.24734069  1
  Cl  Cl512  1  0.13514461  0.85304076  0.24643519  1
  Cl  Cl513  1  0.63552095  0.18719949  0.24838970  1
  Cl  Cl514  1  0.63974927  0.51833148  0.25155686  1
  Cl  Cl515  1  0.63433182  0.85299446  0.24342247  1
  Cl  Cl516  1  0.14229101  0.14548684  0.74810013  1
  Cl  Cl517  1  0.14371946  0.48250959  0.75237478  1
  Cl  Cl518  1  0.13933948  0.81329766  0.75605088  1
  Cl  Cl519  1  0.63446835  0.14507389  0.75412147  1
  Cl  Cl520  1  0.64775796  0.47992869  0.74760483  1
  Cl  Cl521  1  0.64138640  0.81313043  0.75779833  1
  Cl  Cl522  1  0.35758436  0.18427062  0.24451799  1
  Cl  Cl523  1  0.35616373  0.51839077  0.25006092  1
  Cl  Cl524  1  0.35699144  0.85401321  0.25111862  1
  Cl  Cl525  1  0.85663491  0.18598681  0.24782658  1
  Cl  Cl526  1  0.85784899  0.51814504  0.25124862  1
  Cl  Cl527  1  0.85794143  0.85425866  0.25269239  1
  Cl  Cl528  1  0.10833808  0.31121064  0.74738407  1
  Cl  Cl529  1  0.11414353  0.64871993  0.75311975  1
  Cl  Cl530  1  0.11257283  0.98212903  0.75614396  1
  Cl  Cl531  1  0.61214594  0.31332367  0.74816122  1
  Cl  Cl532  1  0.61494607  0.64708777  0.75307594  1
  Cl  Cl533  1  0.61287734  0.97797326  0.75694117  1
  Cl  Cl534  1  0.38814075  0.01858345  0.25033449  1
  Cl  Cl535  1  0.39277357  0.34971498  0.24723672  1
  Cl  Cl536  1  0.38381048  0.68489378  0.25095875  1
  Cl  Cl537  1  0.88636395  0.01938882  0.25072905  1
  Cl  Cl538  1  0.88954243  0.35037000  0.24954396  1
  Cl  Cl539  1  0.89231285  0.68671015  0.25516704  1
  Cl  Cl540  1  0.39084052  0.31558322  0.75626992  1
  Cl  Cl541  1  0.39231815  0.64594387  0.74882321  1
  Cl  Cl542  1  0.39441521  0.98107947  0.75156022  1
  Cl  Cl543  1  0.89265697  0.31129855  0.75146152  1
  Cl  Cl544  1  0.89579734  0.64901496  0.74821507  1
  Cl  Cl545  1  0.88965757  0.98176490  0.74812880  1
  Cl  Cl546  1  0.10633580  0.02319540  0.24373974  1
  Cl  Cl547  1  0.10963298  0.35114533  0.25215391  1
  Cl  Cl548  1  0.11155560  0.68934293  0.24104238  1
  Cl  Cl549  1  0.60641513  0.01886505  0.24456603  1
  Cl  Cl550  1  0.61137475  0.35595918  0.25556367  1
  Cl  Cl551  1  0.60658373  0.68465248  0.24743218  1
