# generated using pymatgen
data_H8PbC4(N3Cl2)2
_symmetry_space_group_name_H-M   'P 1'
_cell_length_a   16.62176755
_cell_length_b   22.50513547
_cell_length_c   21.58958423
_cell_angle_alpha   90.00118714
_cell_angle_beta   90.00427456
_cell_angle_gamma   90.00362938
_symmetry_Int_Tables_number   1
_chemical_formula_structural   H8PbC4(N3Cl2)2
_chemical_formula_sum   'H192 Pb24 C96 N144 Cl96'
_cell_volume   8076.12649638
_cell_formula_units_Z   24
loop_
 _symmetry_equiv_pos_site_id
 _symmetry_equiv_pos_as_xyz
  1  'x, y, z'
loop_
 _atom_site_type_symbol
 _atom_site_label
 _atom_site_symmetry_multiplicity
 _atom_site_fract_x
 _atom_site_fract_y
 _atom_site_fract_z
 _atom_site_occupancy
  H  H0  1  -0.00336475  0.02960915  0.67896912  1
  H  H1  1  0.01022880  0.36237346  0.67795546  1
  H  H2  1  -0.00585240  0.69969984  0.67788992  1
  H  H3  1  0.49537090  0.03174690  0.68328455  1
  H  H4  1  0.49039443  0.36303143  0.68168477  1
  H  H5  1  0.50349288  0.69667207  0.67754834  1
  H  H6  1  0.00230046  0.30161738  0.18100690  1
  H  H7  1  -0.00075249  0.63507355  0.18146345  1
  H  H8  1  -0.00502016  0.97028893  0.17757809  1
  H  H9  1  0.50439014  0.30053205  0.17993515  1
  H  H10  1  0.49787264  0.63540878  0.18065835  1
  H  H11  1  0.50220722  0.96908855  0.18242688  1
  H  H12  1  -0.00879191  0.03180730  0.82412458  1
  H  H13  1  0.00820898  0.36507172  0.82034861  1
  H  H14  1  -0.00001042  0.69699512  0.82022756  1
  H  H15  1  0.50311173  0.02964430  0.81895785  1
  H  H16  1  0.49045368  0.36549730  0.82048164  1
  H  H17  1  0.49687720  0.69837153  0.81842611  1
  H  H18  1  -0.00003103  0.30118646  0.32444587  1
  H  H19  1  -0.00017284  0.63708644  0.32053057  1
  H  H20  1  0.00620919  0.96874848  0.32057991  1
  H  H21  1  0.49317633  0.30115878  0.32171567  1
  H  H22  1  0.50532863  0.63530676  0.31986883  1
  H  H23  1  0.51049046  0.96579041  0.32317609  1
  H  H24  1  0.24777651  0.19964594  0.67557769  1
  H  H25  1  0.24547278  0.53246835  0.68053409  1
  H  H26  1  0.24287841  0.86395037  0.67772743  1
  H  H27  1  0.76040467  0.20044234  0.67661926  1
  H  H28  1  0.74347370  0.53014775  0.67888501  1
  H  H29  1  0.74810844  0.86413286  0.67859118  1
  H  H30  1  0.25596089  0.13451982  0.17928148  1
  H  H31  1  0.25968292  0.46720727  0.17924903  1
  H  H32  1  0.25209670  0.80143994  0.17819756  1
  H  H33  1  0.75162655  0.13487230  0.17920948  1
  H  H34  1  0.74710984  0.46771305  0.17810713  1
  H  H35  1  0.75133460  0.80265464  0.17987047  1
  H  H36  1  0.25846875  0.19776321  0.81832345  1
  H  H37  1  0.25845832  0.53347658  0.81925959  1
  H  H38  1  0.25130396  0.86495682  0.81907600  1
  H  H39  1  0.74459830  0.19675011  0.82182453  1
  H  H40  1  0.73525473  0.53224063  0.81934738  1
  H  H41  1  0.75875487  0.86666059  0.81911915  1
  H  H42  1  0.26038311  0.13820836  0.31997330  1
  H  H43  1  0.25096301  0.46824973  0.31741634  1
  H  H44  1  0.25242666  0.80317631  0.32313380  1
  H  H45  1  0.73716759  0.13812374  0.32190752  1
  H  H46  1  0.74467708  0.46759680  0.32191947  1
  H  H47  1  0.74969118  0.80288614  0.31961525  1
  H  H48  1  0.12128065  0.05363294  0.60789467  1
  H  H49  1  0.11777253  0.38891939  0.59437743  1
  H  H50  1  0.12885670  0.71857455  0.61931928  1
  H  H51  1  0.62345006  0.05264617  0.61711921  1
  H  H52  1  0.62566419  0.38421332  0.61992007  1
  H  H53  1  0.62635605  0.72178624  0.60704369  1
  H  H54  1  0.36987481  0.27982915  0.11936983  1
  H  H55  1  0.37428101  0.61470940  0.10852270  1
  H  H56  1  0.38084363  0.94485643  0.10820674  1
  H  H57  1  0.87195355  0.27960445  0.11481046  1
  H  H58  1  0.87531333  0.61165078  0.10987288  1
  H  H59  1  0.88246120  0.94277556  0.09881536  1
  H  H60  1  0.38006155  0.05501524  0.89057554  1
  H  H61  1  0.38342956  0.39242128  0.90547399  1
  H  H62  1  0.37748478  0.72210012  0.89296195  1
  H  H63  1  0.88370438  0.05936473  0.90586300  1
  H  H64  1  0.88239944  0.38746170  0.89004954  1
  H  H65  1  0.88091333  0.72351922  0.89531782  1
  H  H66  1  0.12403412  0.27937733  0.39335628  1
  H  H67  1  0.12112257  0.61424483  0.39521263  1
  H  H68  1  0.12019449  0.94264795  0.40076766  1
  H  H69  1  0.62587736  0.28321241  0.38167376  1
  H  H70  1  0.61724372  0.60890160  0.39909864  1
  H  H71  1  0.61835319  0.94196199  0.40456231  1
  H  H72  1  0.37370331  0.22113508  0.60934864  1
  H  H73  1  0.37969224  0.55430805  0.61724996  1
  H  H74  1  0.37560333  0.88294931  0.61814411  1
  H  H75  1  0.86894878  0.22369821  0.59561430  1
  H  H76  1  0.88018317  0.55121693  0.62173460  1
  H  H77  1  0.87779811  0.88596015  0.61157713  1
  H  H78  1  0.11893986  0.11578307  0.12230932  1
  H  H79  1  0.12051125  0.45020144  0.12359311  1
  H  H80  1  0.12217991  0.77979838  0.11248990  1
  H  H81  1  0.61944995  0.11424758  0.11630805  1
  H  H82  1  0.62239519  0.44841172  0.10685908  1
  H  H83  1  0.62279854  0.77866699  0.11259542  1
  H  H84  1  0.12865178  0.21808188  0.88643714  1
  H  H85  1  0.12297021  0.55111730  0.87868035  1
  H  H86  1  0.12068718  0.88695270  0.88530224  1
  H  H87  1  0.63415637  0.22541492  0.90217323  1
  H  H88  1  0.62965592  0.55800356  0.90562062  1
  H  H89  1  0.61874363  0.88354250  0.87282769  1
  H  H90  1  0.37231459  0.11071235  0.40044604  1
  H  H91  1  0.37581988  0.44657369  0.38635699  1
  H  H92  1  0.37067502  0.77879529  0.39805001  1
  H  H93  1  0.87679860  0.11959429  0.37623590  1
  H  H94  1  0.87464839  0.44577820  0.38393113  1
  H  H95  1  0.87342450  0.77932739  0.38902146  1
  H  H96  1  0.37781047  0.27718410  0.39927064  1
  H  H97  1  0.36889941  0.61664565  0.38005175  1
  H  H98  1  0.37255866  0.94900448  0.37784108  1
  H  H99  1  0.87510505  0.28074288  0.39202579  1
  H  H100  1  0.87227444  0.61317177  0.38828640  1
  H  H101  1  0.87267252  0.94716127  0.38396245  1
  H  H102  1  0.12941840  0.05203625  0.87954997  1
  H  H103  1  0.13068492  0.39032059  0.89381362  1
  H  H104  1  0.12926375  0.71844599  0.88560254  1
  H  H105  1  0.62926836  0.05299993  0.88792011  1
  H  H106  1  0.62821326  0.38462001  0.87713943  1
  H  H107  1  0.62637844  0.72136959  0.88531270  1
  H  H108  1  0.12060790  0.27738856  0.10568103  1
  H  H109  1  0.12432760  0.61391878  0.10943987  1
  H  H110  1  0.12986643  0.94985700  0.11713819  1
  H  H111  1  0.61784001  0.27506292  0.10047140  1
  H  H112  1  0.62269261  0.61106064  0.11170322  1
  H  H113  1  0.62962096  0.94690176  0.11447852  1
  H  H114  1  0.37396923  0.05284631  0.61071710  1
  H  H115  1  0.37756612  0.38607439  0.60126248  1
  H  H116  1  0.37722821  0.72302869  0.61003646  1
  H  H117  1  0.87304122  0.05666095  0.60742368  1
  H  H118  1  0.87139319  0.38164364  0.62281554  1
  H  H119  1  0.88194795  0.72288676  0.60060873  1
  H  H120  1  0.12474595  0.11839707  0.37843741  1
  H  H121  1  0.12599401  0.44614455  0.38617227  1
  H  H122  1  0.12196534  0.78065092  0.38757545  1
  H  H123  1  0.63300027  0.10885256  0.40740460  1
  H  H124  1  0.62637040  0.44363341  0.39653217  1
  H  H125  1  0.62380186  0.78217111  0.38838231  1
  H  H126  1  0.37657617  0.22320980  0.89603114  1
  H  H127  1  0.37077685  0.55691899  0.89732862  1
  H  H128  1  0.36948522  0.88901203  0.89465873  1
  H  H129  1  0.88068142  0.21477858  0.88136100  1
  H  H130  1  0.87441301  0.55074582  0.87466192  1
  H  H131  1  0.86503435  0.89076950  0.90215076  1
  H  H132  1  0.36633208  0.11169306  0.09942465  1
  H  H133  1  0.36505289  0.44077831  0.09294821  1
  H  H134  1  0.37088224  0.77678611  0.10458191  1
  H  H135  1  0.86782884  0.10871234  0.10128162  1
  H  H136  1  0.87028691  0.44147004  0.10844320  1
  H  H137  1  0.87251936  0.77937882  0.10736751  1
  H  H138  1  0.12486519  0.22114396  0.60568586  1
  H  H139  1  0.13215551  0.55689683  0.59897848  1
  H  H140  1  0.12799204  0.88819438  0.60049028  1
  H  H141  1  0.62273033  0.21715947  0.62170032  1
  H  H142  1  0.63330297  0.55819570  0.59753027  1
  H  H143  1  0.62909994  0.88803741  0.60261108  1
  H  H144  1  0.06413063  0.24723897  -0.00090508  1
  H  H145  1  0.92429192  0.08626333  0.50419350  1
  H  H146  1  0.30773657  0.58465338  1.00657158  1
  H  H147  1  0.58381078  0.07537553  0.50315065  1
  H  H148  1  0.28755741  0.41431811  -0.00549083  1
  H  H149  1  0.66485641  0.75462793  0.00575078  1
  H  H150  1  0.82241823  0.75034582  -0.00176558  1
  H  H151  1  0.70487268  0.23740635  1.00452582  1
  H  H152  1  0.82983649  0.75111902  0.49925991  1
  H  H153  1  0.95138160  0.92693279  -0.00441728  1
  H  H154  1  0.43031887  0.57018439  0.01219730  1
  H  H155  1  0.55308797  0.58119527  0.50594724  1
  H  H156  1  0.04312661  0.41138317  0.49280346  1
  H  H157  1  0.35085980  0.91592092  0.50465196  1
  H  H158  1  0.85245249  0.25044578  0.98653968  1
  H  H159  1  0.42403033  0.07428247  0.49843041  1
  H  H160  1  0.71186312  0.08814973  0.50684258  1
  H  H161  1  0.30481243  0.09326651  0.50402084  1
  H  H162  1  0.15594089  0.75093208  0.49422975  1
  H  H163  1  0.31208108  0.91828582  1.00165233  1
  H  H164  1  0.92520412  0.58493667  0.00069307  1
  H  H165  1  0.81918204  0.43168799  0.00204670  1
  H  H166  1  0.60062440  0.25221106  0.49583366  1
  H  H167  1  0.79446653  0.91902899  1.00765908  1
  H  H168  1  0.70438392  0.58168147  0.49538450  1
  H  H169  1  0.09869443  0.91380516  0.01251594  1
  H  H170  1  0.45913188  0.41609298  1.00533561  1
  H  H171  1  0.66951212  0.40960459  0.00765798  1
  H  H172  1  0.42249448  0.75325963  0.50524320  1
  H  H173  1  0.39813888  0.58646931  0.48744489  1
  H  H174  1  0.10863309  0.08343687  0.98983652  1
  H  H175  1  0.55124878  0.25045224  -0.00262950  1
  H  H176  1  0.83465518  0.91353145  0.50566710  1
  H  H177  1  0.30238371  0.08461637  -0.00827501  1
  H  H178  1  0.57039965  0.60616044  0.00400277  1
  H  H179  1  0.44551486  0.40933984  0.49382603  1
  H  H180  1  0.15102793  0.08696659  0.49040375  1
  H  H181  1  0.66405067  0.75420733  0.49924633  1
  H  H182  1  0.17060859  0.41973820  0.49855853  1
  H  H183  1  0.84295494  0.41402845  0.49691486  1
  H  H184  1  0.91413306  0.58591619  0.49860004  1
  H  H185  1  0.43190188  0.75130349  1.00017867  1
  H  H186  1  0.58551383  0.08161248  0.99731011  1
  H  H187  1  0.16073624  0.75002747  0.00613152  1
  H  H188  1  0.07744181  0.41819298  0.99680064  1
  H  H189  1  0.33034364  0.41911161  0.49877967  1
  H  H190  1  0.59048317  0.91775524  0.00358766  1
  H  H191  1  0.70857067  0.57783034  1.00573356  1
  Pb  Pb192  1  0.25017342  0.04544436  0.74371812  1
  Pb  Pb193  1  0.24673702  0.38246310  0.74812364  1
  Pb  Pb194  1  0.24702942  0.71530719  0.75236541  1
  Pb  Pb195  1  0.74714640  0.04927307  0.74916937  1
  Pb  Pb196  1  0.75186627  0.37945293  0.75599596  1
  Pb  Pb197  1  0.75233129  0.71352022  0.75104277  1
  Pb  Pb198  1  0.24996403  0.28631303  0.25059671  1
  Pb  Pb199  1  0.24806490  0.62162960  0.24743708  1
  Pb  Pb200  1  0.24835521  0.95398448  0.25064298  1
  Pb  Pb201  1  0.74856990  0.28617836  0.24254302  1
  Pb  Pb202  1  0.75196158  0.61710075  0.25274847  1
  Pb  Pb203  1  0.74946316  0.95452881  0.25037521  1
  Pb  Pb204  1  0.00097700  0.21253143  0.74908856  1
  Pb  Pb205  1  0.00019313  0.54572696  0.74473568  1
  Pb  Pb206  1  -0.00452545  0.88174340  0.75632728  1
  Pb  Pb207  1  0.49651507  0.21507614  0.75886237  1
  Pb  Pb208  1  0.50115215  0.55006399  0.75428831  1
  Pb  Pb209  1  0.49967133  0.87901344  0.74929077  1
  Pb  Pb210  1  -0.00170269  0.12148846  0.24654383  1
  Pb  Pb211  1  0.00223275  0.45124868  0.25235682  1
  Pb  Pb212  1  -0.00117056  0.78757345  0.24914899  1
  Pb  Pb213  1  0.49874707  0.11940655  0.25467533  1
  Pb  Pb214  1  0.49795007  0.45283384  0.24614680  1
  Pb  Pb215  1  0.49881377  0.78744556  0.25229819  1
  C  C216  1  -0.00331508  0.04588464  0.63168687  1
  C  C217  1  0.00028146  0.37694807  0.63062711  1
  C  C218  1  0.00190122  0.71381806  0.63036201  1
  C  C219  1  0.49779565  0.04578822  0.63519556  1
  C  C220  1  0.49801899  0.37795012  0.63424025  1
  C  C221  1  0.50193040  0.71306085  0.63038963  1
  C  C222  1  -0.00207657  0.28632020  0.13345625  1
  C  C223  1  -0.00035922  0.62023957  0.13364873  1
  C  C224  1  0.00263627  0.95462845  0.13023079  1
  C  C225  1  0.49755430  0.28618927  0.13245411  1
  C  C226  1  0.49826082  0.62023060  0.13279101  1
  C  C227  1  0.50423502  0.95375941  0.13484380  1
  C  C228  1  0.00206183  0.04700551  0.87101672  1
  C  C229  1  0.00743706  0.38050221  0.86792795  1
  C  C230  1  0.00317863  0.71303705  0.86731764  1
  C  C231  1  0.50413219  0.04612324  0.86610271  1
  C  C232  1  0.50059701  0.38026095  0.86767322  1
  C  C233  1  0.50056768  0.71366378  0.86603188  1
  C  C234  1  -0.00031926  0.28677648  0.37238192  1
  C  C235  1  -0.00231131  0.62156893  0.36799869  1
  C  C236  1  -0.00029587  0.95358545  0.36808082  1
  C  C237  1  0.49960988  0.28684477  0.36939596  1
  C  C238  1  0.49647734  0.62022677  0.36728776  1
  C  C239  1  0.50013311  0.95202206  0.37048364  1
  C  C240  1  0.24881218  0.21430408  0.62774876  1
  C  C241  1  0.25254004  0.54714209  0.63288934  1
  C  C242  1  0.24950930  0.87891202  0.63029272  1
  C  C243  1  0.75040731  0.21376829  0.62915522  1
  C  C244  1  0.75199704  0.54544585  0.63165284  1
  C  C245  1  0.75197909  0.87976296  0.63111066  1
  C  C246  1  0.24735727  0.12060457  0.13167656  1
  C  C247  1  0.24868527  0.45316029  0.13186754  1
  C  C248  1  0.24799489  0.78617741  0.13070801  1
  C  C249  1  0.74646164  0.11954866  0.13192730  1
  C  C250  1  0.74641012  0.45204426  0.13048196  1
  C  C251  1  0.74831605  0.78679137  0.13230129  1
  C  C252  1  0.25471791  0.21281360  0.86602334  1
  C  C253  1  0.25089806  0.54707291  0.86697397  1
  C  C254  1  0.24682275  0.87985358  0.86680942  1
  C  C255  1  0.75336802  0.21209312  0.86915926  1
  C  C256  1  0.74602581  0.54628301  0.86671295  1
  C  C257  1  0.74762038  0.88003842  0.86661920  1
  C  C258  1  0.25283918  0.12327070  0.36760345  1
  C  C259  1  0.25093131  0.45395374  0.36546924  1
  C  C260  1  0.24801190  0.78756777  0.37053530  1
  C  C261  1  0.74851065  0.12286113  0.36881028  1
  C  C262  1  0.74918608  0.45251001  0.36944202  1
  C  C263  1  0.74886179  0.78768886  0.36738694  1
  C  C264  1  0.78519224  0.76014527  0.03833450  1
  C  C265  1  0.02788616  0.25927997  0.03920441  1
  C  C266  1  0.26917232  0.09503837  0.03375022  1
  C  C267  1  0.54296651  0.06745763  0.54156189  1
  C  C268  1  0.79759433  0.42487214  0.46118917  1
  C  C269  1  0.93795418  0.40332898  0.54388667  1
  C  C270  1  0.69120276  0.23775835  0.54177596  1
  C  C271  1  0.28124561  0.75847784  0.46577773  1
  C  C272  1  0.69831274  0.09182131  0.04201190  1
  C  C273  1  0.95863617  0.26043537  0.46415856  1
  C  C274  1  0.52194732  0.59265370  0.46322555  1
  C  C275  1  0.54335684  0.07240898  0.95863968  1
  C  C276  1  0.28303502  0.75717221  0.03580502  1
  C  C277  1  0.81176089  0.57344855  0.54417445  1
  C  C278  1  0.46921592  0.74049695  0.96004759  1
  C  C279  1  0.30220089  0.90593496  0.53986453  1
  C  C280  1  0.54211838  0.74415678  0.53745153  1
  C  C281  1  0.04824970  0.74061159  0.95837944  1
  C  C282  1  0.55193045  0.26168900  0.46050960  1
  C  C283  1  0.70657197  0.76293884  0.46127476  1
  C  C284  1  0.19481135  0.57025065  0.95615868  1
  C  C285  1  0.29171726  0.42933405  0.45956119  1
  C  C286  1  0.96372375  0.59480813  0.04009748  1
  C  C287  1  0.76423539  0.90689284  0.96474482  1
  C  C288  1  0.95672501  0.59565966  0.46026588  1
  C  C289  1  0.47553665  0.40255767  0.53803149  1
  C  C290  1  0.44220455  0.25808090  0.04348584  1
  C  C291  1  0.98092866  0.07836014  0.96735109  1
  C  C292  1  0.46106086  0.06744561  0.53931416  1
  C  C293  1  0.47061791  0.25972877  0.46477817  1
  C  C294  1  0.20965863  0.42968686  0.45949275  1
  C  C295  1  0.05707267  0.73880559  0.54143895  1
  C  C296  1  0.78882459  0.76156689  0.46142503  1
  C  C297  1  0.97620603  0.74081612  0.53507445  1
  C  C298  1  0.29121427  0.24125196  0.53649120  1
  C  C299  1  0.22086839  0.90748367  0.53519857  1
  C  C300  1  0.27648621  0.90610233  0.96133457  1
  C  C301  1  0.71617244  0.42457146  0.46387944  1
  C  C302  1  0.19650934  0.09652796  0.45547247  1
  C  C303  1  0.54580336  0.92783402  0.04248332  1
  C  C304  1  0.44035978  0.92788629  0.45769240  1
  C  C305  1  0.68376348  0.90398997  0.95312403  1
  C  C306  1  0.21066226  0.24139746  0.53541017  1
  C  C307  1  0.77090537  0.23999556  0.53313521  1
  C  C308  1  0.27563114  0.57279595  0.96439861  1
  C  C309  1  0.18834646  0.09723154  0.04335551  1
  C  C310  1  0.52002046  0.92524714  0.46664845  1
  C  C311  1  0.03913413  0.25996838  0.46444091  1
  N  N312  1  0.20396671  0.75882682  0.03996484  1
  N  N313  1  0.04298446  0.59439820  0.03994771  1
  N  N314  1  0.20943914  0.23871865  0.95820000  1
  N  N315  1  0.05589307  0.93176987  0.04202238  1
  N  N316  1  0.78523711  0.42044051  0.03997554  1
  N  N317  1  0.73314023  0.57528439  0.53694341  1
  N  N318  1  0.52075631  0.25787977  0.03796851  1
  N  N319  1  0.73058517  0.24537758  0.96192748  1
  N  N320  1  0.73579222  0.09303304  0.46309887  1
  N  N321  1  0.05873300  0.07453792  0.95757383  1
  N  N322  1  0.96136967  0.07384519  0.54026429  1
  N  N323  1  0.94918455  0.92598751  0.45800199  1
  N  N324  1  0.46390825  0.07376519  0.96015585  1
  N  N325  1  0.04100359  0.40782738  0.95979504  1
  N  N326  1  0.03593006  0.59500256  0.46277349  1
  N  N327  1  0.27572419  0.09418486  0.46211855  1
  N  N328  1  0.73223594  0.57321316  0.96177886  1
  N  N329  1  0.45958923  0.60116697  0.03877355  1
  N  N330  1  0.18539037  0.43056133  0.04528049  1
  N  N331  1  0.44304569  0.59528092  0.45547767  1
  N  N332  1  0.81285927  0.09769433  0.45417781  1
  N  N333  1  0.97059845  0.74295088  0.96270754  1
  N  N334  1  0.77563930  0.08991475  0.03592429  1
  N  N335  1  0.46653926  0.92671438  0.04001365  1
  N  N336  1  0.53995595  0.59113836  0.04224682  1
  N  N337  1  0.48497152  0.40686145  0.96266753  1
  N  N338  1  0.80945943  0.56949996  0.95302725  1
  N  N339  1  0.26247881  0.42746484  0.03636060  1
  N  N340  1  0.70631395  0.43383159  0.03667940  1
  N  N341  1  0.54873342  0.73993979  0.95832491  1
  N  N342  1  0.56226190  0.40316138  0.95483598  1
  N  N343  1  0.71636552  0.90657833  0.53662927  1
  N  N344  1  0.94850482  0.26139705  0.04124275  1
  N  N345  1  0.97761500  0.92059755  0.03825471  1
  N  N346  1  0.20229626  0.75972227  0.46069430  1
  N  N347  1  0.55416302  0.40358953  0.54486563  1
  N  N348  1  0.02538671  0.92433625  0.46345235  1
  N  N349  1  0.03970434  0.07290769  0.53912902  1
  N  N350  1  0.96258058  0.40737106  0.96011267  1
  N  N351  1  0.46299256  0.74338655  0.53955363  1
  N  N352  1  0.70546645  0.75915218  0.04145754  1
  N  N353  1  0.19717654  0.90401375  0.95910661  1
  N  N354  1  0.28582231  0.23967548  0.96134716  1
  N  N355  1  0.80864782  0.23332487  0.95721744  1
  N  N356  1  0.79449453  0.90620969  0.54120437  1
  N  N357  1  0.22730798  0.57383486  0.53662221  1
  N  N358  1  0.30342106  0.57249455  0.54247779  1
  N  N359  1  0.01617471  0.40601000  0.53525041  1
  N  N360  1  0.06089340  0.05530048  0.59621270  1
  N  N361  1  0.05567338  0.38691668  0.58800279  1
  N  N362  1  0.07176480  0.72253676  0.60032637  1
  N  N363  1  0.56449020  0.05416674  0.60146897  1
  N  N364  1  0.56635377  0.38802418  0.60458901  1
  N  N365  1  0.56642131  0.72527469  0.59372563  1
  N  N366  1  0.42760150  0.27518318  0.10202159  1
  N  N367  1  0.43494793  0.60709826  0.09832821  1
  N  N368  1  0.44231447  0.94297475  0.09796582  1
  N  N369  1  0.93154280  0.27787009  0.10083575  1
  N  N370  1  0.93546073  0.61035493  0.09743487  1
  N  N371  1  0.94434805  0.94502673  0.08961113  1
  N  N372  1  0.44126608  0.05724789  0.90194659  1
  N  N373  1  0.44582949  0.39118546  0.91059468  1
  N  N374  1  0.43847420  0.72444649  0.90393957  1
  N  N375  1  0.94527965  0.06099851  0.91398740  1
  N  N376  1  0.94263945  0.39057768  0.90244344  1
  N  N377  1  0.94247866  0.72544156  0.90448813  1
  N  N378  1  0.06466939  0.27586585  0.40838625  1
  N  N379  1  0.05966573  0.61137372  0.40510215  1
  N  N380  1  0.05801939  0.94156944  0.40805684  1
  N  N381  1  0.56834494  0.27859980  0.39982700  1
  N  N382  1  0.55549715  0.60824023  0.40849864  1
  N  N383  1  0.55689411  0.94007265  0.41349196  1
  N  N384  1  0.31485154  0.22489070  0.59288804  1
  N  N385  1  0.32042847  0.55586211  0.60217100  1
  N  N386  1  0.31831134  0.88825628  0.60030693  1
  N  N387  1  0.80749633  0.22550141  0.58638516  1
  N  N388  1  0.82326252  0.55616075  0.60321648  1
  N  N389  1  0.81767529  0.88925474  0.59803744  1
  N  N390  1  0.17585309  0.11237709  0.10285491  1
  N  N391  1  0.17744832  0.44661477  0.10474515  1
  N  N392  1  0.18189493  0.77678179  0.09838032  1
  N  N393  1  0.67798984  0.10950467  0.10021912  1
  N  N394  1  0.68213229  0.44119505  0.09603914  1
  N  N395  1  0.68299737  0.77707766  0.09893905  1
  N  N396  1  0.18890001  0.22247802  0.89905206  1
  N  N397  1  0.18042897  0.55521218  0.89736916  1
  N  N398  1  0.18034504  0.88807422  0.89937721  1
  N  N399  1  0.69599118  0.22182002  0.91048484  1
  N  N400  1  0.69199888  0.55612439  0.91046232  1
  N  N401  1  0.67465192  0.88806122  0.89363317  1
  N  N402  1  0.31052331  0.11397598  0.40872929  1
  N  N403  1  0.31611915  0.44434476  0.40075715  1
  N  N404  1  0.30979731  0.77566777  0.40969052  1
  N  N405  1  0.81992688  0.11397286  0.39482554  1
  N  N406  1  0.81666558  0.44255890  0.40100002  1
  N  N407  1  0.81347834  0.77674340  0.40267299  1
  N  N408  1  0.43902984  0.27482559  0.40985380  1
  N  N409  1  0.42758171  0.61185554  0.39634836  1
  N  N410  1  0.42839400  0.94396120  0.39838022  1
  N  N411  1  0.93410531  0.27665813  0.40796250  1
  N  N412  1  0.93181411  0.61130611  0.40207370  1
  N  N413  1  0.93201527  0.94411614  0.39878475  1
  N  N414  1  0.07220806  0.05505722  0.89827039  1
  N  N415  1  0.06981519  0.39105962  0.90436738  1
  N  N416  1  0.07034207  0.72283332  0.90050289  1
  N  N417  1  0.56928909  0.05618806  0.90099322  1
  N  N418  1  0.57122590  0.38875692  0.89504098  1
  N  N419  1  0.56640659  0.72340682  0.89893257  1
  N  N420  1  0.05938255  0.27436570  0.09527167  1
  N  N421  1  0.06357556  0.61019697  0.09844224  1
  N  N422  1  0.07137096  0.94345632  0.10159666  1
  N  N423  1  0.55608981  0.27715397  0.09205735  1
  N  N424  1  0.56278401  0.61411607  0.09752528  1
  N  N425  1  0.57015305  0.94402173  0.10058611  1
  N  N426  1  0.43420740  0.05406526  0.59793354  1
  N  N427  1  0.43907948  0.38779202  0.59285032  1
  N  N428  1  0.43750026  0.72355925  0.59651443  1
  N  N429  1  0.93385904  0.05765748  0.59632418  1
  N  N430  1  0.92809593  0.38675511  0.60329964  1
  N  N431  1  0.94274470  0.72551089  0.58932959  1
  N  N432  1  0.18235983  0.11298782  0.39644556  1
  N  N433  1  0.18568217  0.44498975  0.40073650  1
  N  N434  1  0.18152811  0.77791725  0.40227907  1
  N  N435  1  0.69504687  0.11122070  0.41243519  1
  N  N436  1  0.68693866  0.44107379  0.40876618  1
  N  N437  1  0.68335800  0.77896133  0.40232746  1
  N  N438  1  0.31525097  0.22374822  0.90435643  1
  N  N439  1  0.30985495  0.55801873  0.90750704  1
  N  N440  1  0.30819484  0.89112107  0.90531786  1
  N  N441  1  0.82268635  0.22227424  0.89730561  1
  N  N442  1  0.81724396  0.55517825  0.89315775  1
  N  N443  1  0.80304787  0.89138644  0.90963443  1
  N  N444  1  0.30491950  0.10973620  0.09030205  1
  N  N445  1  0.30256701  0.44097347  0.08871934  1
  N  N446  1  0.31049951  0.77423643  0.09204472  1
  N  N447  1  0.80575982  0.10765425  0.09325509  1
  N  N448  1  0.81005321  0.44309260  0.09508943  1
  N  N449  1  0.81200379  0.77610708  0.09506933  1
  N  N450  1  0.18437398  0.22509616  0.59114836  1
  N  N451  1  0.19439395  0.55827013  0.59245139  1
  N  N452  1  0.18894565  0.89113065  0.58965908  1
  N  N453  1  0.67881832  0.22180688  0.60103986  1
  N  N454  1  0.69534451  0.55559186  0.59007993  1
  N  N455  1  0.69062264  0.89095519  0.59321305  1
  Cl  Cl456  1  0.24806866  0.05970051  0.60684023  1
  Cl  Cl457  1  0.24597112  0.38816417  0.61339999  1
  Cl  Cl458  1  0.25462120  0.72428409  0.61805601  1
  Cl  Cl459  1  0.74906422  0.05911753  0.60825791  1
  Cl  Cl460  1  0.74915562  0.38368671  0.62527944  1
  Cl  Cl461  1  0.75211190  0.71912890  0.61750725  1
  Cl  Cl462  1  0.24424992  0.28389975  0.11940114  1
  Cl  Cl463  1  0.25290631  0.61719541  0.11144873  1
  Cl  Cl464  1  0.25561303  0.94559369  0.11562692  1
  Cl  Cl465  1  0.74125758  0.27353929  0.10345480  1
  Cl  Cl466  1  0.74434804  0.60500131  0.10870363  1
  Cl  Cl467  1  0.76055812  0.94320713  0.11499549  1
  Cl  Cl468  1  0.25710958  0.05267859  0.87702849  1
  Cl  Cl469  1  0.25995401  0.39413469  0.89576638  1
  Cl  Cl470  1  0.25281616  0.72081245  0.88677604  1
  Cl  Cl471  1  0.75607672  0.05400035  0.87952899  1
  Cl  Cl472  1  0.75753702  0.38878197  0.89283087  1
  Cl  Cl473  1  0.75360472  0.72253310  0.88848533  1
  Cl  Cl474  1  0.25242997  0.28093639  0.38247873  1
  Cl  Cl475  1  0.24491962  0.61868679  0.37906065  1
  Cl  Cl476  1  0.24185839  0.94702965  0.38311794  1
  Cl  Cl477  1  0.75128543  0.28390747  0.37014757  1
  Cl  Cl478  1  0.74032145  0.60588749  0.39024601  1
  Cl  Cl479  1  0.74759486  0.94622715  0.38369518  1
  Cl  Cl480  1  -0.00357007  0.21881990  0.61894589  1
  Cl  Cl481  1  0.00797687  0.55118427  0.61215986  1
  Cl  Cl482  1  0.00055008  0.88395400  0.62441600  1
  Cl  Cl483  1  0.49670474  0.21923579  0.62945378  1
  Cl  Cl484  1  0.50857928  0.55966626  0.61276388  1
  Cl  Cl485  1  0.50698415  0.88198222  0.61738872  1
  Cl  Cl486  1  -0.00849333  0.10917257  0.11278665  1
  Cl  Cl487  1  -0.00658668  0.44346063  0.11877235  1
  Cl  Cl488  1  -0.00167553  0.78291333  0.11715997  1
  Cl  Cl489  1  0.49479589  0.11671196  0.12209046  1
  Cl  Cl490  1  0.48839648  0.44405728  0.10074157  1
  Cl  Cl491  1  0.49727895  0.77644101  0.11828149  1
  Cl  Cl492  1  0.00483226  0.21598500  0.88563840  1
  Cl  Cl493  1  -0.00180143  0.55124890  0.87682152  1
  Cl  Cl494  1  -0.00817840  0.89523063  0.89512405  1
  Cl  Cl495  1  0.51066178  0.22783746  0.89808637  1
  Cl  Cl496  1  0.50461299  0.56000031  0.89855489  1
  Cl  Cl497  1  0.49222217  0.88670577  0.88068193  1
  Cl  Cl498  1  0.00047981  0.11745779  0.37986688  1
  Cl  Cl499  1  0.00346079  0.43968735  0.38857693  1
  Cl  Cl500  1  -0.00125849  0.77859940  0.38093126  1
  Cl  Cl501  1  0.50230802  0.10780939  0.39131181  1
  Cl  Cl502  1  0.50061127  0.44690893  0.37903866  1
  Cl  Cl503  1  0.49465626  0.77843636  0.38788028  1
  Cl  Cl504  1  0.36186217  0.14663044  0.74776782  1
  Cl  Cl505  1  0.36525761  0.47911773  0.74889671  1
  Cl  Cl506  1  0.36410378  0.81152691  0.74680371  1
  Cl  Cl507  1  0.86376295  0.14620001  0.75277335  1
  Cl  Cl508  1  0.86275250  0.48070942  0.75043827  1
  Cl  Cl509  1  0.85945464  0.81363217  0.75120656  1
  Cl  Cl510  1  0.13683767  0.18686943  0.24897937  1
  Cl  Cl511  1  0.13679196  0.51963822  0.24440705  1
  Cl  Cl512  1  0.13800257  0.85307790  0.24712181  1
  Cl  Cl513  1  0.63823901  0.18681209  0.24753694  1
  Cl  Cl514  1  0.63431403  0.52022416  0.24354020  1
  Cl  Cl515  1  0.63777598  0.85323808  0.24771294  1
  Cl  Cl516  1  0.13875547  0.14607662  0.75056112  1
  Cl  Cl517  1  0.14297671  0.47660257  0.75612515  1
  Cl  Cl518  1  0.14425285  0.81186380  0.75265556  1
  Cl  Cl519  1  0.64359283  0.14441346  0.74698375  1
  Cl  Cl520  1  0.63936221  0.47858320  0.75212028  1
  Cl  Cl521  1  0.63611481  0.81134293  0.75441142  1
  Cl  Cl522  1  0.35948263  0.18806020  0.24977741  1
  Cl  Cl523  1  0.36130321  0.52142021  0.24963679  1
  Cl  Cl524  1  0.36018217  0.85390154  0.24972024  1
  Cl  Cl525  1  0.85999848  0.18748426  0.24898456  1
  Cl  Cl526  1  0.85515311  0.52222897  0.24897316  1
  Cl  Cl527  1  0.85983436  0.85278914  0.25060196  1
  Cl  Cl528  1  0.11141910  0.31460494  0.75303004  1
  Cl  Cl529  1  0.11311741  0.64545175  0.74912163  1
  Cl  Cl530  1  0.11394942  0.97914135  0.75389422  1
  Cl  Cl531  1  0.61675481  0.31094885  0.75629778  1
  Cl  Cl532  1  0.61166139  0.64543520  0.75240913  1
  Cl  Cl533  1  0.61353418  0.97799664  0.74950199  1
  Cl  Cl534  1  0.38672736  0.02042969  0.25501994  1
  Cl  Cl535  1  0.38707642  0.35342024  0.24776802  1
  Cl  Cl536  1  0.38595533  0.68678945  0.25205209  1
  Cl  Cl537  1  0.88884023  0.01988262  0.25403524  1
  Cl  Cl538  1  0.88632787  0.35345933  0.24500624  1
  Cl  Cl539  1  0.88444874  0.68733185  0.24951220  1
  Cl  Cl540  1  0.39436513  0.31195714  0.75447073  1
  Cl  Cl541  1  0.39313373  0.64339041  0.74827240  1
  Cl  Cl542  1  0.38961392  0.98019436  0.74799834  1
  Cl  Cl543  1  0.88990690  0.31355207  0.75521971  1
  Cl  Cl544  1  0.88830186  0.64502473  0.74985097  1
  Cl  Cl545  1  0.89481428  0.97861885  0.75041610  1
  Cl  Cl546  1  0.11153318  0.02186753  0.24284430  1
  Cl  Cl547  1  0.10925177  0.35696023  0.25187999  1
  Cl  Cl548  1  0.10899900  0.68682814  0.24728498  1
  Cl  Cl549  1  0.61038102  0.02031626  0.25049881  1
  Cl  Cl550  1  0.61056253  0.35460044  0.24558493  1
  Cl  Cl551  1  0.60658908  0.68591401  0.24903237  1
