# generated using pymatgen
data_H8PbC4(N3Cl2)2
_symmetry_space_group_name_H-M   'P 1'
_cell_length_a   16.62531673
_cell_length_b   22.50758342
_cell_length_c   21.59159467
_cell_angle_alpha   89.99967048
_cell_angle_beta   89.99576334
_cell_angle_gamma   90.00437717
_symmetry_Int_Tables_number   1
_chemical_formula_structural   H8PbC4(N3Cl2)2
_chemical_formula_sum   'H192 Pb24 C96 N144 Cl96'
_cell_volume   8079.48190431
_cell_formula_units_Z   24
loop_
 _symmetry_equiv_pos_site_id
 _symmetry_equiv_pos_as_xyz
  1  'x, y, z'
loop_
 _atom_site_type_symbol
 _atom_site_label
 _atom_site_symmetry_multiplicity
 _atom_site_fract_x
 _atom_site_fract_y
 _atom_site_fract_z
 _atom_site_occupancy
  H  H0  1  0.01115481  0.02909929  0.67750692  1
  H  H1  1  0.00748498  0.36597132  0.67876555  1
  H  H2  1  -0.00377994  0.69908745  0.67573828  1
  H  H3  1  0.48669395  0.03058065  0.68075250  1
  H  H4  1  0.49440373  0.36424410  0.67755963  1
  H  H5  1  0.49460149  0.69864904  0.67999317  1
  H  H6  1  -0.00298297  0.30503159  0.17632630  1
  H  H7  1  -0.00477918  0.63584615  0.18129943  1
  H  H8  1  -0.00881921  0.96790826  0.18265473  1
  H  H9  1  0.50070895  0.30392862  0.18005617  1
  H  H10  1  0.49763066  0.63648899  0.17758952  1
  H  H11  1  0.50893977  0.96830737  0.17629904  1
  H  H12  1  0.01252828  0.03070846  0.82224900  1
  H  H13  1  -0.00217432  0.36136224  0.82248782  1
  H  H14  1  0.00399681  0.69746341  0.82180445  1
  H  H15  1  0.48927889  0.03254748  0.82101432  1
  H  H16  1  0.49792755  0.36596541  0.82096518  1
  H  H17  1  0.49947796  0.69643928  0.82213591  1
  H  H18  1  -0.00849573  0.30059697  0.31554205  1
  H  H19  1  -0.01045174  0.63586691  0.31933381  1
  H  H20  1  0.00187990  0.96804050  0.32522847  1
  H  H21  1  0.51266278  0.29891125  0.31870974  1
  H  H22  1  0.50981311  0.63691307  0.32289913  1
  H  H23  1  0.49870488  0.96824431  0.31913348  1
  H  H24  1  0.24080715  0.19922012  0.68114019  1
  H  H25  1  0.24258282  0.53000912  0.67821940  1
  H  H26  1  0.24894967  0.86149450  0.67853210  1
  H  H27  1  0.75855068  0.19923512  0.68410056  1
  H  H28  1  0.75151421  0.53095436  0.68066813  1
  H  H29  1  0.75940282  0.86358521  0.67886465  1
  H  H30  1  0.24625777  0.13812553  0.18077938  1
  H  H31  1  0.24048556  0.46850000  0.17812841  1
  H  H32  1  0.24157029  0.80002512  0.17945988  1
  H  H33  1  0.75974457  0.13671938  0.17616271  1
  H  H34  1  0.75513463  0.46865230  0.18074232  1
  H  H35  1  0.74896657  0.79995461  0.17917426  1
  H  H36  1  0.24528151  0.19840344  0.82099739  1
  H  H37  1  0.25856498  0.53035990  0.82185802  1
  H  H38  1  0.24431469  0.86729151  0.82083494  1
  H  H39  1  0.75757525  0.19535317  0.81983430  1
  H  H40  1  0.75092291  0.52942514  0.81825237  1
  H  H41  1  0.74446271  0.86461753  0.81734637  1
  H  H42  1  0.24475555  0.13815336  0.31944584  1
  H  H43  1  0.24178723  0.47097320  0.32078447  1
  H  H44  1  0.24606630  0.80216464  0.32600470  1
  H  H45  1  0.76168852  0.13241390  0.32548485  1
  H  H46  1  0.74994773  0.46728900  0.32311794  1
  H  H47  1  0.75646814  0.80611539  0.32090568  1
  H  H48  1  0.12230804  0.05504911  0.59551327  1
  H  H49  1  0.11760780  0.39129676  0.59620401  1
  H  H50  1  0.13251993  0.71819181  0.61757843  1
  H  H51  1  0.62638362  0.04908057  0.62472339  1
  H  H52  1  0.62197456  0.38483408  0.60909665  1
  H  H53  1  0.62686391  0.72057335  0.61598562  1
  H  H54  1  0.37302778  0.28333978  0.11373741  1
  H  H55  1  0.37755883  0.61186762  0.10282489  1
  H  H56  1  0.36825100  0.95121421  0.12230364  1
  H  H57  1  0.87457950  0.27578506  0.10694482  1
  H  H58  1  0.87733495  0.61175086  0.10827207  1
  H  H59  1  0.87111536  0.94611414  0.10757315  1
  H  H60  1  0.38041302  0.05897603  0.90227291  1
  H  H61  1  0.38299081  0.38950282  0.89719327  1
  H  H62  1  0.36651144  0.71847016  0.88549028  1
  H  H63  1  0.87478309  0.05232882  0.87731845  1
  H  H64  1  0.88343685  0.38902506  0.90159620  1
  H  H65  1  0.86908535  0.71600608  0.88276787  1
  H  H66  1  0.12161053  0.28297067  0.38046994  1
  H  H67  1  0.12629426  0.61940675  0.37994895  1
  H  H68  1  0.12421388  0.94424186  0.39461064  1
  H  H69  1  0.61695732  0.27676719  0.40330354  1
  H  H70  1  0.61615856  0.60692458  0.40605742  1
  H  H71  1  0.62613757  0.94652714  0.38730488  1
  H  H72  1  0.37855469  0.21724595  0.62708903  1
  H  H73  1  0.37712376  0.55321918  0.61706258  1
  H  H74  1  0.37394059  0.88555465  0.60652605  1
  H  H75  1  0.87680309  0.21769484  0.60789958  1
  H  H76  1  0.87649619  0.55262934  0.61027868  1
  H  H77  1  0.87390140  0.89037534  0.60116895  1
  H  H78  1  0.12316008  0.11321955  0.10833224  1
  H  H79  1  0.12199970  0.44430594  0.10260446  1
  H  H80  1  0.13916276  0.77445603  0.09468828  1
  H  H81  1  0.62385390  0.11468217  0.11782388  1
  H  H82  1  0.61801341  0.45012056  0.12556682  1
  H  H83  1  0.63279753  0.77648044  0.10037673  1
  H  H84  1  0.12950302  0.22261821  0.89954049  1
  H  H85  1  0.12630230  0.54946631  0.88174729  1
  H  H86  1  0.13445489  0.88994719  0.90118056  1
  H  H87  1  0.62801074  0.22062632  0.88647808  1
  H  H88  1  0.62396739  0.55175932  0.88859486  1
  H  H89  1  0.63415654  0.89025648  0.89852664  1
  H  H90  1  0.37120496  0.11205629  0.38766934  1
  H  H91  1  0.37382661  0.44684392  0.38494383  1
  H  H92  1  0.36948140  0.77971141  0.39427193  1
  H  H93  1  0.86799936  0.10528812  0.40905930  1
  H  H94  1  0.87856327  0.44502347  0.38970690  1
  H  H95  1  0.86946036  0.77889653  0.40081730  1
  H  H96  1  0.37147599  0.28397199  0.37085507  1
  H  H97  1  0.37107099  0.62037502  0.37848801  1
  H  H98  1  0.37677847  0.94412432  0.39280211  1
  H  H99  1  0.87208922  0.28030289  0.39013051  1
  H  H100  1  0.87918120  0.60662342  0.39991313  1
  H  H101  1  0.87530170  0.94801664  0.39161357  1
  H  H102  1  0.12095473  0.05941688  0.90443001  1
  H  H103  1  0.13114126  0.38517221  0.88468462  1
  H  H104  1  0.11581395  0.72342266  0.90164428  1
  H  H105  1  0.62752978  0.05108154  0.87848988  1
  H  H106  1  0.63099300  0.38541919  0.88179995  1
  H  H107  1  0.61366288  0.72413260  0.90073095  1
  H  H108  1  0.12356535  0.28152742  0.10743526  1
  H  H109  1  0.12639299  0.61453980  0.11720992  1
  H  H110  1  0.11993752  0.94624895  0.11445989  1
  H  H111  1  0.62236917  0.28003883  0.10880451  1
  H  H112  1  0.62629648  0.61236851  0.11009619  1
  H  H113  1  0.61281117  0.93821511  0.09182608  1
  H  H114  1  0.38011393  0.05651267  0.59668546  1
  H  H115  1  0.37359024  0.39209889  0.60550180  1
  H  H116  1  0.37881745  0.72445443  0.60338781  1
  H  H117  1  0.87570215  0.04958039  0.61664802  1
  H  H118  1  0.87132320  0.38546201  0.62077570  1
  H  H119  1  0.88501284  0.72750485  0.59538955  1
  H  H120  1  0.12135140  0.11031112  0.38890149  1
  H  H121  1  0.12678723  0.44419396  0.39920877  1
  H  H122  1  0.12098125  0.78180241  0.39392429  1
  H  H123  1  0.62297409  0.11626391  0.37829539  1
  H  H124  1  0.62943926  0.44265632  0.39615552  1
  H  H125  1  0.62139335  0.78251851  0.37861949  1
  H  H126  1  0.37741760  0.22103267  0.88343887  1
  H  H127  1  0.37403846  0.55415701  0.89932573  1
  H  H128  1  0.38189040  0.88338618  0.87841610  1
  H  H129  1  0.87652267  0.22055476  0.89650858  1
  H  H130  1  0.87244443  0.55504160  0.89214360  1
  H  H131  1  0.88131130  0.88503390  0.87682458  1
  H  H132  1  0.37265822  0.11290127  0.11378752  1
  H  H133  1  0.37073536  0.44906436  0.11553201  1
  H  H134  1  0.38416775  0.78475374  0.12906938  1
  H  H135  1  0.87055538  0.10838802  0.09591668  1
  H  H136  1  0.86499522  0.44366782  0.09993759  1
  H  H137  1  0.88029375  0.77855499  0.11495846  1
  H  H138  1  0.13206043  0.22322982  0.59953951  1
  H  H139  1  0.13069518  0.55633906  0.59604140  1
  H  H140  1  0.12495051  0.88570211  0.60587985  1
  H  H141  1  0.62761669  0.21824073  0.62107080  1
  H  H142  1  0.62820366  0.55571258  0.61026047  1
  H  H143  1  0.62587466  0.88418388  0.61646158  1
  H  H144  1  0.58160015  0.91686691  0.49688384  1
  H  H145  1  0.66232016  0.24128318  0.50594317  1
  H  H146  1  0.95530086  0.75662222  0.49436420  1
  H  H147  1  0.21414791  0.74788147  -0.00983022  1
  H  H148  1  0.79852432  0.41734539  -0.00689408  1
  H  H149  1  0.32917097  0.08707555  0.00140381  1
  H  H150  1  0.83869065  0.41640828  0.49637932  1
  H  H151  1  0.05023820  0.07466757  0.49300983  1
  H  H152  1  0.63527888  0.42031080  0.01051045  1
  H  H153  1  0.15336191  0.58051553  0.99602804  1
  H  H154  1  0.70251827  0.91741594  1.00354028  1
  H  H155  1  0.57981759  0.58126245  0.00539216  1
  H  H156  1  0.17756002  0.09915440  0.00040700  1
  H  H157  1  0.95225526  0.41490777  1.00395589  1
  H  H158  1  0.93022463  0.58241263  -0.00162168  1
  H  H159  1  0.20087932  0.25049549  0.49285054  1
  H  H160  1  0.54017298  0.59704716  0.50662790  1
  H  H161  1  0.40915235  0.25470122  0.00210010  1
  H  H162  1  0.19973753  0.91578413  1.00923900  1
  H  H163  1  0.57908867  0.42090743  0.50820058  1
  H  H164  1  0.36071690  0.24846253  0.51209466  1
  H  H165  1  0.82052547  0.23122107  0.49528879  1
  H  H166  1  0.32355588  0.09107629  0.49541486  1
  H  H167  1  0.17076016  0.08335611  0.50004643  1
  H  H168  1  0.08469567  0.26401112  0.49593491  1
  H  H169  1  0.54188149  0.25209200  0.50991644  1
  H  H170  1  0.33686595  0.41824432  0.00202748  1
  H  H171  1  0.39705921  0.74853371  0.99433295  1
  H  H172  1  0.38452551  0.91554634  0.01324041  1
  H  H173  1  0.39338224  0.58432260  0.48458809  1
  H  H174  1  0.42715073  0.40630111  0.50071877  1
  H  H175  1  0.04715493  0.73647172  1.00478012  1
  H  H176  1  0.92571884  0.26376287  0.50278279  1
  H  H177  1  0.82348334  0.59680141  0.51348627  1
  H  H178  1  0.80264982  0.75725603  0.50393989  1
  H  H179  1  0.94927300  0.57804793  0.50445911  1
  H  H180  1  0.69707565  0.74663956  -0.00106410  1
  H  H181  1  0.63987506  0.08546026  0.49275571  1
  H  H182  1  0.64848015  0.75281671  0.49118280  1
  H  H183  1  0.92545153  0.91860190  0.00003457  1
  H  H184  1  0.60257835  0.08039502  0.98654231  1
  H  H185  1  0.89976599  0.75091659  0.98793573  1
  H  H186  1  0.45481194  0.08202610  0.49239022  1
  H  H187  1  0.68187453  0.56408153  0.50308354  1
  H  H188  1  0.04677036  0.08350692  1.00602553  1
  H  H189  1  0.53375510  0.92138176  -0.00828992  1
  H  H190  1  0.44892907  0.08359826  1.00929084  1
  H  H191  1  0.57482656  0.25389400  -0.00165457  1
  Pb  Pb192  1  0.24931549  0.05036959  0.74914284  1
  Pb  Pb193  1  0.25130422  0.37914407  0.74865969  1
  Pb  Pb194  1  0.25207253  0.71204612  0.75316070  1
  Pb  Pb195  1  0.75165931  0.04404296  0.75091761  1
  Pb  Pb196  1  0.75524432  0.38189625  0.74821741  1
  Pb  Pb197  1  0.75117244  0.71391825  0.74912388  1
  Pb  Pb198  1  0.24254242  0.28580148  0.24658063  1
  Pb  Pb199  1  0.25109962  0.62217222  0.24386717  1
  Pb  Pb200  1  0.24775272  0.95207332  0.25217035  1
  Pb  Pb201  1  0.74789196  0.28600495  0.25478534  1
  Pb  Pb202  1  0.74412850  0.61723905  0.25878460  1
  Pb  Pb203  1  0.74544438  0.95372828  0.24291549  1
  Pb  Pb204  1  -0.00092881  0.21321597  0.74859966  1
  Pb  Pb205  1  0.00498361  0.54815527  0.74568859  1
  Pb  Pb206  1  0.00356552  0.87992173  0.75013422  1
  Pb  Pb207  1  0.50467338  0.21471869  0.75310058  1
  Pb  Pb208  1  0.50148814  0.54683714  0.74974931  1
  Pb  Pb209  1  0.50156174  0.87984699  0.75231923  1
  Pb  Pb210  1  -0.00649482  0.11709936  0.25145575  1
  Pb  Pb211  1  -0.00120018  0.45486403  0.24541450  1
  Pb  Pb212  1  -0.00295892  0.78515755  0.24887564  1
  Pb  Pb213  1  0.49643431  0.12042054  0.24823245  1
  Pb  Pb214  1  0.49396551  0.45102402  0.25942599  1
  Pb  Pb215  1  0.50105471  0.78772897  0.24970822  1
  C  C216  1  0.00355244  0.04384261  0.62998326  1
  C  C217  1  -0.00113092  0.38042113  0.63146529  1
  C  C218  1  0.00445681  0.71417048  0.62847783  1
  C  C219  1  0.49802263  0.04526235  0.63367472  1
  C  C220  1  0.49669035  0.38033263  0.63002946  1
  C  C221  1  0.50061072  0.71394469  0.63283641  1
  C  C222  1  -0.00140756  0.28762634  0.12975539  1
  C  C223  1  -0.00074064  0.62066250  0.13379656  1
  C  C224  1  -0.00582567  0.95298441  0.13495946  1
  C  C225  1  0.49865240  0.28865708  0.13234402  1
  C  C226  1  0.50089160  0.62050477  0.13031815  1
  C  C227  1  0.49637413  0.95276469  0.12945361  1
  C  C228  1  0.00297685  0.04608230  0.86917690  1
  C  C229  1  0.00381150  0.37740077  0.86962076  1
  C  C230  1  -0.00406363  0.71201640  0.86945383  1
  C  C231  1  0.49963013  0.04746238  0.86829745  1
  C  C232  1  0.50421079  0.38051753  0.86847509  1
  C  C233  1  0.49276050  0.71253759  0.86929038  1
  C  C234  1  -0.00478030  0.28727034  0.36381231  1
  C  C235  1  -0.00164054  0.62090305  0.36660146  1
  C  C236  1  0.00042379  0.95307160  0.37313143  1
  C  C237  1  0.50040473  0.28648360  0.36634521  1
  C  C238  1  0.49894176  0.62150317  0.36995696  1
  C  C239  1  0.50047564  0.95289008  0.36668710  1
  C  C240  1  0.25100897  0.21336910  0.63365537  1
  C  C241  1  0.25008257  0.54537066  0.63090919  1
  C  C242  1  0.24935270  0.87741179  0.63114430  1
  C  C243  1  0.75417549  0.21255299  0.63589263  1
  C  C244  1  0.75211485  0.54632291  0.63285240  1
  C  C245  1  0.75264609  0.87904758  0.63179794  1
  C  C246  1  0.24682983  0.12269913  0.13307214  1
  C  C247  1  0.24507087  0.45390042  0.13048452  1
  C  C248  1  0.25515466  0.78662806  0.13223297  1
  C  C249  1  0.75094823  0.12073873  0.12948092  1
  C  C250  1  0.74560533  0.45427089  0.13324940  1
  C  C251  1  0.75390221  0.78482294  0.13163719  1
  C  C252  1  0.25064006  0.21373096  0.86821587  1
  C  C253  1  0.25224255  0.54481258  0.86943588  1
  C  C254  1  0.25351368  0.88029557  0.86876519  1
  C  C255  1  0.75397148  0.21188400  0.86691681  1
  C  C256  1  0.74905659  0.54503181  0.86576895  1
  C  C257  1  0.75364852  0.87927024  0.86470681  1
  C  C258  1  0.24630316  0.12126549  0.36666659  1
  C  C259  1  0.24760733  0.45479218  0.36791617  1
  C  C260  1  0.24551192  0.78773233  0.37394548  1
  C  C261  1  0.75003937  0.11837880  0.37262608  1
  C  C262  1  0.75307871  0.45181534  0.37055825  1
  C  C263  1  0.74920510  0.78996205  0.36811316  1
  C  C264  1  0.47616873  0.40775257  0.96350004  1
  C  C265  1  0.95766244  0.92719911  0.46427300  1
  C  C266  1  0.78631267  0.23006049  0.53814853  1
  C  C267  1  0.24256504  0.75990162  0.03399316  1
  C  C268  1  0.48207639  0.07206802  0.53721175  1
  C  C269  1  0.32250636  0.76332751  0.04708818  1
  C  C270  1  0.47775119  0.07395497  0.96517246  1
  C  C271  1  0.43494174  0.26528595  0.45265824  1
  C  C272  1  0.31150127  0.23846485  0.54607559  1
  C  C273  1  0.21168851  0.42714606  0.03556934  1
  C  C274  1  0.28169106  0.57194156  0.96494382  1
  C  C275  1  0.55677565  0.40622420  0.95841805  1
  C  C276  1  0.68901128  0.09425215  0.46053412  1
  C  C277  1  0.73328033  0.90631914  0.96043579  1
  C  C278  1  0.06347684  0.74228737  0.54047340  1
  C  C279  1  0.77864978  0.91131162  0.53827846  1
  C  C280  1  0.29311871  0.42812731  0.03832538  1
  C  C281  1  0.96363115  0.25357733  0.03916203  1
  C  C282  1  0.47240472  0.74371935  0.53867694  1
  C  C283  1  0.96242283  0.92805661  0.04037479  1
  C  C284  1  0.29068149  0.09584959  0.04106713  1
  C  C285  1  0.96773173  0.59320357  0.03801130  1
  C  C286  1  0.94438585  0.40557794  0.54271700  1
  C  C287  1  0.76918017  0.09105559  0.46959723  1
  C  C288  1  0.71634991  0.42387590  0.46543610  1
  C  C289  1  0.20703493  0.09243181  0.45917008  1
  C  C290  1  0.23050578  0.23997663  0.53636833  1
  C  C291  1  0.70471867  0.23266652  0.54320768  1
  C  C292  1  0.96131476  0.26815233  0.46082781  1
  C  C293  1  0.20030691  0.57074884  0.96047074  1
  C  C294  1  0.29880859  0.24145937  0.95812063  1
  C  C295  1  0.54079584  0.92683977  0.45874897  1
  C  C296  1  0.69370781  0.76149986  0.45573084  1
  C  C297  1  0.51471754  0.26243885  0.46531941  1
  C  C298  1  0.53544168  0.26316590  0.03735225  1
  C  C299  1  0.97881737  0.59154916  0.46176497  1
  C  C300  1  0.20360490  0.76117016  0.46588508  1
  C  C301  1  0.28475541  0.76039351  0.46587709  1
  C  C302  1  0.68600922  0.42991329  0.04494034  1
  C  C303  1  0.94182521  0.07668189  0.95504521  1
  C  C304  1  0.03782927  0.92581369  0.46522275  1
  C  C305  1  0.31291552  0.90130954  0.95793497  1
  C  C306  1  0.45324959  0.26405935  0.03916668  1
  C  C307  1  0.23212506  0.90470048  0.96693221  1
  C  C308  1  0.77286620  0.08994735  0.03456734  1
  C  C309  1  0.04929563  0.59464116  0.04293826  1
  C  C310  1  0.04309606  0.26907789  0.45747751  1
  C  C311  1  0.76742243  0.42810991  0.03601652  1
  N  N312  1  0.52177085  0.74143814  0.96422838  1
  N  N313  1  0.04099119  0.25549912  0.03806998  1
  N  N314  1  0.51688314  0.58805572  0.46343817  1
  N  N315  1  0.44405234  0.73908038  0.95807648  1
  N  N316  1  0.69576178  0.09230374  0.04038627  1
  N  N317  1  0.98486404  0.74493190  0.53426223  1
  N  N318  1  0.53971993  0.39915756  0.53729409  1
  N  N319  1  0.22165148  0.24171174  0.96477108  1
  N  N320  1  0.94251269  0.73269478  0.95835626  1
  N  N321  1  0.51134134  0.91819663  0.03637181  1
  N  N322  1  0.29636114  0.42387696  0.45735045  1
  N  N323  1  0.55994566  0.07111075  0.54730047  1
  N  N324  1  0.70722733  0.57137527  0.95877276  1
  N  N325  1  0.05722509  0.59546160  0.45510490  1
  N  N326  1  0.21090817  0.09579265  0.04009030  1
  N  N327  1  0.78410207  0.57259867  0.95997695  1
  N  N328  1  0.79552060  0.42519763  0.46197246  1
  N  N329  1  0.80614057  0.76196652  0.04090455  1
  N  N330  1  0.21994400  0.42331055  0.46222996  1
  N  N331  1  0.55622703  0.07206628  0.95543595  1
  N  N332  1  0.28664329  0.09205629  0.45751921  1
  N  N333  1  0.72792777  0.76110785  0.03720275  1
  N  N334  1  0.22666662  0.57411686  0.53502412  1
  N  N335  1  0.94629172  0.06951101  0.54202197  1
  N  N336  1  0.71248292  0.57623652  0.54229084  1
  N  N337  1  0.02119665  0.40755155  0.53358260  1
  N  N338  1  0.30258625  0.57191376  0.54151339  1
  N  N339  1  0.28773712  0.90526952  0.53781594  1
  N  N340  1  0.46151614  0.92577520  0.46108139  1
  N  N341  1  0.77293968  0.75947609  0.46215589  1
  N  N342  1  0.21168984  0.90557309  0.53780093  1
  N  N343  1  0.78548013  0.24153148  0.96104892  1
  N  N344  1  0.46167523  0.41369148  0.53949858  1
  N  N345  1  0.54150526  0.59344285  0.04028630  1
  N  N346  1  0.43438848  0.93067565  0.04432904  1
  N  N347  1  0.04164680  0.92735417  0.04245193  1
  N  N348  1  0.05790087  0.40725124  0.95731597  1
  N  N349  1  0.02365913  0.07147277  0.53581099  1
  N  N350  1  0.70119629  0.90868086  0.54147195  1
  N  N351  1  0.98024548  0.40847182  0.96194294  1
  N  N352  1  0.54987654  0.74156652  0.54126354  1
  N  N353  1  0.81204797  0.90507505  0.95329438  1
  N  N354  1  0.43916713  0.60064783  0.45628581  1
  N  N355  1  0.02069992  0.74388911  0.96241197  1
  N  N356  1  0.79250251  0.56655446  0.53972284  1
  N  N357  1  0.01993228  0.07703952  0.96367292  1
  N  N358  1  0.70909571  0.24191178  0.95768201  1
  N  N359  1  0.46351454  0.59281319  0.03656625  1
  N  N360  1  0.06056212  0.05329289  0.58830420  1
  N  N361  1  0.05539850  0.39140473  0.59007945  1
  N  N362  1  0.07557397  0.72358261  0.59899210  1
  N  N363  1  0.56855913  0.05441852  0.60721311  1
  N  N364  1  0.56196925  0.39036901  0.59657762  1
  N  N365  1  0.56764693  0.72294899  0.60147639  1
  N  N366  1  0.43221416  0.27978173  0.09863704  1
  N  N367  1  0.43879113  0.60989674  0.09288487  1
  N  N368  1  0.42495389  0.94297336  0.10436359  1
  N  N369  1  0.93467552  0.27290087  0.09437535  1
  N  N370  1  0.93774648  0.60944468  0.09594060  1
  N  N371  1  0.93166542  0.94343868  0.09690639  1
  N  N372  1  0.44196663  0.05876986  0.91103621  1
  N  N373  1  0.44406268  0.39211648  0.90853426  1
  N  N374  1  0.42533719  0.72110567  0.90053272  1
  N  N375  1  0.93129272  0.05793002  0.89649212  1
  N  N376  1  0.94544541  0.38798299  0.90983173  1
  N  N377  1  0.92719200  0.72238045  0.89835453  1
  N  N378  1  0.06277823  0.28058294  0.39696412  1
  N  N379  1  0.06764828  0.61341275  0.39590886  1
  N  N380  1  0.06484130  0.94114783  0.40952712  1
  N  N381  1  0.55490902  0.27590058  0.41032251  1
  N  N382  1  0.55430897  0.61130055  0.41280121  1
  N  N383  1  0.56626390  0.94333250  0.40112758  1
  N  N384  1  0.32249166  0.22202124  0.60668966  1
  N  N385  1  0.31852398  0.55449913  0.60102036  1
  N  N386  1  0.31282600  0.88776892  0.59568975  1
  N  N387  1  0.81609783  0.21843646  0.59637685  1
  N  N388  1  0.81614473  0.55976101  0.59936355  1
  N  N389  1  0.81259021  0.89298727  0.59205864  1
  N  N390  1  0.18405779  0.11600099  0.09615054  1
  N  N391  1  0.18264838  0.44267269  0.09111237  1
  N  N392  1  0.20133377  0.77491686  0.08813092  1
  N  N393  1  0.68200785  0.11181842  0.10082648  1
  N  N394  1  0.67453198  0.44586051  0.10557890  1
  N  N395  1  0.69475631  0.77356392  0.09249343  1
  N  N396  1  0.19133156  0.22437992  0.90736499  1
  N  N397  1  0.18356381  0.55389007  0.89981815  1
  N  N398  1  0.19608056  0.89129612  0.91021444  1
  N  N399  1  0.68831930  0.22388455  0.89925582  1
  N  N400  1  0.68454819  0.55430679  0.90042656  1
  N  N401  1  0.69614773  0.89044377  0.90658766  1
  N  N402  1  0.31062923  0.11277459  0.40138843  1
  N  N403  1  0.31455733  0.44332613  0.39878384  1
  N  N404  1  0.31036056  0.77650824  0.40997271  1
  N  N405  1  0.80639017  0.10560579  0.41676280  1
  N  N406  1  0.81856442  0.44251863  0.40362919  1
  N  N407  1  0.80699296  0.78046317  0.40898872  1
  N  N408  1  0.42666214  0.27955482  0.39269687  1
  N  N409  1  0.42827023  0.61183988  0.39613056  1
  N  N410  1  0.43813922  0.94177703  0.40319029  1
  N  N411  1  0.93263802  0.27884638  0.40208809  1
  N  N412  1  0.94067752  0.60725928  0.40782464  1
  N  N413  1  0.93394027  0.94356352  0.40802261  1
  N  N414  1  0.05896172  0.05618225  0.91143529  1
  N  N415  1  0.07206994  0.38930631  0.89933911  1
  N  N416  1  0.05401848  0.72079192  0.91048283  1
  N  N417  1  0.56941777  0.05622216  0.89581608  1
  N  N418  1  0.57351480  0.38963582  0.89961205  1
  N  N419  1  0.55166517  0.72530536  0.90879938  1
  N  N420  1  0.06299692  0.27693892  0.09569176  1
  N  N421  1  0.06776925  0.61087945  0.10094813  1
  N  N422  1  0.05949072  0.94244751  0.10164694  1
  N  N423  1  0.56218607  0.27822543  0.09569712  1
  N  N424  1  0.56601035  0.60985180  0.09702350  1
  N  N425  1  0.55037359  0.94140241  0.08581477  1
  N  N426  1  0.44225688  0.05663749  0.59015264  1
  N  N427  1  0.43431709  0.39054587  0.59347969  1
  N  N428  1  0.43998912  0.72678530  0.59333844  1
  N  N429  1  0.93442189  0.05423756  0.60098097  1
  N  N430  1  0.92844432  0.38935063  0.60244253  1
  N  N431  1  0.94723620  0.72632982  0.58791789  1
  N  N432  1  0.18165652  0.10901565  0.40236312  1
  N  N433  1  0.18849330  0.44247130  0.40709578  1
  N  N434  1  0.17975691  0.77779515  0.40946126  1
  N  N435  1  0.67839256  0.11137161  0.39927544  1
  N  N436  1  0.68995673  0.44000186  0.40857873  1
  N  N437  1  0.67901638  0.77832968  0.39686207  1
  N  N438  1  0.31910110  0.22464249  0.89958871  1
  N  N439  1  0.31297976  0.55634083  0.91005399  1
  N  N440  1  0.32526622  0.88684962  0.89795780  1
  N  N441  1  0.81472404  0.22306446  0.90497909  1
  N  N442  1  0.81100755  0.55664680  0.90244901  1
  N  N443  1  0.82284534  0.88836371  0.89353014  1
  N  N444  1  0.31302583  0.11066828  0.09908115  1
  N  N445  1  0.31251605  0.44487189  0.09849918  1
  N  N446  1  0.32926887  0.77946708  0.10707466  1
  N  N447  1  0.80897057  0.10693003  0.08808905  1
  N  N448  1  0.80325669  0.44332723  0.09135406  1
  N  N449  1  0.82146175  0.77686151  0.09984593  1
  N  N450  1  0.19380642  0.22429245  0.59117931  1
  N  N451  1  0.19265912  0.55722332  0.59015135  1
  N  N452  1  0.18615660  0.88861337  0.59554201  1
  N  N453  1  0.68607031  0.22187388  0.60412813  1
  N  N454  1  0.68829398  0.55246666  0.59677932  1
  N  N455  1  0.68500880  0.88841353  0.60136980  1
  Cl  Cl456  1  0.25209872  0.06030837  0.60486535  1
  Cl  Cl457  1  0.24824336  0.38909288  0.61735622  1
  Cl  Cl458  1  0.25691697  0.71845464  0.62354880  1
  Cl  Cl459  1  0.75302908  0.04821973  0.61958262  1
  Cl  Cl460  1  0.74493291  0.39019783  0.61265572  1
  Cl  Cl461  1  0.76201436  0.72539033  0.60517796  1
  Cl  Cl462  1  0.24791772  0.28304875  0.11901962  1
  Cl  Cl463  1  0.25374700  0.61147197  0.11081749  1
  Cl  Cl464  1  0.24392204  0.95076447  0.11634019  1
  Cl  Cl465  1  0.74909491  0.27923240  0.12618975  1
  Cl  Cl466  1  0.74835493  0.61538686  0.12665334  1
  Cl  Cl467  1  0.73554660  0.94194993  0.10680529  1
  Cl  Cl468  1  0.24748489  0.06456568  0.89326055  1
  Cl  Cl469  1  0.25786484  0.38745790  0.88304040  1
  Cl  Cl470  1  0.23836055  0.72194658  0.88858121  1
  Cl  Cl471  1  0.75015636  0.05080254  0.88323349  1
  Cl  Cl472  1  0.76398776  0.39002786  0.88209469  1
  Cl  Cl473  1  0.73758237  0.72244225  0.88870704  1
  Cl  Cl474  1  0.24385588  0.27721594  0.38029046  1
  Cl  Cl475  1  0.25045825  0.62333484  0.37488270  1
  Cl  Cl476  1  0.25239429  0.95028299  0.38006288  1
  Cl  Cl477  1  0.74400118  0.27847057  0.39076010  1
  Cl  Cl478  1  0.74407718  0.60374967  0.40202270  1
  Cl  Cl479  1  0.74975038  0.94800221  0.37365096  1
  Cl  Cl480  1  0.00530708  0.22146698  0.61306792  1
  Cl  Cl481  1  0.00038224  0.55515823  0.60968927  1
  Cl  Cl482  1  0.00048469  0.88378510  0.61627860  1
  Cl  Cl483  1  0.50483927  0.21839693  0.62102949  1
  Cl  Cl484  1  0.50605301  0.56170628  0.60850104  1
  Cl  Cl485  1  0.49780638  0.88493369  0.62071977  1
  Cl  Cl486  1  -0.00004953  0.10704638  0.10794684  1
  Cl  Cl487  1  -0.00922148  0.44069976  0.10831554  1
  Cl  Cl488  1  0.01101333  0.77101506  0.10842402  1
  Cl  Cl489  1  0.49585359  0.10793400  0.11311348  1
  Cl  Cl490  1  0.49366434  0.45165545  0.13208762  1
  Cl  Cl491  1  0.51303360  0.78179594  0.11626244  1
  Cl  Cl492  1  0.00072479  0.21723383  0.88207099  1
  Cl  Cl493  1  -0.00547681  0.55335565  0.87849910  1
  Cl  Cl494  1  0.00897031  0.88574493  0.88323556  1
  Cl  Cl495  1  0.50362671  0.21962432  0.88623196  1
  Cl  Cl496  1  0.50080176  0.55428540  0.88293470  1
  Cl  Cl497  1  0.51203824  0.89514550  0.89242585  1
  Cl  Cl498  1  -0.00218140  0.10458130  0.38829893  1
  Cl  Cl499  1  0.00174497  0.44753947  0.37733389  1
  Cl  Cl500  1  -0.01146049  0.77718933  0.38994327  1
  Cl  Cl501  1  0.49076805  0.10996268  0.38237163  1
  Cl  Cl502  1  0.50417188  0.44416115  0.39695701  1
  Cl  Cl503  1  0.49645391  0.77917410  0.37793045  1
  Cl  Cl504  1  0.36605381  0.14488343  0.74912881  1
  Cl  Cl505  1  0.36598715  0.47913198  0.74484693  1
  Cl  Cl506  1  0.36286240  0.81321771  0.75832945  1
  Cl  Cl507  1  0.86064273  0.14627821  0.74895258  1
  Cl  Cl508  1  0.85635887  0.47891878  0.74275898  1
  Cl  Cl509  1  0.86463813  0.81220538  0.75620354  1
  Cl  Cl510  1  0.14210716  0.18704399  0.24978744  1
  Cl  Cl511  1  0.13919884  0.52120846  0.24559370  1
  Cl  Cl512  1  0.13952703  0.85135656  0.24883471  1
  Cl  Cl513  1  0.63461979  0.18593090  0.25079286  1
  Cl  Cl514  1  0.64126404  0.52128016  0.25528840  1
  Cl  Cl515  1  0.64095752  0.85253900  0.25190257  1
  Cl  Cl516  1  0.14688994  0.14587875  0.75004108  1
  Cl  Cl517  1  0.14041488  0.48111723  0.75481050  1
  Cl  Cl518  1  0.14122172  0.81343395  0.75046028  1
  Cl  Cl519  1  0.63785617  0.14379950  0.75002409  1
  Cl  Cl520  1  0.63606866  0.47836027  0.74595180  1
  Cl  Cl521  1  0.64070837  0.81410797  0.74465852  1
  Cl  Cl522  1  0.36159348  0.18945838  0.25044756  1
  Cl  Cl523  1  0.36266499  0.52196186  0.25743336  1
  Cl  Cl524  1  0.36394214  0.85460768  0.24407113  1
  Cl  Cl525  1  0.85740818  0.18337248  0.25499728  1
  Cl  Cl526  1  0.86042432  0.52009123  0.25259084  1
  Cl  Cl527  1  0.86018534  0.85337048  0.24322021  1
  Cl  Cl528  1  0.11076931  0.31428180  0.75202728  1
  Cl  Cl529  1  0.10560382  0.64846784  0.74994733  1
  Cl  Cl530  1  0.11208651  0.98319403  0.74938580  1
  Cl  Cl531  1  0.60783658  0.31247993  0.74713352  1
  Cl  Cl532  1  0.61567508  0.64618147  0.74309575  1
  Cl  Cl533  1  0.61309570  0.97950072  0.74920924  1
  Cl  Cl534  1  0.38531623  0.02006459  0.24496827  1
  Cl  Cl535  1  0.38984619  0.35533698  0.25635627  1
  Cl  Cl536  1  0.39153559  0.68670575  0.24516815  1
  Cl  Cl537  1  0.89393347  0.02089038  0.24948291  1
  Cl  Cl538  1  0.88708349  0.35355606  0.25161293  1
  Cl  Cl539  1  0.89142452  0.68841875  0.25026611  1
  Cl  Cl540  1  0.38958379  0.31131690  0.74724426  1
  Cl  Cl541  1  0.39224903  0.64880277  0.75384578  1
  Cl  Cl542  1  0.39363365  0.98039824  0.75355921  1
  Cl  Cl543  1  0.88882287  0.31259565  0.74515816  1
  Cl  Cl544  1  0.88505964  0.64495726  0.75075592  1
  Cl  Cl545  1  0.89038148  0.97962979  0.75337616  1
  Cl  Cl546  1  0.11332423  0.02118013  0.24868367  1
  Cl  Cl547  1  0.11007873  0.35371901  0.24768652  1
  Cl  Cl548  1  0.11085557  0.68648802  0.25022204  1
  Cl  Cl549  1  0.60716465  0.01916655  0.24592900  1
  Cl  Cl550  1  0.61184512  0.35446971  0.25139677  1
  Cl  Cl551  1  0.61051961  0.68596276  0.25374852  1
