# generated using pymatgen
data_H8PbC4(N3Cl2)2
_symmetry_space_group_name_H-M   'P 1'
_cell_length_a   16.61971812
_cell_length_b   22.50299293
_cell_length_c   21.58858989
_cell_angle_alpha   89.99938744
_cell_angle_beta   90.01057132
_cell_angle_gamma   90.00614399
_symmetry_Int_Tables_number   1
_chemical_formula_structural   H8PbC4(N3Cl2)2
_chemical_formula_sum   'H192 Pb24 C96 N144 Cl96'
_cell_volume   8073.98993397
_cell_formula_units_Z   24
loop_
 _symmetry_equiv_pos_site_id
 _symmetry_equiv_pos_as_xyz
  1  'x, y, z'
loop_
 _atom_site_type_symbol
 _atom_site_label
 _atom_site_symmetry_multiplicity
 _atom_site_fract_x
 _atom_site_fract_y
 _atom_site_fract_z
 _atom_site_occupancy
  H  H0  1  -0.00003514  0.03332110  0.67598300  1
  H  H1  1  -0.00633717  0.36599501  0.67842774  1
  H  H2  1  -0.00618489  0.69717709  0.68263293  1
  H  H3  1  0.49954557  0.03165041  0.68084654  1
  H  H4  1  0.50464693  0.36654684  0.67832815  1
  H  H5  1  0.50213585  0.69696467  0.68180382  1
  H  H6  1  0.00425556  0.30084983  0.17961145  1
  H  H7  1  0.00345326  0.63387299  0.18224488  1
  H  H8  1  0.00515999  0.96751827  0.17873437  1
  H  H9  1  0.50415386  0.30105607  0.18031890  1
  H  H10  1  0.50505345  0.63479915  0.18182988  1
  H  H11  1  0.50016575  0.96715147  0.17926977  1
  H  H12  1  0.00226036  0.03097434  0.82161677  1
  H  H13  1  0.00471977  0.36744452  0.81895193  1
  H  H14  1  -0.00393626  0.69790073  0.82100859  1
  H  H15  1  0.49563427  0.03067248  0.81969277  1
  H  H16  1  0.50419139  0.36587655  0.82001000  1
  H  H17  1  0.49827333  0.69839973  0.82082605  1
  H  H18  1  -0.00035592  0.30307407  0.32041371  1
  H  H19  1  0.00234762  0.63440854  0.32037790  1
  H  H20  1  0.00145171  0.96799990  0.32292691  1
  H  H21  1  0.50323668  0.30295179  0.32144570  1
  H  H22  1  0.49271908  0.63531555  0.32051688  1
  H  H23  1  0.50446019  0.96632126  0.31801685  1
  H  H24  1  0.25642673  0.19956720  0.67902198  1
  H  H25  1  0.24916656  0.53181524  0.68084036  1
  H  H26  1  0.25257999  0.86443405  0.68120003  1
  H  H27  1  0.74454272  0.20404710  0.67992247  1
  H  H28  1  0.74574626  0.53037905  0.68070419  1
  H  H29  1  0.74156237  0.86672672  0.67953741  1
  H  H30  1  0.25708832  0.13437129  0.18113834  1
  H  H31  1  0.24701494  0.46945247  0.17870208  1
  H  H32  1  0.25390114  0.80215784  0.17707088  1
  H  H33  1  0.74997025  0.13515915  0.18133499  1
  H  H34  1  0.74648105  0.46756053  0.18144510  1
  H  H35  1  0.75149417  0.80165306  0.18086278  1
  H  H36  1  0.24902625  0.19950629  0.81879158  1
  H  H37  1  0.24198281  0.53365828  0.82314869  1
  H  H38  1  0.24385443  0.86401869  0.82041636  1
  H  H39  1  0.74707794  0.19957348  0.82001626  1
  H  H40  1  0.74611119  0.53264954  0.81711265  1
  H  H41  1  0.74421504  0.86564698  0.82327755  1
  H  H42  1  0.26344617  0.13486432  0.32227379  1
  H  H43  1  0.24733635  0.46960107  0.32342240  1
  H  H44  1  0.24982995  0.80047759  0.31852828  1
  H  H45  1  0.73658695  0.13406008  0.32170622  1
  H  H46  1  0.74971803  0.46730506  0.32409881  1
  H  H47  1  0.74490792  0.80110357  0.31693490  1
  H  H48  1  0.12389893  0.05831845  0.60557150  1
  H  H49  1  0.12195430  0.38556835  0.61357915  1
  H  H50  1  0.12212562  0.71979596  0.61433367  1
  H  H51  1  0.62388351  0.05564378  0.61061499  1
  H  H52  1  0.61859377  0.39047838  0.59817470  1
  H  H53  1  0.62223236  0.72213063  0.60650493  1
  H  H54  1  0.36811945  0.28224030  0.12021415  1
  H  H55  1  0.36916594  0.61711964  0.12404057  1
  H  H56  1  0.37378069  0.94579874  0.11264131  1
  H  H57  1  0.86486976  0.28269730  0.12596816  1
  H  H58  1  0.87335056  0.61253599  0.11349301  1
  H  H59  1  0.87055656  0.94801701  0.11870226  1
  H  H60  1  0.38189177  0.05403707  0.89829007  1
  H  H61  1  0.36850333  0.38629481  0.87847993  1
  H  H62  1  0.38136814  0.72138067  0.89856135  1
  H  H63  1  0.87889194  0.05380004  0.89190175  1
  H  H64  1  0.87152729  0.38653257  0.88473200  1
  H  H65  1  0.88649183  0.72409987  0.90181711  1
  H  H66  1  0.11936777  0.27833167  0.39400151  1
  H  H67  1  0.12295935  0.61135476  0.39496679  1
  H  H68  1  0.11854644  0.94288421  0.39815216  1
  H  H69  1  0.61730175  0.27864472  0.40140452  1
  H  H70  1  0.62503582  0.61333429  0.38390420  1
  H  H71  1  0.62108918  0.94470684  0.39656012  1
  H  H72  1  0.37771113  0.22313033  0.60579148  1
  H  H73  1  0.37438964  0.55389650  0.60852511  1
  H  H74  1  0.37509767  0.88845603  0.60864400  1
  H  H75  1  0.88106501  0.21966084  0.61935632  1
  H  H76  1  0.87455356  0.55089662  0.61204982  1
  H  H77  1  0.88294289  0.88348865  0.62834081  1
  H  H78  1  0.11982180  0.11504324  0.12197563  1
  H  H79  1  0.13088255  0.44456212  0.10070844  1
  H  H80  1  0.11811964  0.78273019  0.11805909  1
  H  H81  1  0.62167636  0.11143114  0.11319888  1
  H  H82  1  0.63371961  0.44346636  0.10193421  1
  H  H83  1  0.61749741  0.78326596  0.12060782  1
  H  H84  1  0.13333958  0.22117007  0.89642753  1
  H  H85  1  0.13205551  0.55587862  0.90300119  1
  H  H86  1  0.12813290  0.88973325  0.89761623  1
  H  H87  1  0.63642958  0.22379554  0.90154508  1
  H  H88  1  0.63025835  0.55510064  0.89346957  1
  H  H89  1  0.63029210  0.89068461  0.90092844  1
  H  H90  1  0.36571719  0.10770349  0.40982260  1
  H  H91  1  0.37751967  0.44729965  0.38821616  1
  H  H92  1  0.37724844  0.77932433  0.38767244  1
  H  H93  1  0.87773946  0.11624572  0.37202328  1
  H  H94  1  0.87506771  0.44571737  0.39173261  1
  H  H95  1  0.87436245  0.78138007  0.38549869  1
  H  H96  1  0.36929310  0.28053740  0.38143096  1
  H  H97  1  0.37658291  0.60993925  0.39744866  1
  H  H98  1  0.37212131  0.94774736  0.38069608  1
  H  H99  1  0.87071399  0.28199396  0.38851995  1
  H  H100  1  0.87415617  0.61088525  0.38884095  1
  H  H101  1  0.87031095  0.94677757  0.38718834  1
  H  H102  1  0.12784409  0.05318403  0.89177599  1
  H  H103  1  0.11926526  0.38992226  0.89956660  1
  H  H104  1  0.13408161  0.71682386  0.87884842  1
  H  H105  1  0.63043767  0.05069098  0.88119615  1
  H  H106  1  0.61647065  0.39079123  0.90093363  1
  H  H107  1  0.62974329  0.72138914  0.88454494  1
  H  H108  1  0.11127928  0.27876783  0.09697427  1
  H  H109  1  0.12188519  0.61035113  0.10473194  1
  H  H110  1  0.11781568  0.94197962  0.09821254  1
  H  H111  1  0.61427381  0.27526860  0.09811930  1
  H  H112  1  0.61688238  0.61142739  0.10215186  1
  H  H113  1  0.62312936  0.94441130  0.10779170  1
  H  H114  1  0.37551597  0.05419746  0.61001787  1
  H  H115  1  0.37088947  0.38550781  0.61676555  1
  H  H116  1  0.37377861  0.71951409  0.61248248  1
  H  H117  1  0.87602014  0.05396028  0.60386586  1
  H  H118  1  0.87271198  0.38768366  0.60430076  1
  H  H119  1  0.87333844  0.72214011  0.60936848  1
  H  H120  1  0.12230127  0.11614519  0.37190205  1
  H  H121  1  0.12858820  0.44425235  0.39723064  1
  H  H122  1  0.12746859  0.77912695  0.39055333  1
  H  H123  1  0.63408295  0.10708917  0.40867115  1
  H  H124  1  0.62588440  0.44644162  0.39296995  1
  H  H125  1  0.62514088  0.77843579  0.39141405  1
  H  H126  1  0.38219196  0.22017707  0.88239842  1
  H  H127  1  0.37874531  0.55075565  0.87950328  1
  H  H128  1  0.37656778  0.88460892  0.88382930  1
  H  H129  1  0.88400008  0.21700460  0.87905851  1
  H  H130  1  0.87926617  0.55162960  0.87829823  1
  H  H131  1  0.87813490  0.88641948  0.88446676  1
  H  H132  1  0.36687440  0.10817256  0.10021102  1
  H  H133  1  0.37899051  0.44861522  0.11500253  1
  H  H134  1  0.36528277  0.77607221  0.09593185  1
  H  H135  1  0.87081295  0.11061017  0.10807299  1
  H  H136  1  0.88242348  0.44720140  0.12088246  1
  H  H137  1  0.86585556  0.77803551  0.10365377  1
  H  H138  1  0.12867578  0.21975580  0.61367747  1
  H  H139  1  0.12524871  0.55355346  0.60664611  1
  H  H140  1  0.12688995  0.88889794  0.61058956  1
  H  H141  1  0.63356543  0.22430024  0.59754437  1
  H  H142  1  0.62536072  0.55257499  0.60618985  1
  H  H143  1  0.63761241  0.89099163  0.59494273  1
  H  H144  1  0.92085826  0.58037282  0.49314544  1
  H  H145  1  0.67933241  0.57977046  0.49830374  1
  H  H146  1  0.80660368  0.75124209  -0.00502001  1
  H  H147  1  0.38925383  0.58743896  0.00986972  1
  H  H148  1  0.55988287  0.91212969  0.49786570  1
  H  H149  1  0.11079074  0.74609497  0.98808910  1
  H  H150  1  0.57093170  0.06682438  0.50337290  1
  H  H151  1  0.70383295  0.24955236  1.00805920  1
  H  H152  1  0.44387330  0.07912915  1.00682716  1
  H  H153  1  0.68784193  0.58286148  1.00258995  1
  H  H154  1  0.42917750  0.09690856  0.51231754  1
  H  H155  1  0.28631017  0.08399391  0.50792065  1
  H  H156  1  0.64284195  0.75445122  0.00773823  1
  H  H157  1  0.71309585  0.08363357  0.50740297  1
  H  H158  1  0.07946250  0.08035047  0.49979689  1
  H  H159  1  0.85206571  0.41936379  0.01327005  1
  H  H160  1  0.55058348  0.25368273  0.50436092  1
  H  H161  1  0.04123626  0.25276473  -0.00990304  1
  H  H162  1  0.16654613  0.25137325  0.50123973  1
  H  H163  1  0.92734930  0.75121665  0.50159836  1
  H  H164  1  0.71075593  0.91632345  0.48976380  1
  H  H165  1  0.41452763  0.91468343  0.00072920  1
  H  H166  1  0.55024077  0.41605604  1.00300223  1
  H  H167  1  0.84926917  0.58018533  0.99124384  1
  H  H168  1  0.85221490  0.24780515  0.51149295  1
  H  H169  1  0.86208250  0.24790406  0.98989950  1
  H  H170  1  0.17613607  0.91491208  0.50556634  1
  H  H171  1  0.08174652  0.08137888  0.99683982  1
  H  H172  1  0.95445005  0.74945738  1.00869187  1
  H  H173  1  0.29762018  0.07986987  -0.00487496  1
  H  H174  1  0.17560710  0.74865700  0.49964151  1
  H  H175  1  0.08582338  0.41591345  0.50084058  1
  H  H176  1  0.54282767  0.24854484  -0.00278055  1
  H  H177  1  0.68065134  0.75000615  0.49945391  1
  H  H178  1  0.84770191  0.91585915  0.99276806  1
  H  H179  1  0.59903449  0.07756745  0.98900278  1
  H  H180  1  0.19222924  0.25041032  1.00432207  1
  H  H181  1  0.39308176  0.41674743  0.99130049  1
  H  H182  1  0.90363224  0.91598194  0.49517615  1
  H  H183  1  0.33373491  0.74851056  0.49203140  1
  H  H184  1  0.70766718  0.26326096  0.50191467  1
  H  H185  1  0.92092520  0.08495582  0.50024507  1
  H  H186  1  0.81879696  0.08213893  0.00038103  1
  H  H187  1  0.34787099  0.24928803  0.98930065  1
  H  H188  1  0.55248149  0.58733246  -0.00633147  1
  H  H189  1  0.40464713  0.91884273  0.49301202  1
  H  H190  1  0.69687757  0.41871333  -0.00586909  1
  H  H191  1  0.33986431  0.41714977  0.49472668  1
  Pb  Pb192  1  0.25355540  0.04605744  0.75093318  1
  Pb  Pb193  1  0.25192149  0.38012775  0.74809450  1
  Pb  Pb194  1  0.25429958  0.71213027  0.74605708  1
  Pb  Pb195  1  0.75400791  0.04642703  0.74619416  1
  Pb  Pb196  1  0.75577617  0.38135498  0.75159031  1
  Pb  Pb197  1  0.75266621  0.71319344  0.75053722  1
  Pb  Pb198  1  0.24661862  0.28826951  0.24616340  1
  Pb  Pb199  1  0.24883055  0.62062301  0.25169343  1
  Pb  Pb200  1  0.24379128  0.95159665  0.25085917  1
  Pb  Pb201  1  0.74396789  0.28580351  0.25513664  1
  Pb  Pb202  1  0.74916853  0.62045740  0.24790697  1
  Pb  Pb203  1  0.75003169  0.95302926  0.24975488  1
  Pb  Pb204  1  0.00650069  0.21338312  0.75123449  1
  Pb  Pb205  1  0.00614142  0.54756581  0.74756480  1
  Pb  Pb206  1  0.00412175  0.87948979  0.74957389  1
  Pb  Pb207  1  0.50743729  0.21649950  0.74872014  1
  Pb  Pb208  1  0.50267441  0.54522207  0.74901799  1
  Pb  Pb209  1  0.50297773  0.87913692  0.74538813  1
  Pb  Pb210  1  -0.00153550  0.12078520  0.24837881  1
  Pb  Pb211  1  -0.00036257  0.45381460  0.25178790  1
  Pb  Pb212  1  -0.00072546  0.78529742  0.24889425  1
  Pb  Pb213  1  0.49380514  0.11640540  0.25428823  1
  Pb  Pb214  1  0.49910950  0.45482098  0.24387093  1
  Pb  Pb215  1  0.49799368  0.78677405  0.24916532  1
  C  C216  1  -0.00008121  0.04798396  0.62799651  1
  C  C217  1  -0.00328326  0.38006767  0.63055413  1
  C  C218  1  -0.00339068  0.71264587  0.63510788  1
  C  C219  1  0.49972021  0.04707008  0.63302951  1
  C  C220  1  0.49819648  0.38079300  0.63074956  1
  C  C221  1  0.49928198  0.71218867  0.63416424  1
  C  C222  1  -0.00659723  0.28738222  0.13202836  1
  C  C223  1  -0.00067711  0.61948570  0.13433646  1
  C  C224  1  -0.00212190  0.95274733  0.13141107  1
  C  C225  1  0.49546664  0.28616362  0.13294123  1
  C  C226  1  0.49665752  0.62076762  0.13407387  1
  C  C227  1  0.49852230  0.95254836  0.13150088  1
  C  C228  1  0.00348217  0.04586985  0.86930702  1
  C  C229  1  -0.00171335  0.38089658  0.86704116  1
  C  C230  1  0.00615608  0.71310668  0.86819869  1
  C  C231  1  0.50327340  0.04563864  0.86728703  1
  C  C232  1  0.49653919  0.38025842  0.86777309  1
  C  C233  1  0.50309037  0.71353503  0.86818287  1
  C  C234  1  -0.00385505  0.28767934  0.36770284  1
  C  C235  1  -0.00063090  0.61908165  0.36789914  1
  C  C236  1  -0.00384822  0.95246609  0.37020432  1
  C  C237  1  0.49688394  0.28801065  0.36884750  1
  C  C238  1  0.49840763  0.61989679  0.36768400  1
  C  C239  1  0.49943119  0.95221757  0.36605436  1
  C  C240  1  0.25377277  0.21434464  0.63135329  1
  C  C241  1  0.24955849  0.54645805  0.63295741  1
  C  C242  1  0.25124215  0.88008287  0.63366300  1
  C  C243  1  0.75315644  0.21698804  0.63185451  1
  C  C244  1  0.74875313  0.54496780  0.63290294  1
  C  C245  1  0.75405452  0.88018686  0.63223790  1
  C  C246  1  0.24754810  0.11971859  0.13376959  1
  C  C247  1  0.25231926  0.45462149  0.13125679  1
  C  C248  1  0.24589995  0.78716251  0.12991911  1
  C  C249  1  0.74721545  0.11946114  0.13381358  1
  C  C250  1  0.75486921  0.45278761  0.13388432  1
  C  C251  1  0.74455931  0.78714311  0.13316148  1
  C  C252  1  0.25558681  0.21408341  0.86655747  1
  C  C253  1  0.25123687  0.54701771  0.87085173  1
  C  C254  1  0.24973879  0.87933201  0.86763606  1
  C  C255  1  0.75665058  0.21395235  0.86761126  1
  C  C256  1  0.75229495  0.54681900  0.86497914  1
  C  C257  1  0.75137380  0.88103256  0.87056196  1
  C  C258  1  0.25072403  0.12041867  0.36924113  1
  C  C259  1  0.25158637  0.45371324  0.37068528  1
  C  C260  1  0.25191608  0.78578426  0.36647179  1
  C  C261  1  0.74932198  0.12006391  0.36880220  1
  C  C262  1  0.75020738  0.45262228  0.37213466  1
  C  C263  1  0.74842222  0.78667961  0.36477609  1
  C  C264  1  0.77231903  0.76159998  0.03649796  1
  C  C265  1  0.79128628  0.42621715  0.46360017  1
  C  C266  1  0.96433005  0.74004872  0.54148678  1
  C  C267  1  0.72847875  0.42772846  0.03733380  1
  C  C268  1  0.80436220  0.57068530  0.95591519  1
  C  C269  1  0.44783527  0.92868556  0.45660847  1
  C  C270  1  0.71100562  0.42645145  0.46405249  1
  C  C271  1  0.93035837  0.26366105  0.04474734  1
  C  C272  1  0.74008815  0.90554750  0.53349486  1
  C  C273  1  0.02920120  0.25925674  0.46172988  1
  C  C274  1  0.47576137  0.07084342  0.96363020  1
  C  C275  1  0.52072492  0.59641451  0.03666203  1
  C  C276  1  0.22907038  0.57252678  0.96657624  1
  C  C277  1  0.47080181  0.59010344  0.46164078  1
  C  C278  1  0.82001958  0.90256766  0.54655535  1
  C  C279  1  0.71691698  0.76082294  0.45902728  1
  C  C280  1  0.19338760  0.76033425  0.04150531  1
  C  C281  1  0.45589620  0.92575660  0.03805057  1
  C  C282  1  0.69049185  0.76342203  0.04258512  1
  C  C283  1  0.29994147  0.42845727  0.04065823  1
  C  C284  1  0.78038232  0.09272927  0.04001810  1
  C  C285  1  0.96242359  0.07366866  0.96308893  1
  C  C286  1  0.01100114  0.26261382  0.03366251  1
  C  C287  1  0.81682129  0.09501933  0.45397403  1
  C  C288  1  0.22271658  0.90909720  0.96171703  1
  C  C289  1  0.22548668  0.23977455  0.96229941  1
  C  C290  1  0.98390832  0.73991583  0.96481319  1
  C  C291  1  0.71653373  0.57009404  0.53855822  1
  C  C292  1  0.43923860  0.59770934  0.04463677  1
  C  C293  1  0.72261096  0.91004775  0.96661211  1
  C  C294  1  0.73401242  0.23941506  0.96450895  1
  C  C295  1  0.21700356  0.42368688  0.46521254  1
  C  C296  1  0.44766393  0.40638249  0.54092628  1
  C  C297  1  0.44010329  0.40674964  0.95600234  1
  C  C298  1  0.04236455  0.40571615  0.53759364  1
  C  C299  1  0.94583417  0.92729116  0.04193805  1
  C  C300  1  0.29100385  0.24119620  0.53699902  1
  C  C301  1  0.18287740  0.09400688  0.45381518  1
  C  C302  1  0.02877107  0.92294365  0.46545855  1
  C  C303  1  0.54975362  0.74103349  0.95857438  1
  C  C304  1  0.21359578  0.75931715  0.46023394  1
  C  C305  1  0.20920291  0.24062350  0.53824928  1
  C  C306  1  0.96069838  0.40613618  0.53589697  1
  C  C307  1  0.26726792  0.09204515  0.03799352  1
  C  C308  1  0.30905899  0.57103677  0.95905802  1
  C  C309  1  0.53753010  0.92587991  0.03785292  1
  C  C310  1  0.44147070  0.25929515  0.45769620  1
  C  C311  1  0.72252432  0.57200261  0.96141690  1
  N  N312  1  0.28864900  0.57289288  0.53945913  1
  N  N313  1  0.95000740  0.92536745  0.46050397  1
  N  N314  1  0.80125907  0.90786230  0.95976895  1
  N  N315  1  0.04372069  0.73925444  0.54271432  1
  N  N316  1  0.27029393  0.75750376  0.03314826  1
  N  N317  1  0.55485272  0.07086000  0.95610138  1
  N  N318  1  0.51509368  0.26082929  0.03795818  1
  N  N319  1  0.03901110  0.08003798  0.53783904  1
  N  N320  1  0.70092884  0.09313518  0.04083922  1
  N  N321  1  0.18856261  0.09489834  0.04497528  1
  N  N322  1  0.94926961  0.40440325  0.95867371  1
  N  N323  1  0.53278469  0.74008110  0.53974025  1
  N  N324  1  0.53985261  0.07758205  0.54282809  1
  N  N325  1  0.81291419  0.23763404  0.95581948  1
  N  N326  1  0.96110213  0.06810184  0.53416181  1
  N  N327  1  0.29606559  0.42514230  0.46081751  1
  N  N328  1  0.95130736  0.26047587  0.46065777  1
  N  N329  1  0.06258526  0.73833230  0.95541549  1
  N  N330  1  0.54841130  0.59132582  0.45875223  1
  N  N331  1  0.47262347  0.74129785  0.96452759  1
  N  N332  1  0.73898794  0.09197042  0.46497141  1
  N  N333  1  0.21238615  0.57300660  0.53898378  1
  N  N334  1  0.72971598  0.23334236  0.53397758  1
  N  N335  1  0.52480884  0.40798213  0.53358212  1
  N  N336  1  0.80746121  0.42844263  0.04525042  1
  N  N337  1  0.80864925  0.23400207  0.54298018  1
  N  N338  1  0.29328592  0.75984721  0.45811833  1
  N  N339  1  0.52733967  0.92901939  0.46149148  1
  N  N340  1  0.22279373  0.42641091  0.03480722  1
  N  N341  1  0.02540177  0.40524658  0.96370521  1
  N  N342  1  0.52013461  0.25992258  0.46348440  1
  N  N343  1  0.04162129  0.07257992  0.96169459  1
  N  N344  1  0.26059903  0.09208126  0.46538785  1
  N  N345  1  0.95940955  0.59296295  0.45840698  1
  N  N346  1  0.45600246  0.73899397  0.54173640  1
  N  N347  1  0.03748269  0.59252692  0.46184747  1
  N  N348  1  0.51940138  0.40806890  0.96256874  1
  N  N349  1  0.95483555  0.59476393  0.04166449  1
  N  N350  1  0.46007640  0.06760878  0.53978032  1
  N  N351  1  0.02298807  0.92468222  0.03420616  1
  N  N352  1  0.79636126  0.76168520  0.45724707  1
  N  N353  1  0.29207342  0.90647339  0.54018072  1
  N  N354  1  0.43741615  0.26305940  0.04435195  1
  N  N355  1  0.79598285  0.56991277  0.54008677  1
  N  N356  1  0.03090601  0.59368628  0.03891628  1
  N  N357  1  0.21378057  0.90732385  0.54249028  1
  N  N358  1  0.30473597  0.23886221  0.95635997  1
  N  N359  1  0.30006426  0.90736100  0.95859763  1
  N  N360  1  0.06369110  0.05823885  0.59278902  1
  N  N361  1  0.06333026  0.38925572  0.59758897  1
  N  N362  1  0.06195102  0.72207264  0.60133255  1
  N  N363  1  0.56379712  0.05326726  0.59715239  1
  N  N364  1  0.55654636  0.39179685  0.59084934  1
  N  N365  1  0.56069370  0.72373299  0.59690455  1
  N  N366  1  0.42588851  0.27851864  0.10362541  1
  N  N367  1  0.42628419  0.61281968  0.10527787  1
  N  N368  1  0.43283965  0.94264404  0.09745508  1
  N  N369  1  0.92050294  0.27849286  0.10494423  1
  N  N370  1  0.93366700  0.61087322  0.10084994  1
  N  N371  1  0.92826815  0.94397843  0.10126331  1
  N  N372  1  0.44330683  0.05601742  0.90821284  1
  N  N373  1  0.42602999  0.39010025  0.89682733  1
  N  N374  1  0.44324590  0.72354596  0.90697346  1
  N  N375  1  0.93870131  0.05734442  0.90577399  1
  N  N376  1  0.93106881  0.38920187  0.89870694  1
  N  N377  1  0.94830609  0.72480364  0.91061228  1
  N  N378  1  0.05858119  0.27543011  0.40558390  1
  N  N379  1  0.06186827  0.60898819  0.40520135  1
  N  N380  1  0.05761815  0.93993916  0.40953494  1
  N  N381  1  0.55535607  0.27918223  0.40933485  1
  N  N382  1  0.56556201  0.61032723  0.39873706  1
  N  N383  1  0.55911862  0.94125847  0.40483019  1
  N  N384  1  0.31746779  0.22541312  0.59346740  1
  N  N385  1  0.31329287  0.55672715  0.59767259  1
  N  N386  1  0.31462170  0.89077198  0.59765045  1
  N  N387  1  0.82258136  0.22334318  0.60259765  1
  N  N388  1  0.81411991  0.55397979  0.59925513  1
  N  N389  1  0.82765504  0.88750440  0.60652690  1
  N  N390  1  0.17816797  0.11197814  0.10499965  1
  N  N391  1  0.19286547  0.44342542  0.09246560  1
  N  N392  1  0.17567085  0.77804664  0.10051956  1
  N  N393  1  0.68188615  0.10995423  0.10019803  1
  N  N394  1  0.69545649  0.44259231  0.09248867  1
  N  N395  1  0.67517811  0.77908887  0.10298125  1
  N  N396  1  0.19472426  0.22425804  0.90667336  1
  N  N397  1  0.19326050  0.55801088  0.91318415  1
  N  N398  1  0.18926331  0.89237676  0.90717152  1
  N  N399  1  0.69856224  0.22474569  0.90992361  1
  N  N400  1  0.69153509  0.55713693  0.90439227  1
  N  N401  1  0.69140204  0.89343129  0.91136725  1
  N  N402  1  0.30340780  0.10994129  0.41372187  1
  N  N403  1  0.31778603  0.44395628  0.40264941  1
  N  N404  1  0.31672686  0.77549597  0.40017727  1
  N  N405  1  0.82290962  0.11139145  0.39404166  1
  N  N406  1  0.81610235  0.44196739  0.40736442  1
  N  N407  1  0.81401994  0.77775955  0.39833041  1
  N  N408  1  0.42694694  0.27605348  0.39894483  1
  N  N409  1  0.43764381  0.60725332  0.40713635  1
  N  N410  1  0.43022792  0.94414265  0.39773037  1
  N  N411  1  0.93077274  0.27847083  0.40094238  1
  N  N412  1  0.93450557  0.60850623  0.40150408  1
  N  N413  1  0.92946420  0.94348951  0.40192464  1
  N  N414  1  0.06756719  0.05489340  0.90407862  1
  N  N415  1  0.05720442  0.39086671  0.90712685  1
  N  N416  1  0.07585988  0.72171621  0.89604671  1
  N  N417  1  0.57151628  0.05515823  0.89692198  1
  N  N418  1  0.55427176  0.39003828  0.90876895  1
  N  N419  1  0.57111377  0.72441955  0.90007294  1
  N  N420  1  0.04937804  0.27747269  0.08911694  1
  N  N421  1  0.06002118  0.60881536  0.09603231  1
  N  N422  1  0.05555256  0.94084576  0.09123878  1
  N  N423  1  0.55187451  0.27439539  0.09160431  1
  N  N424  1  0.55540335  0.61040326  0.09285208  1
  N  N425  1  0.56296457  0.94185464  0.09434819  1
  N  N426  1  0.43595007  0.06087521  0.59928599  1
  N  N427  1  0.42902971  0.38979255  0.59999276  1
  N  N428  1  0.43422072  0.72149244  0.60018100  1
  N  N429  1  0.93637998  0.05723599  0.59234945  1
  N  N430  1  0.93327327  0.39071857  0.59204701  1
  N  N431  1  0.93396934  0.72426373  0.59789743  1
  N  N432  1  0.17702350  0.11114139  0.39409669  1
  N  N433  1  0.18929961  0.44114972  0.40925197  1
  N  N434  1  0.18765758  0.77577126  0.40337002  1
  N  N435  1  0.69634129  0.10942705  0.41306535  1
  N  N436  1  0.68508789  0.44231890  0.40828445  1
  N  N437  1  0.68608727  0.77597240  0.40261048  1
  N  N438  1  0.32307202  0.22351877  0.89727651  1
  N  N439  1  0.32247792  0.55532075  0.89955352  1
  N  N440  1  0.31716190  0.88833966  0.89861769  1
  N  N441  1  0.82610242  0.22283103  0.89586175  1
  N  N442  1  0.82133068  0.55520131  0.89579682  1
  N  N443  1  0.81941674  0.89011739  0.90050391  1
  N  N444  1  0.30493907  0.10734742  0.09201671  1
  N  N445  1  0.32065112  0.44513403  0.09931321  1
  N  N446  1  0.30298093  0.77484217  0.08948732  1
  N  N447  1  0.80994401  0.10859033  0.09654489  1
  N  N448  1  0.82347796  0.44343939  0.10468814  1
  N  N449  1  0.80463235  0.77631777  0.09328797  1
  N  N450  1  0.18745230  0.22381232  0.59805865  1
  N  N451  1  0.18654186  0.55650915  0.59681027  1
  N  N452  1  0.18772577  0.89014576  0.59852497  1
  N  N453  1  0.69582251  0.22779862  0.59084368  1
  N  N454  1  0.68623158  0.55535974  0.59517711  1
  N  N455  1  0.69972998  0.89139095  0.58835205  1
  Cl  Cl456  1  0.25224372  0.05774425  0.60595880  1
  Cl  Cl457  1  0.24857279  0.38705845  0.61398317  1
  Cl  Cl458  1  0.25012596  0.72543894  0.60967528  1
  Cl  Cl459  1  0.74728063  0.06087568  0.60505551  1
  Cl  Cl460  1  0.74537003  0.38221982  0.61962878  1
  Cl  Cl461  1  0.74566213  0.72188763  0.61614193  1
  Cl  Cl462  1  0.23905015  0.27729803  0.11002622  1
  Cl  Cl463  1  0.24277312  0.61464874  0.11959615  1
  Cl  Cl464  1  0.24318751  0.94726193  0.11927121  1
  Cl  Cl465  1  0.73356755  0.27857373  0.11513984  1
  Cl  Cl466  1  0.74478890  0.61010494  0.11443631  1
  Cl  Cl467  1  0.74713793  0.94543368  0.11729406  1
  Cl  Cl468  1  0.25637429  0.05462625  0.88553662  1
  Cl  Cl469  1  0.24144556  0.38367320  0.87942876  1
  Cl  Cl470  1  0.25809496  0.71721035  0.87685249  1
  Cl  Cl471  1  0.75499922  0.05051376  0.87974240  1
  Cl  Cl472  1  0.74168784  0.38820325  0.89153637  1
  Cl  Cl473  1  0.76074932  0.72450817  0.88419066  1
  Cl  Cl474  1  0.24271769  0.28255114  0.37873346  1
  Cl  Cl475  1  0.24860719  0.61451017  0.38324019  1
  Cl  Cl476  1  0.24203568  0.94799131  0.38739066  1
  Cl  Cl477  1  0.74108088  0.27757702  0.39611487  1
  Cl  Cl478  1  0.75082375  0.61191102  0.38148373  1
  Cl  Cl479  1  0.74328845  0.94925062  0.38582515  1
  Cl  Cl480  1  0.00214436  0.21625625  0.62004012  1
  Cl  Cl481  1  -0.00061460  0.55226446  0.61153344  1
  Cl  Cl482  1  0.00851056  0.89186812  0.61417540  1
  Cl  Cl483  1  0.51127205  0.22292580  0.60616275  1
  Cl  Cl484  1  0.49849794  0.55074590  0.61738958  1
  Cl  Cl485  1  0.50750258  0.89371722  0.60347829  1
  Cl  Cl486  1  -0.00509111  0.11068998  0.11604136  1
  Cl  Cl487  1  0.00645146  0.44584214  0.11943739  1
  Cl  Cl488  1  -0.00917869  0.77877397  0.11321135  1
  Cl  Cl489  1  0.49293981  0.11030144  0.11356521  1
  Cl  Cl490  1  0.51043221  0.43921569  0.10535315  1
  Cl  Cl491  1  0.48945986  0.78159560  0.12101971  1
  Cl  Cl492  1  0.01089694  0.21529498  0.88665614  1
  Cl  Cl493  1  0.00744122  0.55284458  0.87561839  1
  Cl  Cl494  1  0.00244661  0.88447172  0.88018489  1
  Cl  Cl495  1  0.51254146  0.22320763  0.89359826  1
  Cl  Cl496  1  0.50918939  0.55170394  0.88279774  1
  Cl  Cl497  1  0.50490349  0.88698761  0.87778646  1
  Cl  Cl498  1  0.00007610  0.11030844  0.38472146  1
  Cl  Cl499  1  0.00430099  0.44598507  0.38487523  1
  Cl  Cl500  1  -0.00020861  0.78350575  0.38141302  1
  Cl  Cl501  1  0.50005183  0.10716923  0.40385030  1
  Cl  Cl502  1  0.49950147  0.44912172  0.37442452  1
  Cl  Cl503  1  0.50061826  0.78372231  0.38261896  1
  Cl  Cl504  1  0.36235518  0.14439437  0.74908089  1
  Cl  Cl505  1  0.36273856  0.47646684  0.75465212  1
  Cl  Cl506  1  0.36169093  0.81507988  0.74728780  1
  Cl  Cl507  1  0.86066381  0.14453789  0.74953466  1
  Cl  Cl508  1  0.85954292  0.47626922  0.75052378  1
  Cl  Cl509  1  0.86587241  0.81328916  0.74744049  1
  Cl  Cl510  1  0.13633080  0.18597157  0.25098911  1
  Cl  Cl511  1  0.13825471  0.52020299  0.25216333  1
  Cl  Cl512  1  0.13844531  0.85612251  0.25057679  1
  Cl  Cl513  1  0.64144860  0.18806295  0.25172142  1
  Cl  Cl514  1  0.63813560  0.51949824  0.24888881  1
  Cl  Cl515  1  0.63379482  0.85648481  0.24732798  1
  Cl  Cl516  1  0.14006184  0.14564251  0.74794403  1
  Cl  Cl517  1  0.13883598  0.47781701  0.74796921  1
  Cl  Cl518  1  0.13863713  0.81067926  0.74775540  1
  Cl  Cl519  1  0.64026734  0.14636397  0.74858183  1
  Cl  Cl520  1  0.63818249  0.47824631  0.75307565  1
  Cl  Cl521  1  0.64207858  0.81461648  0.74974040  1
  Cl  Cl522  1  0.35949942  0.18756582  0.25010931  1
  Cl  Cl523  1  0.36188740  0.52171018  0.24721170  1
  Cl  Cl524  1  0.36154610  0.85669701  0.25405939  1
  Cl  Cl525  1  0.86185378  0.18938541  0.25397144  1
  Cl  Cl526  1  0.86198867  0.52139666  0.24906111  1
  Cl  Cl527  1  0.85648209  0.85708312  0.25199342  1
  Cl  Cl528  1  0.10918557  0.31085166  0.74762816  1
  Cl  Cl529  1  0.11074255  0.64624413  0.74801894  1
  Cl  Cl530  1  0.11338809  0.98076363  0.74700757  1
  Cl  Cl531  1  0.60749592  0.31041681  0.75215762  1
  Cl  Cl532  1  0.61528073  0.64512384  0.75277409  1
  Cl  Cl533  1  0.61261190  0.98123749  0.74918917  1
  Cl  Cl534  1  0.39057610  0.02384262  0.25453925  1
  Cl  Cl535  1  0.38700684  0.35324093  0.24756321  1
  Cl  Cl536  1  0.38579549  0.68844355  0.25113517  1
  Cl  Cl537  1  0.88466836  0.02182299  0.25308794  1
  Cl  Cl538  1  0.88375933  0.35507417  0.24564587  1
  Cl  Cl539  1  0.88547666  0.68961815  0.25108490  1
  Cl  Cl540  1  0.38723195  0.30961382  0.75198110  1
  Cl  Cl541  1  0.39021983  0.64497134  0.74907179  1
  Cl  Cl542  1  0.39065619  0.98013691  0.74589821  1
  Cl  Cl543  1  0.88566288  0.30960642  0.75250949  1
  Cl  Cl544  1  0.88866974  0.64464255  0.75098963  1
  Cl  Cl545  1  0.89037467  0.97895019  0.74620065  1
  Cl  Cl546  1  0.10899410  0.02260599  0.25189852  1
  Cl  Cl547  1  0.10870635  0.35243707  0.24970356  1
  Cl  Cl548  1  0.10826158  0.68979352  0.25300195  1
  Cl  Cl549  1  0.60982282  0.02350018  0.24868149  1
  Cl  Cl550  1  0.60946320  0.35353899  0.24829079  1
  Cl  Cl551  1  0.61148547  0.68899108  0.25086315  1
