# generated using pymatgen
data_H8PbC4(N3Cl2)2
_symmetry_space_group_name_H-M   'P 1'
_cell_length_a   16.62855121
_cell_length_b   22.51003074
_cell_length_c   21.59212038
_cell_angle_alpha   89.99874003
_cell_angle_beta   89.97751020
_cell_angle_gamma   90.00006069
_symmetry_Int_Tables_number   1
_chemical_formula_structural   H8PbC4(N3Cl2)2
_chemical_formula_sum   'H192 Pb24 C96 N144 Cl96'
_cell_volume   8082.12865857
_cell_formula_units_Z   24
loop_
 _symmetry_equiv_pos_site_id
 _symmetry_equiv_pos_as_xyz
  1  'x, y, z'
loop_
 _atom_site_type_symbol
 _atom_site_label
 _atom_site_symmetry_multiplicity
 _atom_site_fract_x
 _atom_site_fract_y
 _atom_site_fract_z
 _atom_site_occupancy
  H  H0  1  -0.00455316  0.03239494  0.68187192  1
  H  H1  1  0.00732823  0.36515342  0.67726092  1
  H  H2  1  0.00555568  0.69441212  0.67829476  1
  H  H3  1  0.49206425  0.03154541  0.68219332  1
  H  H4  1  0.49135402  0.36233732  0.67726468  1
  H  H5  1  0.49395860  0.69521902  0.68005072  1
  H  H6  1  0.01087533  0.30244681  0.17822477  1
  H  H7  1  -0.00279240  0.63211859  0.18545041  1
  H  H8  1  -0.00966077  0.96903481  0.18089214  1
  H  H9  1  0.49119541  0.30463672  0.18071592  1
  H  H10  1  0.51247517  0.63682617  0.18170100  1
  H  H11  1  0.49792393  0.96980647  0.17677102  1
  H  H12  1  0.00407260  0.03004464  0.82408239  1
  H  H13  1  -0.00205948  0.36157806  0.82214952  1
  H  H14  1  0.00705742  0.69768324  0.81954704  1
  H  H15  1  0.50196416  0.02859547  0.81909843  1
  H  H16  1  0.50595525  0.36340287  0.82230977  1
  H  H17  1  0.50301070  0.69712975  0.82214550  1
  H  H18  1  -0.00982379  0.30615906  0.32195014  1
  H  H19  1  0.00060809  0.63824367  0.32343111  1
  H  H20  1  0.00244774  0.96649072  0.31937417  1
  H  H21  1  0.51491651  0.30038136  0.32368401  1
  H  H22  1  0.50110127  0.63669333  0.32023035  1
  H  H23  1  0.49754108  0.96424632  0.31394880  1
  H  H24  1  0.25093306  0.19833494  0.68074590  1
  H  H25  1  0.25003366  0.52894921  0.67713192  1
  H  H26  1  0.24589145  0.86388661  0.68347557  1
  H  H27  1  0.75471526  0.19816005  0.67930938  1
  H  H28  1  0.74008595  0.53060687  0.67482859  1
  H  H29  1  0.75007543  0.85622138  0.67793375  1
  H  H30  1  0.25538509  0.13675044  0.17946581  1
  H  H31  1  0.25904123  0.46927622  0.18005997  1
  H  H32  1  0.25671297  0.80563664  0.17936302  1
  H  H33  1  0.73956768  0.13840718  0.17548532  1
  H  H34  1  0.75420175  0.46879779  0.17728858  1
  H  H35  1  0.74942351  0.80359253  0.17889395  1
  H  H36  1  0.24899453  0.19554790  0.81930550  1
  H  H37  1  0.24159526  0.53136010  0.81744926  1
  H  H38  1  0.25543683  0.86223522  0.82273002  1
  H  H39  1  0.75272283  0.19992238  0.82229635  1
  H  H40  1  0.75358385  0.52093624  0.82466935  1
  H  H41  1  0.75857713  0.86166243  0.82264916  1
  H  H42  1  0.25761409  0.13896047  0.32138760  1
  H  H43  1  0.25066211  0.46788781  0.32073079  1
  H  H44  1  0.25602541  0.79896093  0.31987558  1
  H  H45  1  0.75270446  0.13715710  0.31959834  1
  H  H46  1  0.74921081  0.47024678  0.32069298  1
  H  H47  1  0.75551256  0.80259662  0.32015889  1
  H  H48  1  0.13018942  0.05328082  0.62408467  1
  H  H49  1  0.12954445  0.39081235  0.60555615  1
  H  H50  1  0.12738083  0.72105768  0.60423087  1
  H  H51  1  0.63004828  0.05219965  0.62370153  1
  H  H52  1  0.63024956  0.38244665  0.62346470  1
  H  H53  1  0.63020419  0.71561036  0.62269295  1
  H  H54  1  0.38424891  0.27822205  0.09722542  1
  H  H55  1  0.37325693  0.61686982  0.12554216  1
  H  H56  1  0.37901228  0.94478039  0.10364734  1
  H  H57  1  0.88057531  0.28302938  0.11595222  1
  H  H58  1  0.87318152  0.61188555  0.11510815  1
  H  H59  1  0.88650415  0.94287073  0.09710009  1
  H  H60  1  0.36819286  0.04878706  0.88285057  1
  H  H61  1  0.37717688  0.38667166  0.88904644  1
  H  H62  1  0.37507251  0.72217721  0.88902905  1
  H  H63  1  0.87034438  0.05388381  0.88456796  1
  H  H64  1  0.87902993  0.38683433  0.89774341  1
  H  H65  1  0.87822474  0.72010507  0.88641412  1
  H  H66  1  0.13095679  0.28552406  0.37204828  1
  H  H67  1  0.11883462  0.60976827  0.39843932  1
  H  H68  1  0.12220421  0.94475683  0.39409503  1
  H  H69  1  0.62404159  0.27613972  0.40458224  1
  H  H70  1  0.62278082  0.61161234  0.39363413  1
  H  H71  1  0.62557415  0.94469959  0.38076067  1
  H  H72  1  0.36931230  0.22182962  0.60726374  1
  H  H73  1  0.37399066  0.55379721  0.60721703  1
  H  H74  1  0.37403779  0.88679923  0.61475642  1
  H  H75  1  0.86489122  0.22796768  0.59724816  1
  H  H76  1  0.87848457  0.54957693  0.61925475  1
  H  H77  1  0.87409542  0.88667510  0.61031293  1
  H  H78  1  0.13032932  0.11220950  0.10795938  1
  H  H79  1  0.12438161  0.44674260  0.11723465  1
  H  H80  1  0.12563374  0.78265136  0.11287514  1
  H  H81  1  0.63664854  0.10706105  0.09114615  1
  H  H82  1  0.62421424  0.44627767  0.11136280  1
  H  H83  1  0.62624137  0.77934348  0.10719431  1
  H  H84  1  0.11563133  0.21782303  0.88311457  1
  H  H85  1  0.13035629  0.55355015  0.89802370  1
  H  H86  1  0.12291592  0.88470971  0.88076867  1
  H  H87  1  0.61922158  0.21925084  0.88121602  1
  H  H88  1  0.62781510  0.55457952  0.88887244  1
  H  H89  1  0.61985168  0.88211934  0.87747129  1
  H  H90  1  0.36685597  0.11183149  0.40326873  1
  H  H91  1  0.36558583  0.44261364  0.39651173  1
  H  H92  1  0.36500575  0.77267648  0.40390249  1
  H  H93  1  0.86701187  0.10895712  0.39773007  1
  H  H94  1  0.86965478  0.44593173  0.39549766  1
  H  H95  1  0.87169308  0.77613611  0.39589945  1
  H  H96  1  0.37829467  0.28303543  0.37883815  1
  H  H97  1  0.37380432  0.61127914  0.38781718  1
  H  H98  1  0.37655984  0.94743680  0.38749940  1
  H  H99  1  0.88651535  0.27577986  0.40782859  1
  H  H100  1  0.87062481  0.61463515  0.38686923  1
  H  H101  1  0.87435986  0.94414122  0.38625707  1
  H  H102  1  0.11764319  0.05574653  0.90183612  1
  H  H103  1  0.12732633  0.38576164  0.88858504  1
  H  H104  1  0.12634185  0.72377827  0.89485886  1
  H  H105  1  0.61666942  0.05592439  0.89688290  1
  H  H106  1  0.62598568  0.38991239  0.89553201  1
  H  H107  1  0.62384030  0.72321489  0.89479225  1
  H  H108  1  0.12920606  0.27699758  0.10285641  1
  H  H109  1  0.12267173  0.61395387  0.11614530  1
  H  H110  1  0.13240994  0.95253573  0.12892303  1
  H  H111  1  0.63066939  0.28486760  0.12495097  1
  H  H112  1  0.61943282  0.60880266  0.09853740  1
  H  H113  1  0.62732333  0.94776793  0.11414850  1
  H  H114  1  0.38303724  0.05906000  0.60073345  1
  H  H115  1  0.38453624  0.39076547  0.59393520  1
  H  H116  1  0.38281530  0.72293529  0.59905219  1
  H  H117  1  0.88251322  0.05774820  0.60410650  1
  H  H118  1  0.88049833  0.38823722  0.60849782  1
  H  H119  1  0.87905266  0.71978142  0.60889922  1
  H  H120  1  0.12003950  0.11570486  0.37708007  1
  H  H121  1  0.11693356  0.44986244  0.38279375  1
  H  H122  1  0.11874505  0.78311588  0.37912055  1
  H  H123  1  0.61896953  0.11718174  0.37996277  1
  H  H124  1  0.62082800  0.44484610  0.38676028  1
  H  H125  1  0.62367114  0.77904284  0.38402685  1
  H  H126  1  0.36418707  0.22217379  0.89656457  1
  H  H127  1  0.37744526  0.55001430  0.87423572  1
  H  H128  1  0.37014177  0.88698475  0.90000390  1
  H  H129  1  0.86679575  0.22224396  0.90010856  1
  H  H130  1  0.87635300  0.55195999  0.89356438  1
  H  H131  1  0.86629192  0.89246023  0.90404167  1
  H  H132  1  0.37896179  0.11001690  0.10698818  1
  H  H133  1  0.37142073  0.44294693  0.09918751  1
  H  H134  1  0.37362899  0.78066655  0.10114055  1
  H  H135  1  0.88109086  0.11931135  0.12448748  1
  H  H136  1  0.87294094  0.44154874  0.10336181  1
  H  H137  1  0.87496979  0.77902159  0.10807185  1
  H  H138  1  0.12030684  0.22048235  0.61631693  1
  H  H139  1  0.12464463  0.55318065  0.60793810  1
  H  H140  1  0.12491043  0.88929428  0.61189598  1
  H  H141  1  0.61806668  0.21891695  0.61972314  1
  H  H142  1  0.63284537  0.55867210  0.59318240  1
  H  H143  1  0.62616475  0.88695068  0.61053520  1
  H  H144  1  0.17602898  0.91429938  0.50067088  1
  H  H145  1  0.32591267  0.89251945  0.50531361  1
  H  H146  1  0.19508386  0.57542239  1.00674646  1
  H  H147  1  0.79300439  0.91723078  1.00533924  1
  H  H148  1  0.82390997  0.75019999  0.00399278  1
  H  H149  1  0.91881414  0.59781972  0.00067704  1
  H  H150  1  0.54607189  0.58303153  -0.00554197  1
  H  H151  1  0.17272052  0.58204443  0.50254322  1
  H  H152  1  0.58609261  0.93678049  0.49699003  1
  H  H153  1  0.64682014  0.24973390  -0.00530999  1
  H  H154  1  0.81016196  0.55811320  0.99956747  1
  H  H155  1  0.68663692  0.88861583  0.50366580  1
  H  H156  1  0.06719880  0.75301697  0.99720634  1
  H  H157  1  0.68170201  0.56948125  0.99594631  1
  H  H158  1  0.29430138  0.08605509  0.50492560  1
  H  H159  1  0.90076594  0.08311010  0.99379376  1
  H  H160  1  0.14821455  0.91737375  0.99511987  1
  H  H161  1  0.45917806  0.41357327  0.49295034  1
  H  H162  1  0.28994420  0.74508180  0.50314103  1
  H  H163  1  0.85697828  0.58075442  0.51031364  1
  H  H164  1  0.94501768  0.08440349  0.49531917  1
  H  H165  1  0.55276469  0.08255841  1.00347672  1
  H  H166  1  0.08389174  0.41399834  0.99430939  1
  H  H167  1  0.80267231  0.08950019  0.50215894  1
  H  H168  1  0.45043350  0.74581866  0.49691800  1
  H  H169  1  0.07841631  0.59420139  0.00182052  1
  H  H170  1  0.95980043  0.91615171  -0.00822748  1
  H  H171  1  0.92421668  0.94529342  0.49475869  1
  H  H172  1  0.64819903  0.08639474  0.49200928  1
  H  H173  1  0.05975365  0.89744912  0.48691291  1
  H  H174  1  0.60482760  0.74642949  0.51008535  1
  H  H175  1  0.66079102  0.41595253  0.49691609  1
  H  H176  1  0.30661595  0.41286312  0.50551699  1
  H  H177  1  0.42654757  0.93696008  0.50157940  1
  H  H178  1  0.59405429  0.91604783  0.00109823  1
  H  H179  1  0.81479857  0.89023321  0.50367784  1
  H  H180  1  0.35449316  0.57842702  0.98826546  1
  H  H181  1  0.71385913  0.08279282  -0.00836033  1
  H  H182  1  0.41749838  0.58099865  0.49690743  1
  H  H183  1  0.45686329  0.25142907  -0.00650275  1
  H  H184  1  0.45331433  0.08916340  0.49692511  1
  H  H185  1  0.30074341  0.25158016  1.00295432  1
  H  H186  1  0.11801853  0.25399886  0.48591245  1
  H  H187  1  0.91457840  0.25238875  0.00207468  1
  H  H188  1  0.79201599  0.25311416  0.49660793  1
  H  H189  1  0.10629613  0.08073505  0.51013136  1
  H  H190  1  0.96310003  0.25605153  0.50711574  1
  H  H191  1  0.31855707  0.25218319  0.49796300  1
  Pb  Pb192  1  0.24953852  0.04579410  0.74493936  1
  Pb  Pb193  1  0.25065807  0.37970559  0.74616050  1
  Pb  Pb194  1  0.24969611  0.71266557  0.74414970  1
  Pb  Pb195  1  0.74736779  0.04901066  0.75038736  1
  Pb  Pb196  1  0.75120737  0.37914042  0.75175291  1
  Pb  Pb197  1  0.75146346  0.71210287  0.75322963  1
  Pb  Pb198  1  0.25012678  0.28669686  0.24192741  1
  Pb  Pb199  1  0.24399957  0.61781548  0.25709938  1
  Pb  Pb200  1  0.25025697  0.95496218  0.25966826  1
  Pb  Pb201  1  0.75153023  0.28716416  0.26213950  1
  Pb  Pb202  1  0.74333741  0.61734741  0.24610657  1
  Pb  Pb203  1  0.74855503  0.95065417  0.24675084  1
  Pb  Pb204  1  -0.00316478  0.21363347  0.74725446  1
  Pb  Pb205  1  0.00001469  0.54526233  0.75540313  1
  Pb  Pb206  1  -0.00251926  0.88040592  0.74670140  1
  Pb  Pb207  1  0.49384083  0.21485685  0.75324872  1
  Pb  Pb208  1  0.50184330  0.54604718  0.74576086  1
  Pb  Pb209  1  0.49992331  0.87863116  0.74686744  1
  Pb  Pb210  1  -0.00131774  0.12037765  0.25077382  1
  Pb  Pb211  1  -0.00371913  0.45304106  0.24627884  1
  Pb  Pb212  1  -0.00159214  0.78657894  0.24487515  1
  Pb  Pb213  1  0.50055925  0.12045250  0.24771546  1
  Pb  Pb214  1  0.49502456  0.45041800  0.25411808  1
  Pb  Pb215  1  0.49301981  0.78462899  0.25422321  1
  C  C216  1  0.00326165  0.04752558  0.63447751  1
  C  C217  1  0.00565944  0.38118858  0.63015487  1
  C  C218  1  0.00419690  0.71154308  0.63134383  1
  C  C219  1  0.50217257  0.04689176  0.63513717  1
  C  C220  1  0.50189879  0.37728410  0.63015229  1
  C  C221  1  0.50216119  0.71070114  0.63272330  1
  C  C222  1  0.00621771  0.28741534  0.13076290  1
  C  C223  1  -0.00246511  0.61940635  0.13688409  1
  C  C224  1  0.00290876  0.95519218  0.13375513  1
  C  C225  1  0.50228547  0.28953889  0.13375887  1
  C  C226  1  0.50139989  0.62170135  0.13468413  1
  C  C227  1  0.50209697  0.95424227  0.12941665  1
  C  C228  1  -0.00323398  0.04602225  0.87108298  1
  C  C229  1  0.00181008  0.37765812  0.86942756  1
  C  C230  1  0.00409407  0.71359828  0.86691609  1
  C  C231  1  0.49545317  0.04421915  0.86634924  1
  C  C232  1  0.50281568  0.37967206  0.86929975  1
  C  C233  1  0.50043556  0.71359750  0.86906654  1
  C  C234  1  0.00246757  0.29064269  0.36874392  1
  C  C235  1  -0.00309151  0.62113704  0.37006998  1
  C  C236  1  -0.00053241  0.95228394  0.36744827  1
  C  C237  1  0.50550451  0.28649849  0.37114459  1
  C  C238  1  0.49921300  0.61998698  0.36731498  1
  C  C239  1  0.50009551  0.95216927  0.36258874  1
  C  C240  1  0.24719888  0.21338564  0.63313886  1
  C  C241  1  0.24918969  0.54533815  0.62996997  1
  C  C242  1  0.24920571  0.87916256  0.63577269  1
  C  C243  1  0.74626388  0.21351824  0.63212975  1
  C  C244  1  0.75092527  0.54628797  0.62807269  1
  C  C245  1  0.75013504  0.87536180  0.63180821  1
  C  C246  1  0.25504239  0.12038092  0.13222368  1
  C  C247  1  0.25164134  0.45383506  0.13273722  1
  C  C248  1  0.25190253  0.79019524  0.13190327  1
  C  C249  1  0.75219990  0.12239787  0.12900795  1
  C  C250  1  0.75017950  0.45258330  0.13032164  1
  C  C251  1  0.75057307  0.78722259  0.13166285  1
  C  C252  1  0.24268124  0.21148329  0.86645682  1
  C  C253  1  0.25023927  0.54512384  0.86522225  1
  C  C254  1  0.24877773  0.87788378  0.86988238  1
  C  C255  1  0.74552812  0.21395515  0.86995133  1
  C  C256  1  0.75269983  0.54113718  0.87038821  1
  C  C257  1  0.74849114  0.87766597  0.86940330  1
  C  C258  1  0.24839953  0.12310349  0.36832226  1
  C  C259  1  0.24462717  0.45357413  0.36838110  1
  C  C260  1  0.24687577  0.78490410  0.36738768  1
  C  C261  1  0.74645586  0.12162121  0.36707128  1
  C  C262  1  0.74651751  0.45387647  0.36783352  1
  C  C263  1  0.74974250  0.78609671  0.36687856  1
  C  C264  1  0.97748124  0.07362485  0.53765676  1
  C  C265  1  0.30771552  0.56860239  0.95437486  1
  C  C266  1  0.46807224  0.92563166  0.03544139  1
  C  C267  1  0.46333973  0.93783707  0.45999456  1
  C  C268  1  0.02530081  0.07654260  0.96659212  1
  C  C269  1  0.72992683  0.57793290  0.53180458  1
  C  C270  1  0.21144138  0.90394867  0.54160033  1
  C  C271  1  0.53475170  0.41144392  0.96151331  1
  C  C272  1  0.18845217  0.09423000  0.45485245  1
  C  C273  1  0.95803660  0.26135920  0.03879166  1
  C  C274  1  0.48554725  0.26177842  0.03769508  1
  C  C275  1  0.53344425  0.74407985  0.96152484  1
  C  C276  1  0.54944946  0.92623111  0.03743284  1
  C  C277  1  0.03936643  0.60067992  0.04160711  1
  C  C278  1  0.06734147  0.26313107  0.45278300  1
  C  C279  1  0.19123548  0.42843877  0.45825763  1
  C  C280  1  0.44715510  0.26182319  0.45863494  1
  C  C281  1  0.95079885  0.59215627  0.46028097  1
  C  C282  1  0.77842617  0.75535301  0.46065911  1
  C  C283  1  0.19801736  0.23910262  0.54205624  1
  C  C284  1  0.98860330  0.92822043  0.03531276  1
  C  C285  1  0.54536282  0.93786008  0.45771346  1
  C  C286  1  0.03947849  0.25920470  0.03627057  1
  C  C287  1  0.27242095  0.42545415  0.46458735  1
  C  C288  1  0.70421048  0.42639889  0.45920770  1
  C  C289  1  0.06837687  0.93235728  0.04810010  1
  C  C290  1  0.05905147  0.07190209  0.54481652  1
  C  C291  1  0.45883640  0.59167276  0.45877587  1
  C  C292  1  0.68677610  0.90611816  0.95546697  1
  C  C293  1  0.69250753  0.09503238  0.45590309  1
  C  C294  1  0.51792084  0.59395800  0.03860735  1
  C  C295  1  0.52018254  0.07157454  0.96125743  1
  C  C296  1  0.22641429  0.56869742  0.96309935  1
  C  C297  1  0.55916794  0.73804396  0.54530834  1
  C  C298  1  0.19609497  0.90657034  0.95980675  1
  C  C299  1  0.69279824  0.23959946  0.96026712  1
  C  C300  1  0.29076171  0.57480516  0.53694847  1
  C  C301  1  0.26829438  0.24004793  0.96083221  1
  C  C302  1  0.48308155  0.07584156  0.53980911  1
  C  C303  1  0.95728161  0.60114702  0.04111918  1
  C  C304  1  0.78094764  0.42233187  0.03722816  1
  C  C305  1  0.81789576  0.09560265  0.04431439  1
  C  C306  1  0.27722551  0.90706545  0.96469343  1
  C  C307  1  0.04035682  0.41123478  0.53790733  1
  C  C308  1  0.27935193  0.24074122  0.53724816  1
  C  C309  1  0.77371801  0.24024965  0.96590367  1
  C  C310  1  0.56472427  0.40431904  0.54402919  1
  C  C311  1  0.52760622  0.25946446  0.46724730  1
  N  N312  1  0.76497936  0.90959405  0.96358270  1
  N  N313  1  0.94694322  0.07448192  0.95980783  1
  N  N314  1  0.45616071  0.74378969  0.96105068  1
  N  N315  1  0.70981005  0.58290557  0.95578421  1
  N  N316  1  0.04401269  0.40543337  0.95897761  1
  N  N317  1  0.20023579  0.42753715  0.04260077  1
  N  N318  1  0.27630782  0.42618887  0.03654787  1
  N  N319  1  0.70825245  0.91062305  0.54215512  1
  N  N320  1  0.56358333  0.26268807  0.04742503  1
  N  N321  1  0.74019714  0.09114764  0.03401871  1
  N  N322  1  0.98907358  0.25970534  0.46371379  1
  N  N323  1  0.03933125  0.74340061  0.53861769  1
  N  N324  1  0.78338940  0.42633684  0.46257904  1
  N  N325  1  0.02847111  0.58964010  0.46517515  1
  N  N326  1  0.79189741  0.91114659  0.54237647  1
  N  N327  1  0.28161237  0.76188391  0.03678972  1
  N  N328  1  0.44137512  0.06953631  0.95669542  1
  N  N329  1  0.45744008  0.41029333  0.96083931  1
  N  N330  1  0.77178359  0.09144378  0.46097599  1
  N  N331  1  0.70101200  0.75731102  0.45823106  1
  N  N332  1  0.03364044  0.73888671  0.96013731  1
  N  N333  1  0.48014089  0.74130986  0.53854349  1
  N  N334  1  0.95318575  0.92589112  0.45793949  1
  N  N335  1  0.26657583  0.09302741  0.46288071  1
  N  N336  1  0.21142060  0.57430154  0.53842012  1
  N  N337  1  0.29218854  0.08976882  0.03948060  1
  N  N338  1  0.53820420  0.59173790  0.46130155  1
  N  N339  1  0.70364071  0.42433917  0.03822278  1
  N  N340  1  0.03514898  0.93216180  0.46242060  1
  N  N341  1  0.18691055  0.76420769  0.45591514  1
  N  N342  1  0.95527512  0.73861595  0.95841944  1
  N  N343  1  0.96605020  0.40520117  0.96372017  1
  N  N344  1  0.29140148  0.90274620  0.54309428  1
  N  N345  1  0.80783259  0.57367338  0.54156118  1
  N  N346  1  0.26424155  0.76076175  0.46266369  1
  N  N347  1  0.78740613  0.75850795  0.04118713  1
  N  N348  1  0.96318069  0.74296266  0.54000493  1
  N  N349  1  0.79229613  0.57902749  0.95924621  1
  N  N350  1  0.70927813  0.75860727  0.03919333  1
  N  N351  1  0.20527954  0.76274771  0.04064328  1
  N  N352  1  0.68782885  0.23991541  0.54485526  1
  N  N353  1  0.43972417  0.59569012  0.04780998  1
  N  N354  1  0.56152608  0.07278268  0.54728790  1
  N  N355  1  0.96306945  0.41005895  0.53730019  1
  N  N356  1  0.76518984  0.24294951  0.53862355  1
  N  N357  1  0.18930828  0.23892772  0.95645525  1
  N  N358  1  0.48651032  0.40717257  0.53514521  1
  N  N359  1  0.21608726  0.09062476  0.03971237  1
  N  N360  1  0.07335862  0.05587281  0.60519194  1
  N  N361  1  0.06949311  0.39357518  0.59371551  1
  N  N362  1  0.06636749  0.72409917  0.59524301  1
  N  N363  1  0.57183832  0.05497454  0.60684739  1
  N  N364  1  0.57421119  0.38728723  0.60324798  1
  N  N365  1  0.57296735  0.72075063  0.60416884  1
  N  N366  1  0.44647524  0.27764344  0.09060219  1
  N  N367  1  0.43108971  0.61300224  0.10769728  1
  N  N368  1  0.43952970  0.94239358  0.09062993  1
  N  N369  1  0.93870378  0.27863581  0.09881515  1
  N  N370  1  0.93260071  0.61232459  0.10076500  1
  N  N371  1  0.94868439  0.94279199  0.09023052  1
  N  N372  1  0.42766410  0.05245479  0.89755339  1
  N  N373  1  0.43727896  0.39034209  0.90208335  1
  N  N374  1  0.43527287  0.72449827  0.90221486  1
  N  N375  1  0.92874322  0.05540327  0.90090006  1
  N  N376  1  0.94036371  0.38835005  0.90748051  1
  N  N377  1  0.93791331  0.72246327  0.90021910  1
  N  N378  1  0.07536771  0.28044059  0.39337431  1
  N  N379  1  0.05714327  0.60811308  0.40744105  1
  N  N380  1  0.06118224  0.93825309  0.40310910  1
  N  N381  1  0.56304159  0.27439112  0.41355278  1
  N  N382  1  0.56142915  0.60927508  0.40400122  1
  N  N383  1  0.56683274  0.94630806  0.39682199  1
  N  N384  1  0.30869108  0.22434679  0.59545849  1
  N  N385  1  0.31418060  0.55742761  0.59381576  1
  N  N386  1  0.31419879  0.88381663  0.60088606  1
  N  N387  1  0.80270082  0.22511854  0.59058349  1
  N  N388  1  0.82107223  0.55405226  0.60093655  1
  N  N389  1  0.81398406  0.88619217  0.59731116  1
  N  N390  1  0.19138333  0.10964408  0.09706312  1
  N  N391  1  0.18379945  0.44456134  0.10231726  1
  N  N392  1  0.18568273  0.77985564  0.09973166  1
  N  N393  1  0.69889440  0.10967415  0.08580544  1
  N  N394  1  0.68421661  0.44317385  0.09768056  1
  N  N395  1  0.68689885  0.77584966  0.09615345  1
  N  N396  1  0.17509178  0.22116099  0.89757768  1
  N  N397  1  0.19177330  0.55437992  0.90697137  1
  N  N398  1  0.17983813  0.88842268  0.89941362  1
  N  N399  1  0.67638275  0.22317024  0.89966965  1
  N  N400  1  0.68813810  0.55488625  0.90310857  1
  N  N401  1  0.67645893  0.88779441  0.89663306  1
  N  N402  1  0.30454618  0.11340348  0.41034256  1
  N  N403  1  0.30467853  0.44152400  0.40745081  1
  N  N404  1  0.30246049  0.77244238  0.40912179  1
  N  N405  1  0.80509046  0.11095875  0.40687656  1
  N  N406  1  0.80804033  0.44344781  0.40533355  1
  N  N407  1  0.81058247  0.77274432  0.40597090  1
  N  N408  1  0.43432521  0.27795277  0.39975862  1
  N  N409  1  0.43347611  0.60839421  0.40115762  1
  N  N410  1  0.43648532  0.94626330  0.40035864  1
  N  N411  1  0.94896269  0.28009494  0.41285756  1
  N  N412  1  0.92935634  0.61068392  0.40241177  1
  N  N413  1  0.93366063  0.94837024  0.40153517  1
  N  N414  1  0.05656009  0.05882572  0.91187754  1
  N  N415  1  0.06730707  0.38839047  0.90220452  1
  N  N416  1  0.06484212  0.72500017  0.90458714  1
  N  N417  1  0.55512433  0.05664964  0.90606030  1
  N  N418  1  0.56554160  0.39282926  0.90660620  1
  N  N419  1  0.56356030  0.72592122  0.90623424  1
  N  N420  1  0.06852779  0.27488959  0.09171793  1
  N  N421  1  0.06299405  0.61191579  0.10135301  1
  N  N422  1  0.07669864  0.94829212  0.10760314  1
  N  N423  1  0.57267053  0.28008044  0.10715577  1
  N  N424  1  0.55729858  0.60963390  0.09165801  1
  N  N425  1  0.56933221  0.94416352  0.09749726  1
  N  N426  1  0.44527702  0.05973648  0.59324234  1
  N  N427  1  0.44682119  0.38772579  0.58745209  1
  N  N428  1  0.44501491  0.72141518  0.59158823  1
  N  N429  1  0.94396644  0.05834098  0.59385884  1
  N  N430  1  0.94113653  0.39148791  0.59614442  1
  N  N431  1  0.93982322  0.72334585  0.59738849  1
  N  N432  1  0.17675586  0.11164043  0.39588806  1
  N  N433  1  0.17506165  0.44510293  0.40008465  1
  N  N434  1  0.17661962  0.77911280  0.39636573  1
  N  N435  1  0.67661563  0.11184220  0.39724961  1
  N  N436  1  0.68020316  0.44275689  0.40102591  1
  N  N437  1  0.68288199  0.77644689  0.39828456  1
  N  N438  1  0.30263314  0.22363725  0.90606483  1
  N  N439  1  0.32088433  0.55404847  0.89362280  1
  N  N440  1  0.30909417  0.88983483  0.91065558  1
  N  N441  1  0.80566266  0.22476617  0.91128473  1
  N  N442  1  0.81577273  0.55207639  0.90574566  1
  N  N443  1  0.80412533  0.88961397  0.91121906  1
  N  N444  1  0.31806572  0.10839420  0.09674145  1
  N  N445  1  0.30950116  0.44227736  0.09214954  1
  N  N446  1  0.31197331  0.77922918  0.09298767  1
  N  N447  1  0.82558433  0.11363466  0.10363617  1
  N  N448  1  0.81234131  0.43949280  0.09238721  1
  N  N449  1  0.81429017  0.77640658  0.09674445  1
  N  N450  1  0.17878460  0.22293344  0.60021818  1
  N  N451  1  0.18523316  0.55568965  0.59550958  1
  N  N452  1  0.18525020  0.89141437  0.59921298  1
  N  N453  1  0.67652380  0.22277280  0.60342252  1
  N  N454  1  0.69427451  0.56085905  0.58523427  1
  N  N455  1  0.68622246  0.88592064  0.59725822  1
  Cl  Cl456  1  0.26250289  0.05842741  0.60480149  1
  Cl  Cl457  1  0.26113054  0.39234510  0.61108969  1
  Cl  Cl458  1  0.25967904  0.72227042  0.60109782  1
  Cl  Cl459  1  0.76004430  0.06021668  0.61124305  1
  Cl  Cl460  1  0.75643569  0.38527598  0.61924425  1
  Cl  Cl461  1  0.75637249  0.71708923  0.62037220  1
  Cl  Cl462  1  0.26099099  0.27639343  0.10745727  1
  Cl  Cl463  1  0.24555683  0.61358794  0.12495029  1
  Cl  Cl464  1  0.25886571  0.94712061  0.12944227  1
  Cl  Cl465  1  0.75585061  0.28468730  0.13163786  1
  Cl  Cl466  1  0.74442398  0.60104626  0.10401015  1
  Cl  Cl467  1  0.76182903  0.94275866  0.10792405  1
  Cl  Cl468  1  0.24051301  0.04892808  0.87386543  1
  Cl  Cl469  1  0.24998725  0.38473531  0.87736223  1
  Cl  Cl470  1  0.24768068  0.72299768  0.87506138  1
  Cl  Cl471  1  0.74063591  0.05769353  0.89338702  1
  Cl  Cl472  1  0.75493902  0.38980057  0.88431483  1
  Cl  Cl473  1  0.75369427  0.72424636  0.88778539  1
  Cl  Cl474  1  0.25437700  0.28177308  0.37310800  1
  Cl  Cl475  1  0.24425221  0.60989351  0.39386549  1
  Cl  Cl476  1  0.24634907  0.94438462  0.39705912  1
  Cl  Cl477  1  0.76377173  0.27148789  0.40024405  1
  Cl  Cl478  1  0.74642032  0.61252382  0.37950164  1
  Cl  Cl479  1  0.75249289  0.93274214  0.38978107  1
  Cl  Cl480  1  -0.01396692  0.23088395  0.60583263  1
  Cl  Cl481  1  0.00278757  0.55076983  0.62359222  1
  Cl  Cl482  1  -0.00141143  0.89372415  0.60757625  1
  Cl  Cl483  1  0.49362153  0.21863337  0.62205041  1
  Cl  Cl484  1  0.50117495  0.55164201  0.61380170  1
  Cl  Cl485  1  0.50122069  0.89036829  0.61092141  1
  Cl  Cl486  1  0.00694745  0.11270011  0.11726690  1
  Cl  Cl487  1  0.00021966  0.44324469  0.11287732  1
  Cl  Cl488  1  0.00052636  0.77957481  0.10827306  1
  Cl  Cl489  1  0.51200038  0.10834428  0.11185860  1
  Cl  Cl490  1  0.49641626  0.44596223  0.12226402  1
  Cl  Cl491  1  0.49986890  0.78280855  0.12211565  1
  Cl  Cl492  1  -0.01233382  0.21801519  0.88027942  1
  Cl  Cl493  1  0.00105816  0.55598842  0.89136044  1
  Cl  Cl494  1  -0.01314914  0.89004119  0.88092992  1
  Cl  Cl495  1  0.48741218  0.22281055  0.88861610  1
  Cl  Cl496  1  0.50882137  0.55580406  0.88191043  1
  Cl  Cl497  1  0.49400256  0.88414610  0.87815566  1
  Cl  Cl498  1  -0.01069222  0.11065409  0.38621972  1
  Cl  Cl499  1  -0.00787400  0.44955362  0.37708396  1
  Cl  Cl500  1  -0.00642303  0.78705327  0.37602989  1
  Cl  Cl501  1  0.48821405  0.11341453  0.38415659  1
  Cl  Cl502  1  0.49191580  0.43906644  0.39228766  1
  Cl  Cl503  1  0.48672171  0.77175745  0.39747785  1
  Cl  Cl504  1  0.35672904  0.14791852  0.75168656  1
  Cl  Cl505  1  0.36291751  0.48068342  0.75177118  1
  Cl  Cl506  1  0.35992699  0.81438168  0.74295832  1
  Cl  Cl507  1  0.85886104  0.14807814  0.75163827  1
  Cl  Cl508  1  0.85876069  0.48292369  0.74940585  1
  Cl  Cl509  1  0.85838259  0.81577387  0.74805002  1
  Cl  Cl510  1  0.13717104  0.18739087  0.25379699  1
  Cl  Cl511  1  0.13798917  0.52164409  0.25136848  1
  Cl  Cl512  1  0.13620025  0.85552495  0.25277314  1
  Cl  Cl513  1  0.64105009  0.18570192  0.25227466  1
  Cl  Cl514  1  0.64099233  0.52166486  0.24907884  1
  Cl  Cl515  1  0.64144235  0.85484666  0.25474320  1
  Cl  Cl516  1  0.13530403  0.14529528  0.74114682  1
  Cl  Cl517  1  0.14059484  0.48076551  0.74954586  1
  Cl  Cl518  1  0.13817475  0.81440181  0.74859622  1
  Cl  Cl519  1  0.64058586  0.14466324  0.74968784  1
  Cl  Cl520  1  0.64030648  0.48019205  0.74681621  1
  Cl  Cl521  1  0.63973118  0.81346407  0.74871029  1
  Cl  Cl522  1  0.35884700  0.18408097  0.24959635  1
  Cl  Cl523  1  0.36009968  0.51959754  0.25196589  1
  Cl  Cl524  1  0.35853095  0.85226176  0.25816909  1
  Cl  Cl525  1  0.85960942  0.18474285  0.24688025  1
  Cl  Cl526  1  0.86038196  0.52012054  0.24577709  1
  Cl  Cl527  1  0.86112097  0.85329204  0.24796647  1
  Cl  Cl528  1  0.11311154  0.31122076  0.75007727  1
  Cl  Cl529  1  0.11107898  0.64692969  0.74895475  1
  Cl  Cl530  1  0.10959883  0.98056616  0.74447021  1
  Cl  Cl531  1  0.61352905  0.31099660  0.74634911  1
  Cl  Cl532  1  0.61267076  0.64717851  0.74861880  1
  Cl  Cl533  1  0.61497672  0.97799781  0.74354150  1
  Cl  Cl534  1  0.39364019  0.01670647  0.24961680  1
  Cl  Cl535  1  0.39323735  0.35041510  0.25271205  1
  Cl  Cl536  1  0.39116168  0.68805707  0.24863398  1
  Cl  Cl537  1  0.88818068  0.01883348  0.25295611  1
  Cl  Cl538  1  0.89148413  0.35101279  0.25164966  1
  Cl  Cl539  1  0.89045213  0.68655641  0.24556037  1
  Cl  Cl540  1  0.39244778  0.31465674  0.75070637  1
  Cl  Cl541  1  0.38997634  0.64732459  0.74892923  1
  Cl  Cl542  1  0.39041376  0.98090740  0.74896764  1
  Cl  Cl543  1  0.89325406  0.31716025  0.74953500  1
  Cl  Cl544  1  0.89219205  0.64863421  0.75659015  1
  Cl  Cl545  1  0.88739855  0.98194522  0.74825911  1
  Cl  Cl546  1  0.10985183  0.01938560  0.25405220  1
  Cl  Cl547  1  0.11268901  0.35457374  0.25010303  1
  Cl  Cl548  1  0.11196380  0.68840824  0.25370874  1
  Cl  Cl549  1  0.61468949  0.02035464  0.25331251  1
  Cl  Cl550  1  0.61327462  0.35316833  0.25106308  1
  Cl  Cl551  1  0.61030816  0.68720295  0.25499627  1
