# generated using pymatgen
data_H8PbC4(N3Cl2)2
_symmetry_space_group_name_H-M   'P 1'
_cell_length_a   16.62352428
_cell_length_b   22.50786340
_cell_length_c   21.59013380
_cell_angle_alpha   90.00022824
_cell_angle_beta   89.99826288
_cell_angle_gamma   89.99949075
_symmetry_Int_Tables_number   1
_chemical_formula_structural   H8PbC4(N3Cl2)2
_chemical_formula_sum   'H192 Pb24 C96 N144 Cl96'
_cell_volume   8078.16475511
_cell_formula_units_Z   24
loop_
 _symmetry_equiv_pos_site_id
 _symmetry_equiv_pos_as_xyz
  1  'x, y, z'
loop_
 _atom_site_type_symbol
 _atom_site_label
 _atom_site_symmetry_multiplicity
 _atom_site_fract_x
 _atom_site_fract_y
 _atom_site_fract_z
 _atom_site_occupancy
  H  H0  1  -0.00103928  0.03367007  0.67801344  1
  H  H1  1  -0.00166131  0.36424107  0.67483627  1
  H  H2  1  -0.00471358  0.69647801  0.68022197  1
  H  H3  1  0.49075890  0.03229207  0.67593979  1
  H  H4  1  0.51011702  0.36215301  0.68058058  1
  H  H5  1  0.49203803  0.69995532  0.68159387  1
  H  H6  1  -0.01196577  0.29986432  0.17883369  1
  H  H7  1  -0.01004842  0.63389370  0.17689325  1
  H  H8  1  -0.00448303  0.97026417  0.18135561  1
  H  H9  1  0.51228929  0.30244932  0.17722797  1
  H  H10  1  0.49472840  0.63594368  0.17980196  1
  H  H11  1  0.49604039  0.96921934  0.18138299  1
  H  H12  1  -0.00808375  0.02978118  0.81847420  1
  H  H13  1  -0.00345529  0.36492235  0.81781639  1
  H  H14  1  -0.00608446  0.69353994  0.82102108  1
  H  H15  1  0.50610605  0.03214171  0.81989522  1
  H  H16  1  0.50274113  0.36246055  0.82224159  1
  H  H17  1  0.50028821  0.69574686  0.81986694  1
  H  H18  1  -0.00176240  0.30470682  0.32050602  1
  H  H19  1  -0.00289681  0.63465145  0.31900147  1
  H  H20  1  -0.00616902  0.97315440  0.31945241  1
  H  H21  1  0.50519250  0.30194225  0.31758470  1
  H  H22  1  0.49418320  0.63492234  0.32239461  1
  H  H23  1  0.51457928  0.96892856  0.32499226  1
  H  H24  1  0.25245672  0.19463961  0.68032052  1
  H  H25  1  0.25296703  0.52864581  0.67729207  1
  H  H26  1  0.24808009  0.86453887  0.68187372  1
  H  H27  1  0.73962906  0.19853750  0.68012500  1
  H  H28  1  0.75235501  0.53180809  0.68063161  1
  H  H29  1  0.75656305  0.86663475  0.67928991  1
  H  H30  1  0.24892890  0.13034845  0.17921021  1
  H  H31  1  0.24306957  0.47235197  0.17803857  1
  H  H32  1  0.24604658  0.80203368  0.18373972  1
  H  H33  1  0.74687760  0.13615998  0.18197501  1
  H  H34  1  0.76006588  0.47069375  0.17592025  1
  H  H35  1  0.75605731  0.80553989  0.17595952  1
  H  H36  1  0.25270990  0.19887030  0.82486427  1
  H  H37  1  0.25519145  0.52939646  0.82139962  1
  H  H38  1  0.25644806  0.86165561  0.81967971  1
  H  H39  1  0.75206963  0.19668115  0.82176891  1
  H  H40  1  0.76083390  0.53315202  0.82388076  1
  H  H41  1  0.74557744  0.86786522  0.82364421  1
  H  H42  1  0.25975533  0.13516212  0.32325618  1
  H  H43  1  0.25011219  0.46851624  0.32162680  1
  H  H44  1  0.25596643  0.80355267  0.31660682  1
  H  H45  1  0.75583351  0.13505719  0.32317564  1
  H  H46  1  0.74615779  0.46775269  0.32281515  1
  H  H47  1  0.75431742  0.80399481  0.31947941  1
  H  H48  1  0.13028272  0.05571938  0.61228903  1
  H  H49  1  0.12139650  0.38690761  0.60619796  1
  H  H50  1  0.13016123  0.71827926  0.62198640  1
  H  H51  1  0.62818486  0.04818384  0.62025626  1
  H  H52  1  0.61728120  0.39095542  0.59644857  1
  H  H53  1  0.62882534  0.71872995  0.62296287  1
  H  H54  1  0.37843581  0.28049941  0.11829127  1
  H  H55  1  0.38099096  0.60879094  0.10167660  1
  H  H56  1  0.38263375  0.94518624  0.10172188  1
  H  H57  1  0.88798041  0.27567049  0.09188010  1
  H  H58  1  0.88347932  0.60798547  0.09423351  1
  H  H59  1  0.87719917  0.94359964  0.10530509  1
  H  H60  1  0.37582192  0.05411818  0.88611266  1
  H  H61  1  0.38417359  0.38939295  0.89760751  1
  H  H62  1  0.38187037  0.71997954  0.89485737  1
  H  H63  1  0.87509287  0.05270631  0.89581357  1
  H  H64  1  0.88153676  0.39045108  0.89574776  1
  H  H65  1  0.88177151  0.72280780  0.90070666  1
  H  H66  1  0.12052877  0.28190430  0.39164768  1
  H  H67  1  0.13410521  0.61356137  0.37737786  1
  H  H68  1  0.12935581  0.94991619  0.37611612  1
  H  H69  1  0.61999360  0.27803752  0.39381495  1
  H  H70  1  0.63438335  0.61507213  0.37476146  1
  H  H71  1  0.62241917  0.94534336  0.40695669  1
  H  H72  1  0.37753286  0.21735550  0.60875172  1
  H  H73  1  0.36359379  0.55871269  0.59736844  1
  H  H74  1  0.37494905  0.88854600  0.61436850  1
  H  H75  1  0.88096448  0.21588688  0.62871318  1
  H  H76  1  0.86491783  0.55431805  0.60062833  1
  H  H77  1  0.86615301  0.89386636  0.59590292  1
  H  H78  1  0.12548282  0.11282422  0.10594833  1
  H  H79  1  0.12268555  0.44570149  0.10413261  1
  H  H80  1  0.12168874  0.77640304  0.11170568  1
  H  H81  1  0.62323544  0.11408210  0.11004927  1
  H  H82  1  0.61787206  0.45051863  0.12656053  1
  H  H83  1  0.61900954  0.78449882  0.11903073  1
  H  H84  1  0.12252485  0.21817756  0.89126075  1
  H  H85  1  0.12110998  0.55085097  0.88285331  1
  H  H86  1  0.12127675  0.88352143  0.87768296  1
  H  H87  1  0.61977419  0.22021119  0.88331699  1
  H  H88  1  0.62192143  0.54879948  0.87559580  1
  H  H89  1  0.62423464  0.88915981  0.89537294  1
  H  H90  1  0.36925531  0.10728073  0.40429296  1
  H  H91  1  0.37364219  0.44580481  0.39022572  1
  H  H92  1  0.36716082  0.77929782  0.39776000  1
  H  H93  1  0.86944860  0.11058373  0.40153440  1
  H  H94  1  0.88204801  0.44669292  0.38102899  1
  H  H95  1  0.86701702  0.77438328  0.39857799  1
  H  H96  1  0.37145092  0.28322276  0.37795725  1
  H  H97  1  0.38908717  0.60571967  0.40661587  1
  H  H98  1  0.37689961  0.95275046  0.37948530  1
  H  H99  1  0.87125886  0.28084511  0.38606509  1
  H  H100  1  0.88733228  0.60717819  0.39962191  1
  H  H101  1  0.88189329  0.94534785  0.39991446  1
  H  H102  1  0.12340657  0.05300581  0.88280532  1
  H  H103  1  0.12985610  0.38544803  0.88232034  1
  H  H104  1  0.12951133  0.71521066  0.87887799  1
  H  H105  1  0.62433292  0.05509761  0.89529888  1
  H  H106  1  0.63233409  0.38743985  0.88874903  1
  H  H107  1  0.63056175  0.72049942  0.88559830  1
  H  H108  1  0.13158463  0.28582432  0.13024760  1
  H  H109  1  0.12855557  0.61705052  0.12472266  1
  H  H110  1  0.12529668  0.94653576  0.11324421  1
  H  H111  1  0.62521484  0.27532683  0.09675885  1
  H  H112  1  0.62904161  0.61400100  0.11824282  1
  H  H113  1  0.63096936  0.94756625  0.11907570  1
  H  H114  1  0.38224935  0.05618942  0.59534398  1
  H  H115  1  0.37210241  0.38308609  0.62417062  1
  H  H116  1  0.38333532  0.72467100  0.59740905  1
  H  H117  1  0.88172328  0.05736430  0.60101468  1
  H  H118  1  0.87322898  0.38685212  0.60812674  1
  H  H119  1  0.88258014  0.72481830  0.60050883  1
  H  H120  1  0.12253868  0.11567169  0.38140714  1
  H  H121  1  0.12472837  0.44552429  0.39026075  1
  H  H122  1  0.11979163  0.78038321  0.37628853  1
  H  H123  1  0.62205503  0.11425515  0.38099513  1
  H  H124  1  0.63439971  0.44059478  0.40353907  1
  H  H125  1  0.61937534  0.78473371  0.37881472  1
  H  H126  1  0.37045310  0.22639349  0.89916719  1
  H  H127  1  0.36895693  0.55769994  0.89905985  1
  H  H128  1  0.36928422  0.89046583  0.89899824  1
  H  H129  1  0.86817102  0.22277773  0.89939289  1
  H  H130  1  0.86667684  0.55912568  0.90689817  1
  H  H131  1  0.87299374  0.88552397  0.88952225  1
  H  H132  1  0.37440655  0.11308934  0.10759374  1
  H  H133  1  0.37098076  0.44668874  0.11065627  1
  H  H134  1  0.36984451  0.77764287  0.11126166  1
  H  H135  1  0.87247184  0.11319641  0.11131795  1
  H  H136  1  0.86204456  0.44300552  0.08936810  1
  H  H137  1  0.86488846  0.77468425  0.09539068  1
  H  H138  1  0.12879353  0.22205710  0.61174906  1
  H  H139  1  0.11693009  0.54609954  0.61687250  1
  H  H140  1  0.12645019  0.88980995  0.60825671  1
  H  H141  1  0.63562183  0.22070960  0.59522879  1
  H  H142  1  0.61712571  0.55498100  0.62103093  1
  H  H143  1  0.61947340  0.88528122  0.61965987  1
  H  H144  1  0.14910741  0.91471554  0.99018081  1
  H  H145  1  0.79206573  0.76359130  -0.00667446  1
  H  H146  1  0.54081033  0.41568477  0.49653265  1
  H  H147  1  0.32257376  0.41876400  0.00467230  1
  H  H148  1  0.33483148  0.92059343  0.50526868  1
  H  H149  1  0.29338375  0.57472635  0.49419293  1
  H  H150  1  0.10348854  0.74986150  0.50989397  1
  H  H151  1  0.14658487  0.58156405  0.51118379  1
  H  H152  1  0.95653266  0.57619842  0.50378618  1
  H  H153  1  0.59307337  0.41511143  0.99531482  1
  H  H154  1  0.96560080  0.24960529  -0.01154158  1
  H  H155  1  0.56048726  0.24676708  0.50228384  1
  H  H156  1  0.78373862  0.41812707  -0.00891062  1
  H  H157  1  0.63835066  0.57945378  -0.00895814  1
  H  H158  1  0.80390006  0.25061224  1.00253794  1
  H  H159  1  0.17736627  0.07993310  0.00314865  1
  H  H160  1  0.10324676  0.91772359  0.48819177  1
  H  H161  1  0.07406576  0.25347517  0.50143251  1
  H  H162  1  0.64664672  0.75305449  0.49061530  1
  H  H163  1  0.32671247  0.08305630  0.00313541  1
  H  H164  1  0.80081678  0.58218735  0.49361341  1
  H  H165  1  0.94916587  0.74524838  0.49716353  1
  H  H166  1  0.45743939  0.75730023  0.49985371  1
  H  H167  1  0.79198523  0.92211656  0.49648499  1
  H  H168  1  0.31403628  0.24544634  1.00376563  1
  H  H169  1  0.64527909  0.74908243  0.01336096  1
  H  H170  1  0.80092210  0.75471671  0.50236023  1
  H  H171  1  0.90695118  0.25004061  0.49758164  1
  H  H172  1  0.70384073  0.41349406  0.50527280  1
  H  H173  1  0.93476972  0.08120373  1.00229040  1
  H  H174  1  0.39965942  0.25122558  0.48991784  1
  H  H175  1  0.67270370  0.08162119  0.00270266  1
  H  H176  1  0.64404734  0.57948344  0.51022521  1
  H  H177  1  0.08977853  0.08311096  0.50623062  1
  H  H178  1  0.94909963  0.92524042  0.50264186  1
  H  H179  1  0.70912113  0.24739786  0.49005287  1
  H  H180  1  0.15679966  0.25260238  0.99697437  1
  H  H181  1  0.43857029  0.74868716  1.00250712  1
  H  H182  1  0.30320175  0.91014805  1.00250102  1
  H  H183  1  0.94872102  0.74250422  1.00404079  1
  H  H184  1  0.94468211  0.41990557  1.00177515  1
  H  H185  1  0.64479350  0.08236595  0.49511878  1
  H  H186  1  0.32900576  0.41316669  0.50113147  1
  H  H187  1  0.46485809  0.58291919  0.50729322  1
  H  H188  1  0.10265796  0.74766861  0.99057111  1
  H  H189  1  0.44796177  0.91827756  -0.00435419  1
  H  H190  1  0.11154575  0.58682223  1.00929915  1
  H  H191  1  0.29953282  0.75141290  0.50281589  1
  Pb  Pb192  1  0.25137927  0.04761789  0.75330602  1
  Pb  Pb193  1  0.24993275  0.37933719  0.75362163  1
  Pb  Pb194  1  0.24685314  0.71439030  0.74625612  1
  Pb  Pb195  1  0.74892241  0.04709052  0.75163020  1
  Pb  Pb196  1  0.74497078  0.38204198  0.74695027  1
  Pb  Pb197  1  0.75481162  0.71598455  0.75099656  1
  Pb  Pb198  1  0.25077509  0.28718391  0.24723013  1
  Pb  Pb199  1  0.25928635  0.61730632  0.25323647  1
  Pb  Pb200  1  0.25043068  0.95301464  0.24148068  1
  Pb  Pb201  1  0.75486742  0.28451441  0.24145091  1
  Pb  Pb202  1  0.75351904  0.61979972  0.24970341  1
  Pb  Pb203  1  0.75118081  0.95394433  0.25845803  1
  Pb  Pb204  1  -0.00023111  0.21461812  0.75344252  1
  Pb  Pb205  1  -0.00270457  0.54488742  0.75063752  1
  Pb  Pb206  1  -0.00114519  0.88395576  0.73963860  1
  Pb  Pb207  1  0.49882427  0.21183743  0.74597677  1
  Pb  Pb208  1  0.49291463  0.55025838  0.74923413  1
  Pb  Pb209  1  0.49933612  0.88006362  0.75611652  1
  Pb  Pb210  1  0.00164499  0.12087638  0.24952590  1
  Pb  Pb211  1  0.00058908  0.45486875  0.24021322  1
  Pb  Pb212  1  -0.00054320  0.78368773  0.24826313  1
  Pb  Pb213  1  0.49882272  0.12012142  0.24977198  1
  Pb  Pb214  1  0.50539941  0.45110919  0.25795761  1
  Pb  Pb215  1  0.50024805  0.78814155  0.25489072  1
  C  C216  1  0.00418624  0.04867280  0.63045258  1
  C  C217  1  -0.00247504  0.37980282  0.62736459  1
  C  C218  1  0.00256300  0.71210175  0.63285569  1
  C  C219  1  0.50079399  0.04559127  0.62837946  1
  C  C220  1  0.50026250  0.37777504  0.63361653  1
  C  C221  1  0.50124322  0.71453128  0.63426061  1
  C  C222  1  0.00264286  0.28737214  0.13161145  1
  C  C223  1  0.00165781  0.61965096  0.12981461  1
  C  C224  1  -0.00038017  0.95395587  0.13411050  1
  C  C225  1  0.50559833  0.28668596  0.13026485  1
  C  C226  1  0.50190936  0.62019120  0.13292253  1
  C  C227  1  0.50340216  0.95413111  0.13401702  1
  C  C228  1  -0.00293425  0.04480024  0.86607082  1
  C  C229  1  0.00295076  0.37979689  0.86535626  1
  C  C230  1  0.00145218  0.70921408  0.86836486  1
  C  C231  1  0.50169257  0.04697422  0.86731846  1
  C  C232  1  0.50696598  0.37913097  0.86929396  1
  C  C233  1  0.50459542  0.71167270  0.86724941  1
  C  C234  1  -0.00338306  0.28860138  0.36795649  1
  C  C235  1  0.00676576  0.61950368  0.36615203  1
  C  C236  1  0.00153939  0.95709757  0.36657014  1
  C  C237  1  0.49851306  0.28746266  0.36535179  1
  C  C238  1  0.50582146  0.62008761  0.36940385  1
  C  C239  1  0.50433144  0.95539147  0.37248306  1
  C  C240  1  0.25324807  0.21102702  0.63332732  1
  C  C241  1  0.24428249  0.54403369  0.62999081  1
  C  C242  1  0.24960168  0.88074878  0.63460431  1
  C  C243  1  0.75200135  0.21183606  0.63278091  1
  C  C244  1  0.74383367  0.54661841  0.63308600  1
  C  C245  1  0.74780085  0.88120620  0.63185452  1
  C  C246  1  0.24955574  0.11746152  0.13072047  1
  C  C247  1  0.24587351  0.45519593  0.13119067  1
  C  C248  1  0.24577785  0.78654280  0.13612355  1
  C  C249  1  0.74764459  0.12119249  0.13425575  1
  C  C250  1  0.74683791  0.45553089  0.12923547  1
  C  C251  1  0.74648390  0.78911109  0.12912334  1
  C  C252  1  0.24827768  0.21485350  0.87231637  1
  C  C253  1  0.24814969  0.54537592  0.86821071  1
  C  C254  1  0.24926471  0.87757450  0.86690206  1
  C  C255  1  0.74702379  0.21253781  0.86891567  1
  C  C256  1  0.74879956  0.54723807  0.87094446  1
  C  C257  1  0.74770601  0.88111669  0.87207188  1
  C  C258  1  0.25009928  0.12004817  0.37019808  1
  C  C259  1  0.25002743  0.45319623  0.36916316  1
  C  C260  1  0.24714785  0.78794732  0.36369905  1
  C  C261  1  0.74841705  0.12006087  0.37057908  1
  C  C262  1  0.75390615  0.45249415  0.37002893  1
  C  C263  1  0.74705007  0.78881764  0.36696790  1
  C  C264  1  0.05831619  0.74036178  0.54517786  1
  C  C265  1  0.95166967  0.26135789  0.46039851  1
  C  C266  1  0.03639814  0.40804664  0.53546242  1
  C  C267  1  0.76771428  0.57517670  0.96776414  1
  C  C268  1  0.26860383  0.76170998  0.45955329  1
  C  C269  1  0.07230428  0.26641529  0.04720761  1
  C  C270  1  0.56953033  0.59283623  0.45492265  1
  C  C271  1  0.79192520  0.90337233  0.96390309  1
  C  C272  1  0.55990470  0.06893483  0.54047546  1
  C  C273  1  0.68732530  0.57155751  0.95844793  1
  C  C274  1  0.44517784  0.26139563  0.45518745  1
  C  C275  1  0.95536550  0.40779274  0.53601729  1
  C  C276  1  0.53269309  0.07501261  0.96165961  1
  C  C277  1  0.76964446  0.57275179  0.53688267  1
  C  C278  1  0.03381116  0.26241859  0.46250192  1
  C  C279  1  0.69442404  0.09301910  0.46055448  1
  C  C280  1  0.81766249  0.23439448  0.54714086  1
  C  C281  1  0.47658111  0.58893180  0.03884855  1
  C  C282  1  0.47994070  0.07134760  0.53226071  1
  C  C283  1  0.52475981  0.92913823  0.46910810  1
  C  C284  1  0.52698990  0.25945203  0.46109951  1
  C  C285  1  0.45373267  0.25771436  0.04209322  1
  C  C286  1  0.27341180  0.57791444  0.96175127  1
  C  C287  1  0.47424436  0.73795187  0.96170538  1
  C  C288  1  0.69403786  0.24306632  0.95794376  1
  C  C289  1  0.28927295  0.42470160  0.46300840  1
  C  C290  1  0.71175875  0.09335806  0.04156431  1
  C  C291  1  0.96940600  0.07089472  0.96098347  1
  C  C292  1  0.81184593  0.42370909  0.45795409  1
  C  C293  1  0.21501781  0.24188610  0.54157678  1
  C  C294  1  0.73799842  0.23692314  0.53384262  1
  C  C295  1  0.71170383  0.90456058  0.96564046  1
  C  C296  1  0.05779543  0.92753305  0.45343582  1
  C  C297  1  0.69148192  0.76185998  0.45505540  1
  C  C298  1  0.06266866  0.59517459  0.04207636  1
  C  C299  1  0.98216564  0.59204175  0.03300534  1
  C  C300  1  0.20762512  0.42520484  0.46158301  1
  C  C301  1  0.19381596  0.90548085  0.95469366  1
  C  C302  1  0.97757563  0.40769548  0.96004661  1
  C  C303  1  0.67997150  0.42824998  0.04523146  1
  C  C304  1  0.99294271  0.26190016  0.03260039  1
  C  C305  1  0.27043528  0.09013469  0.46552791  1
  C  C306  1  0.29063709  0.90883906  0.54295696  1
  C  C307  1  0.05746163  0.73805153  0.95554481  1
  C  C308  1  0.47976251  0.92804752  0.03851956  1
  C  C309  1  0.98664461  0.59055884  0.46149736  1
  C  C310  1  0.77556494  0.09222103  0.46607955  1
  C  C311  1  0.44439402  0.93183736  0.45977690  1
  N  N312  1  0.04394677  0.92502584  0.04258427  1
  N  N313  1  0.56086837  0.73801938  0.54662119  1
  N  N314  1  0.28360228  0.75972529  0.04239531  1
  N  N315  1  0.76586140  0.90785697  0.53733827  1
  N  N316  1  0.77062251  0.75806078  0.46092416  1
  N  N317  1  0.45483850  0.07453854  0.95965663  1
  N  N318  1  0.68961524  0.76671487  0.04206652  1
  N  N319  1  0.29277325  0.24040917  0.53970125  1
  N  N320  1  0.49146159  0.59005291  0.46442957  1
  N  N321  1  0.73322671  0.42227819  0.46432305  1
  N  N322  1  0.04869161  0.07129736  0.95714700  1
  N  N323  1  0.20159781  0.23563034  0.96362207  1
  N  N324  1  0.55370892  0.59081470  0.04351822  1
  N  N325  1  0.27944070  0.24784851  0.96384972  1
  N  N326  1  0.97820590  0.74044027  0.96218655  1
  N  N327  1  0.75763849  0.42587841  0.03362829  1
  N  N328  1  0.76753626  0.75528981  0.03626011  1
  N  N329  1  0.77270721  0.24289645  0.96227312  1
  N  N330  1  0.21106006  0.10219798  0.03592414  1
  N  N331  1  0.18999769  0.56455989  0.54158550  1
  N  N332  1  0.26726790  0.57752693  0.53759341  1
  N  N333  1  0.20785111  0.42527045  0.03830896  1
  N  N334  1  0.69055935  0.57253799  0.54473805  1
  N  N335  1  0.68859675  0.90513331  0.54413255  1
  N  N336  1  0.05650928  0.40596158  0.95563953  1
  N  N337  1  0.79113128  0.09324113  0.04126714  1
  N  N338  1  0.29046696  0.10169713  0.03677034  1
  N  N339  1  0.18990109  0.76212098  0.45250272  1
  N  N340  1  0.04840846  0.07402695  0.54080204  1
  N  N341  1  0.48355962  0.73894742  0.53880687  1
  N  N342  1  0.28570628  0.42507703  0.04198072  1
  N  N343  1  0.53076646  0.25589681  0.03394459  1
  N  N344  1  0.55865834  0.92818858  0.04439788  1
  N  N345  1  0.97042618  0.07460491  0.53535835  1
  N  N346  1  0.96781554  0.92423018  0.03989002  1
  N  N347  1  0.06512595  0.59451548  0.45468358  1
  N  N348  1  0.55353393  0.73701430  0.95934871  1
  N  N349  1  0.97908832  0.74247318  0.53877189  1
  N  N350  1  0.43867297  0.40574429  0.54807477  1
  N  N351  1  0.47217182  0.40785779  0.96314209  1
  N  N352  1  0.97852375  0.92611235  0.46063956  1
  N  N353  1  0.21123596  0.90848403  0.54010458  1
  N  N354  1  0.55038521  0.40677783  0.95890135  1
  N  N355  1  0.27314717  0.90812796  0.96089839  1
  N  N356  1  0.20723459  0.75989206  0.04244414  1
  N  N357  1  0.19624513  0.57539290  0.95724939  1
  N  N358  1  0.19340254  0.09288425  0.45912967  1
  N  N359  1  0.51594439  0.40867258  0.53996805  1
  N  N360  1  0.07043857  0.05803798  0.59811707  1
  N  N361  1  0.06207653  0.39105005  0.59115125  1
  N  N362  1  0.07295628  0.72301900  0.60392060  1
  N  N363  1  0.57223534  0.05319735  0.59993955  1
  N  N364  1  0.55489938  0.38900592  0.59076925  1
  N  N365  1  0.57134782  0.72121120  0.60543831  1
  N  N366  1  0.43596573  0.27647805  0.10030404  1
  N  N367  1  0.44252845  0.60701263  0.09251743  1
  N  N368  1  0.44419918  0.94337359  0.09326783  1
  N  N369  1  0.95033471  0.27554743  0.08651357  1
  N  N370  1  0.94526362  0.60679183  0.08583511  1
  N  N371  1  0.93886892  0.94203245  0.09622780  1
  N  N372  1  0.43572266  0.05713403  0.89965816  1
  N  N373  1  0.44579180  0.39105993  0.90710104  1
  N  N374  1  0.44294020  0.72286117  0.90560891  1
  N  N375  1  0.93632066  0.05500608  0.90558084  1
  N  N376  1  0.94304277  0.39156425  0.90512779  1
  N  N377  1  0.94373700  0.71920739  0.90925907  1
  N  N378  1  0.06027792  0.27916030  0.40458767  1
  N  N379  1  0.07626525  0.61197253  0.39478337  1
  N  N380  1  0.07194971  0.94488919  0.39467779  1
  N  N381  1  0.55894736  0.27574264  0.40485034  1
  N  N382  1  0.57876511  0.61027198  0.39540996  1
  N  N383  1  0.56113788  0.94347565  0.41546138  1
  N  N384  1  0.31670626  0.22074135  0.59799127  1
  N  N385  1  0.30182252  0.55462108  0.58885905  1
  N  N386  1  0.31510442  0.89201505  0.60059833  1
  N  N387  1  0.82563820  0.21962522  0.60693874  1
  N  N388  1  0.80320271  0.55728309  0.59170623  1
  N  N389  1  0.80389126  0.89340906  0.59025364  1
  N  N390  1  0.18615828  0.10884530  0.09471130  1
  N  N391  1  0.18342578  0.44275952  0.09462789  1
  N  N392  1  0.18223998  0.77697441  0.10042924  1
  N  N393  1  0.68366869  0.11041672  0.09821742  1
  N  N394  1  0.67311421  0.44542083  0.10486841  1
  N  N395  1  0.67669699  0.77813128  0.10203005  1
  N  N396  1  0.18183180  0.22435545  0.90460442  1
  N  N397  1  0.18002250  0.55498530  0.89811527  1
  N  N398  1  0.17896755  0.88840374  0.89591731  1
  N  N399  1  0.67781457  0.22480208  0.89997879  1
  N  N400  1  0.67696962  0.55441726  0.89715847  1
  N  N401  1  0.68378189  0.89124950  0.90960777  1
  N  N402  1  0.30739730  0.10643061  0.41222910  1
  N  N403  1  0.31451296  0.44230197  0.40423163  1
  N  N404  1  0.30513036  0.77717747  0.40542743  1
  N  N405  1  0.80821955  0.10842169  0.41190869  1
  N  N406  1  0.82466558  0.44181039  0.39939953  1
  N  N407  1  0.80499179  0.77802785  0.40739165  1
  N  N408  1  0.42912167  0.27863446  0.39559514  1
  N  N409  1  0.45144223  0.60973017  0.41262110  1
  N  N410  1  0.43268767  0.94750136  0.40052848  1
  N  N411  1  0.93037031  0.27751065  0.40127367  1
  N  N412  1  0.94940119  0.60645020  0.40773566  1
  N  N413  1  0.94401506  0.94784530  0.40784010  1
  N  N414  1  0.06396529  0.05509265  0.89749993  1
  N  N415  1  0.07056738  0.38871404  0.89666187  1
  N  N416  1  0.07197283  0.72035738  0.89691582  1
  N  N417  1  0.56348541  0.05826672  0.90605506  1
  N  N418  1  0.57259605  0.38901738  0.90218433  1
  N  N419  1  0.57088510  0.72070855  0.89976316  1
  N  N420  1  0.07735527  0.28147126  0.10731810  1
  N  N421  1  0.07330350  0.61223282  0.10330324  1
  N  N422  1  0.06516049  0.94328838  0.10122331  1
  N  N423  1  0.56336939  0.27430615  0.09020999  1
  N  N424  1  0.57000112  0.61023615  0.10312061  1
  N  N425  1  0.57156413  0.94452252  0.10376898  1
  N  N426  1  0.44355774  0.05727688  0.58580917  1
  N  N427  1  0.42964361  0.38842570  0.60685205  1
  N  N428  1  0.44573062  0.72755052  0.59262094  1
  N  N429  1  0.94344287  0.05933231  0.59167849  1
  N  N430  1  0.93173196  0.39077238  0.59234822  1
  N  N431  1  0.94474139  0.72168822  0.59199344  1
  N  N432  1  0.18072118  0.11191565  0.39849238  1
  N  N433  1  0.18438478  0.44231562  0.40504086  1
  N  N434  1  0.17820190  0.77839305  0.39252272  1
  N  N435  1  0.67912418  0.11052117  0.39983259  1
  N  N436  1  0.69648848  0.44168169  0.41089649  1
  N  N437  1  0.67669046  0.77928149  0.39641175  1
  N  N438  1  0.30913279  0.22614219  0.91015922  1
  N  N439  1  0.30747070  0.55950574  0.90819747  1
  N  N440  1  0.30722410  0.88749757  0.90758509  1
  N  N441  1  0.80656321  0.22270724  0.90814530  1
  N  N442  1  0.80481689  0.56035561  0.91506026  1
  N  N443  1  0.81467580  0.88951692  0.90672764  1
  N  N444  1  0.31385743  0.10912242  0.09561155  1
  N  N445  1  0.31067534  0.44457294  0.09759619  1
  N  N446  1  0.30879927  0.77594826  0.10022891  1
  N  N447  1  0.81179211  0.11055007  0.09951891  1
  N  N448  1  0.79950920  0.44485018  0.08492532  1
  N  N449  1  0.80307081  0.77918920  0.08721374  1
  N  N450  1  0.18878975  0.22448185  0.59819043  1
  N  N451  1  0.17498228  0.55345292  0.60137120  1
  N  N452  1  0.18721491  0.89096809  0.59797618  1
  N  N453  1  0.69769288  0.22256383  0.58883150  1
  N  N454  1  0.67517928  0.55545131  0.60381152  1
  N  N455  1  0.67782596  0.88871739  0.60296517  1
  Cl  Cl456  1  0.25389104  0.05598366  0.62114203  1
  Cl  Cl457  1  0.24710973  0.38511939  0.62143270  1
  Cl  Cl458  1  0.26218214  0.72013733  0.60922304  1
  Cl  Cl459  1  0.76015166  0.05262027  0.61803804  1
  Cl  Cl460  1  0.73695379  0.39401870  0.60692758  1
  Cl  Cl461  1  0.76117486  0.72728899  0.60714765  1
  Cl  Cl462  1  0.25747486  0.27334850  0.11046311  1
  Cl  Cl463  1  0.26037358  0.61085982  0.12202364  1
  Cl  Cl464  1  0.25616332  0.94465727  0.10200586  1
  Cl  Cl465  1  0.76036330  0.27628083  0.10155551  1
  Cl  Cl466  1  0.76114642  0.61364245  0.11744910  1
  Cl  Cl467  1  0.75609504  0.94584559  0.12674958  1
  Cl  Cl468  1  0.25005652  0.05685729  0.89459881  1
  Cl  Cl469  1  0.26211440  0.38858029  0.88903289  1
  Cl  Cl470  1  0.25695636  0.71604267  0.87679777  1
  Cl  Cl471  1  0.74864912  0.05352448  0.88475039  1
  Cl  Cl472  1  0.75773769  0.39115461  0.89188235  1
  Cl  Cl473  1  0.75934651  0.72958831  0.89005430  1
  Cl  Cl474  1  0.24372754  0.28385618  0.37447042  1
  Cl  Cl475  1  0.26756216  0.60287806  0.39662637  1
  Cl  Cl476  1  0.25254985  0.95158337  0.37202889  1
  Cl  Cl477  1  0.74366392  0.28344537  0.37547075  1
  Cl  Cl478  1  0.76402672  0.60975172  0.38770362  1
  Cl  Cl479  1  0.75938547  0.94195713  0.39821289  1
  Cl  Cl480  1  0.00797153  0.22052715  0.62196503  1
  Cl  Cl481  1  -0.01049726  0.55264679  0.61292605  1
  Cl  Cl482  1  -0.00992572  0.89406140  0.59995793  1
  Cl  Cl483  1  0.50727648  0.21998127  0.61043333  1
  Cl  Cl484  1  0.48533130  0.56192074  0.60211937  1
  Cl  Cl485  1  0.49630335  0.88328727  0.62459099  1
  Cl  Cl486  1  0.00061891  0.11345246  0.11471214  1
  Cl  Cl487  1  -0.01262236  0.44374039  0.10487515  1
  Cl  Cl488  1  -0.01219723  0.76869455  0.10709494  1
  Cl  Cl489  1  0.49720850  0.11508617  0.11653297  1
  Cl  Cl490  1  0.49282567  0.44940073  0.12514024  1
  Cl  Cl491  1  0.49333831  0.77905396  0.12035922  1
  Cl  Cl492  1  -0.00618935  0.22047400  0.88844628  1
  Cl  Cl493  1  -0.01177539  0.55570132  0.88273365  1
  Cl  Cl494  1  -0.00209426  0.87895867  0.86925575  1
  Cl  Cl495  1  0.49142740  0.21967473  0.87762774  1
  Cl  Cl496  1  0.49007031  0.55400989  0.87994555  1
  Cl  Cl497  1  0.49138052  0.89103809  0.89127750  1
  Cl  Cl498  1  -0.00440488  0.11154502  0.38122674  1
  Cl  Cl499  1  0.00371356  0.44924997  0.37078490  1
  Cl  Cl500  1  -0.01208366  0.77206733  0.39148911  1
  Cl  Cl501  1  0.49175528  0.11032144  0.38071367  1
  Cl  Cl502  1  0.51236240  0.44262211  0.39805001  1
  Cl  Cl503  1  0.48939773  0.77839012  0.39400432  1
  Cl  Cl504  1  0.35580099  0.14884823  0.75477537  1
  Cl  Cl505  1  0.35802339  0.48231506  0.74587259  1
  Cl  Cl506  1  0.36136033  0.81349317  0.75177353  1
  Cl  Cl507  1  0.86434099  0.14602281  0.74743066  1
  Cl  Cl508  1  0.85400711  0.48330494  0.75093880  1
  Cl  Cl509  1  0.85535913  0.81417633  0.74712137  1
  Cl  Cl510  1  0.13858279  0.18696186  0.24750371  1
  Cl  Cl511  1  0.13860397  0.52240144  0.25032966  1
  Cl  Cl512  1  0.13187615  0.85623580  0.25376234  1
  Cl  Cl513  1  0.63578199  0.18829108  0.25269654  1
  Cl  Cl514  1  0.63766624  0.52176227  0.24767299  1
  Cl  Cl515  1  0.63876869  0.85329419  0.24801467  1
  Cl  Cl516  1  0.13640109  0.14613557  0.75839935  1
  Cl  Cl517  1  0.13807416  0.48076033  0.75228508  1
  Cl  Cl518  1  0.14169358  0.81007583  0.74548209  1
  Cl  Cl519  1  0.64234669  0.14817025  0.75215136  1
  Cl  Cl520  1  0.63741458  0.47671367  0.75213830  1
  Cl  Cl521  1  0.63568786  0.81140466  0.74787860  1
  Cl  Cl522  1  0.35991946  0.18613339  0.24807385  1
  Cl  Cl523  1  0.35688767  0.51996547  0.25360611  1
  Cl  Cl524  1  0.35778648  0.85041906  0.24801088  1
  Cl  Cl525  1  0.85524447  0.18637076  0.25124544  1
  Cl  Cl526  1  0.85864958  0.51646798  0.25264561  1
  Cl  Cl527  1  0.86001328  0.85076616  0.25205212  1
  Cl  Cl528  1  0.10978631  0.31534035  0.75489906  1
  Cl  Cl529  1  0.11098892  0.64533357  0.74673603  1
  Cl  Cl530  1  0.11472694  0.97590062  0.74945072  1
  Cl  Cl531  1  0.61153843  0.31290653  0.75442516  1
  Cl  Cl532  1  0.61641841  0.64326888  0.74315623  1
  Cl  Cl533  1  0.61166551  0.98012772  0.74345859  1
  Cl  Cl534  1  0.38725518  0.01906032  0.24682824  1
  Cl  Cl535  1  0.38750608  0.35416185  0.25003082  1
  Cl  Cl536  1  0.39549192  0.68381951  0.25229765  1
  Cl  Cl537  1  0.89112558  0.01910068  0.25139929  1
  Cl  Cl538  1  0.89159881  0.35180991  0.24986248  1
  Cl  Cl539  1  0.89316498  0.68358473  0.25056951  1
  Cl  Cl540  1  0.39050098  0.31502280  0.74704421  1
  Cl  Cl541  1  0.39621515  0.64751083  0.74655158  1
  Cl  Cl542  1  0.38754326  0.98073569  0.75451666  1
  Cl  Cl543  1  0.88653087  0.31403260  0.74397428  1
  Cl  Cl544  1  0.89041685  0.64910840  0.74696575  1
  Cl  Cl545  1  0.89705819  0.98018134  0.74536262  1
  Cl  Cl546  1  0.11500313  0.02215550  0.24853746  1
  Cl  Cl547  1  0.11277722  0.35453206  0.24265394  1
  Cl  Cl548  1  0.11328536  0.69016253  0.25163427  1
  Cl  Cl549  1  0.61070082  0.01879532  0.24976181  1
  Cl  Cl550  1  0.60718111  0.35547358  0.24625135  1
  Cl  Cl551  1  0.61587314  0.68895061  0.25473271  1
