# generated using pymatgen
data_H8PbC4(N3Cl2)2
_symmetry_space_group_name_H-M   'P 1'
_cell_length_a   16.63453898
_cell_length_b   22.53320334
_cell_length_c   21.60053940
_cell_angle_alpha   89.99911931
_cell_angle_beta   90.04598821
_cell_angle_gamma   89.99773370
_symmetry_Int_Tables_number   1
_chemical_formula_structural   H8PbC4(N3Cl2)2
_chemical_formula_sum   'H192 Pb24 C96 N144 Cl96'
_cell_volume   8096.51567135
_cell_formula_units_Z   24
loop_
 _symmetry_equiv_pos_site_id
 _symmetry_equiv_pos_as_xyz
  1  'x, y, z'
loop_
 _atom_site_type_symbol
 _atom_site_label
 _atom_site_symmetry_multiplicity
 _atom_site_fract_x
 _atom_site_fract_y
 _atom_site_fract_z
 _atom_site_occupancy
  H  H0  1  -0.00476640  0.02663265  0.68123159  1
  H  H1  1  -0.00111397  0.36991608  0.68434986  1
  H  H2  1  -0.01264084  0.69491856  0.67998750  1
  H  H3  1  0.49283751  0.03088608  0.67884753  1
  H  H4  1  0.49057694  0.36230984  0.68103463  1
  H  H5  1  0.50292895  0.69228228  0.67983702  1
  H  H6  1  -0.00265951  0.31336317  0.17346687  1
  H  H7  1  -0.02137610  0.63355294  0.15352956  1
  H  H8  1  -0.00487343  0.97128903  0.17878116  1
  H  H9  1  0.50948794  0.30504655  0.17905487  1
  H  H10  1  0.49674027  0.64315113  0.18330573  1
  H  H11  1  0.50093540  0.96569174  0.18019911  1
  H  H12  1  0.01133084  0.02685251  0.82284563  1
  H  H13  1  -0.00800183  0.34933259  0.82879661  1
  H  H14  1  0.01566059  0.69654292  0.81725417  1
  H  H15  1  0.49273598  0.02827744  0.82267247  1
  H  H16  1  0.48070777  0.36319951  0.84453087  1
  H  H17  1  0.48976529  0.69678566  0.82243487  1
  H  H18  1  -0.00078620  0.30242607  0.31440330  1
  H  H19  1  0.00209034  0.63700518  0.31862513  1
  H  H20  1  0.00784012  0.97911514  0.32982583  1
  H  H21  1  0.50099545  0.30179931  0.33155590  1
  H  H22  1  0.48887651  0.63136819  0.31902981  1
  H  H23  1  0.51995828  0.97380645  0.34321425  1
  H  H24  1  0.22828519  0.19362808  0.67550097  1
  H  H25  1  0.26326334  0.52994027  0.67569603  1
  H  H26  1  0.25808632  0.85633990  0.67453063  1
  H  H27  1  0.77235434  0.19907709  0.67647480  1
  H  H28  1  0.74647911  0.52911741  0.67970379  1
  H  H29  1  0.73196425  0.87032947  0.65159427  1
  H  H30  1  0.25486323  0.14399070  0.17420429  1
  H  H31  1  0.26739721  0.46512664  0.15156658  1
  H  H32  1  0.23193977  0.81141522  0.17467792  1
  H  H33  1  0.73126545  0.14081810  0.17608235  1
  H  H34  1  0.75364801  0.46845549  0.18019887  1
  H  H35  1  0.77214299  0.79999064  0.17434954  1
  H  H36  1  0.23237143  0.19965392  0.82507320  1
  H  H37  1  0.25432392  0.52266517  0.81688302  1
  H  H38  1  0.25488731  0.86406739  0.82259947  1
  H  H39  1  0.75971952  0.19068027  0.82617650  1
  H  H40  1  0.77466060  0.53138825  0.84140197  1
  H  H41  1  0.74148977  0.85801867  0.82323700  1
  H  H42  1  0.26563420  0.13211092  0.32001164  1
  H  H43  1  0.25683224  0.46984331  0.31720676  1
  H  H44  1  0.26262788  0.80486284  0.32194222  1
  H  H45  1  0.75523762  0.13899516  0.32758671  1
  H  H46  1  0.75350044  0.47827667  0.32379768  1
  H  H47  1  0.74273222  0.80918014  0.32718471  1
  H  H48  1  0.12975665  0.05204501  0.61979269  1
  H  H49  1  0.12628613  0.38883971  0.61434164  1
  H  H50  1  0.11095379  0.72074746  0.60924454  1
  H  H51  1  0.62958989  0.04870574  0.62072588  1
  H  H52  1  0.62439593  0.38395588  0.62128539  1
  H  H53  1  0.60812364  0.72745023  0.59675037  1
  H  H54  1  0.37203737  0.28506779  0.12191450  1
  H  H55  1  0.36457856  0.61506533  0.12592201  1
  H  H56  1  0.36465125  0.95076432  0.12119327  1
  H  H57  1  0.87312001  0.28233717  0.10372677  1
  H  H58  1  0.83930212  0.61319534  0.10226773  1
  H  H59  1  0.86752336  0.94798420  0.10933717  1
  H  H60  1  0.38820121  0.05881018  0.90837518  1
  H  H61  1  0.33939493  0.38305816  0.89455262  1
  H  H62  1  0.36974454  0.72283930  0.89608661  1
  H  H63  1  0.88125547  0.05298825  0.88520600  1
  H  H64  1  0.86857785  0.38581976  0.89499829  1
  H  H65  1  0.87363376  0.71473582  0.86915666  1
  H  H66  1  0.12373223  0.28191908  0.38375471  1
  H  H67  1  0.13160539  0.61686106  0.38543366  1
  H  H68  1  0.13479167  0.94773761  0.39441385  1
  H  H69  1  0.62410476  0.26840604  0.39862616  1
  H  H70  1  0.62896300  0.61847766  0.37154181  1
  H  H71  1  0.66065643  0.94877052  0.39226127  1
  H  H72  1  0.37706644  0.20555131  0.63778701  1
  H  H73  1  0.36256369  0.56315257  0.59014152  1
  H  H74  1  0.35519370  0.89604218  0.58978728  1
  H  H75  1  0.86003070  0.22669462  0.58400953  1
  H  H76  1  0.86450452  0.55771862  0.60462462  1
  H  H77  1  0.83824779  0.90033646  0.57038781  1
  H  H78  1  0.11657444  0.11790792  0.12174957  1
  H  H79  1  0.16172256  0.43519124  0.06895896  1
  H  H80  1  0.14180686  0.77054551  0.08567124  1
  H  H81  1  0.62059973  0.10884320  0.09479134  1
  H  H82  1  0.63976226  0.44374303  0.10413924  1
  H  H83  1  0.63233641  0.78190744  0.12040029  1
  H  H84  1  0.12562761  0.22816170  0.90623340  1
  H  H85  1  0.14284063  0.54831317  0.89671081  1
  H  H86  1  0.12971534  0.88986805  0.89227795  1
  H  H87  1  0.62784876  0.21573341  0.88842252  1
  H  H88  1  0.66375123  0.56060119  0.91907344  1
  H  H89  1  0.63924846  0.89250252  0.90628985  1
  H  H90  1  0.37306457  0.10552387  0.40161858  1
  H  H91  1  0.37126502  0.43606866  0.39204694  1
  H  H92  1  0.37965312  0.77689796  0.39893393  1
  H  H93  1  0.86163780  0.10439501  0.40725775  1
  H  H94  1  0.87304482  0.44685534  0.39565527  1
  H  H95  1  0.88795942  0.79304715  0.37443491  1
  H  H96  1  0.37642473  0.27932877  0.40246441  1
  H  H97  1  0.38382489  0.60739974  0.40289348  1
  H  H98  1  0.41472986  0.93653687  0.42398861  1
  H  H99  1  0.87472077  0.27728951  0.38220535  1
  H  H100  1  0.88306562  0.61127698  0.39444459  1
  H  H101  1  0.88730367  0.94616941  0.39765602  1
  H  H102  1  0.12934664  0.05973496  0.89691595  1
  H  H103  1  0.11679983  0.38282710  0.89292194  1
  H  H104  1  0.11743568  0.72704408  0.90292840  1
  H  H105  1  0.63257747  0.04904513  0.87631813  1
  H  H106  1  0.58411672  0.39904923  0.92754350  1
  H  H107  1  0.61858751  0.71800937  0.88628269  1
  H  H108  1  0.12186376  0.28276523  0.10423901  1
  H  H109  1  0.08385176  0.59276592  0.07525665  1
  H  H110  1  0.11526522  0.94521570  0.10462323  1
  H  H111  1  0.61984995  0.27840897  0.09982377  1
  H  H112  1  0.61175132  0.61786824  0.10759805  1
  H  H113  1  0.61181801  0.94253254  0.10076105  1
  H  H114  1  0.38327707  0.05962426  0.59747240  1
  H  H115  1  0.37690098  0.39289768  0.60221796  1
  H  H116  1  0.36406988  0.71707577  0.62638598  1
  H  H117  1  0.88225617  0.05266273  0.59918803  1
  H  H118  1  0.87737548  0.39024982  0.61108510  1
  H  H119  1  0.86242478  0.72165636  0.61125453  1
  H  H120  1  0.12850211  0.11627528  0.37314373  1
  H  H121  1  0.12592974  0.45706407  0.38313532  1
  H  H122  1  0.13177456  0.78298542  0.38515989  1
  H  H123  1  0.61619261  0.11482745  0.38018606  1
  H  H124  1  0.62590594  0.44824834  0.38683733  1
  H  H125  1  0.64665740  0.77264846  0.41394147  1
  H  H126  1  0.37002239  0.21506026  0.87790395  1
  H  H127  1  0.38952226  0.55000855  0.87543865  1
  H  H128  1  0.37811181  0.88917607  0.89441489  1
  H  H129  1  0.87590296  0.22757706  0.89751068  1
  H  H130  1  0.91012778  0.54794893  0.89821463  1
  H  H131  1  0.88285509  0.88002301  0.87377486  1
  H  H132  1  0.36243661  0.11071503  0.09328280  1
  H  H133  1  0.40566583  0.44445830  0.10186653  1
  H  H134  1  0.37920068  0.79071612  0.13726450  1
  H  H135  1  0.86697081  0.11817150  0.11617857  1
  H  H136  1  0.88809399  0.44859386  0.11935088  1
  H  H137  1  0.87595537  0.77158395  0.08763722  1
  H  H138  1  0.14037836  0.22334589  0.58373970  1
  H  H139  1  0.12050509  0.55378342  0.63000905  1
  H  H140  1  0.11487424  0.87892856  0.62779384  1
  H  H141  1  0.62329310  0.21243354  0.63920430  1
  H  H142  1  0.61584212  0.55557965  0.61680677  1
  H  H143  1  0.59395474  0.88976925  0.60088010  1
  H  H144  1  0.08005424  0.24298696  0.49168583  1
  H  H145  1  0.09200682  0.59088626  0.49704432  1
  H  H146  1  0.08266967  0.39533365  0.50512012  1
  H  H147  1  0.73177910  0.75331835  0.51043896  1
  H  H148  1  0.87815838  0.75433031  0.48203175  1
  H  H149  1  0.92051270  0.09130853  0.99355499  1
  H  H150  1  0.20979687  0.57796235  1.00213672  1
  H  H151  1  0.44003480  0.41120430  0.49871033  1
  H  H152  1  0.45552088  0.58415554  0.50882251  1
  H  H153  1  0.92840655  0.40178997  0.49745843  1
  H  H154  1  0.76888094  0.25183191  0.48596763  1
  H  H155  1  0.58296733  0.74980188  -0.00198130  1
  H  H156  1  0.69950762  0.41427831  -0.00538812  1
  H  H157  1  0.91920377  0.24031972  0.49079885  1
  H  H158  1  0.53030901  0.75329036  0.49810374  1
  H  H159  1  0.68268345  0.45378313  0.49575789  1
  H  H160  1  0.54794540  0.91738012  -0.00802383  1
  H  H161  1  0.79947220  0.74746877  -0.00961497  1
  H  H162  1  0.55675096  0.24652193  -0.00540343  1
  H  H163  1  0.23065272  0.74920506  -0.00770836  1
  H  H164  1  0.71889122  0.91259441  1.00523825  1
  H  H165  1  0.59256154  0.39607102  0.50430434  1
  H  H166  1  0.28871352  0.08094372  -0.00587053  1
  H  H167  1  0.86396015  0.92059315  0.97843114  1
  H  H168  1  0.58153099  0.24230956  0.50493014  1
  H  H169  1  0.39287136  0.58676024  0.01249494  1
  H  H170  1  0.01236568  0.57047496  -0.02690164  1
  H  H171  1  0.80911566  0.44234363  0.50084399  1
  H  H172  1  0.35549114  0.24884186  0.99276414  1
  H  H173  1  0.50864072  0.42043386  1.02861017  1
  H  H174  1  0.46795904  0.08484834  1.00638187  1
  H  H175  1  0.63765145  0.08423301  0.49049180  1
  H  H176  1  0.48866561  0.91375479  0.52486706  1
  H  H177  1  0.41891351  0.23940866  0.50432460  1
  H  H178  1  0.55357785  0.58617031  -0.00023122  1
  H  H179  1  0.23081790  0.24659597  0.48514793  1
  H  H180  1  0.27895295  0.58855311  0.49170809  1
  H  H181  1  0.38275502  0.75543635  0.02425512  1
  H  H182  1  0.29567044  0.38370353  0.47602895  1
  H  H183  1  0.17056592  0.74615951  0.49452351  1
  H  H184  1  0.27202822  0.92302666  0.49396901  1
  H  H185  1  0.14616453  0.08675143  0.48902313  1
  H  H186  1  0.72409652  0.58902912  1.02624658  1
  H  H187  1  0.09076896  0.91492010  0.49997573  1
  H  H188  1  0.18242171  0.46113938  0.49136714  1
  H  H189  1  0.18198109  0.92385999  0.99554408  1
  H  H190  1  0.61573801  0.59202563  0.48708155  1
  H  H191  1  0.03932086  0.75562333  1.00333990  1
  Pb  Pb192  1  0.24826450  0.05175434  0.75529106  1
  Pb  Pb193  1  0.25076938  0.38120259  0.73604514  1
  Pb  Pb194  1  0.24321182  0.71517973  0.75737543  1
  Pb  Pb195  1  0.75364612  0.04749822  0.74143583  1
  Pb  Pb196  1  0.74551045  0.38301679  0.75594670  1
  Pb  Pb197  1  0.74390095  0.71974718  0.74508496  1
  Pb  Pb198  1  0.24525421  0.28208630  0.25297903  1
  Pb  Pb199  1  0.24144380  0.61385613  0.24271318  1
  Pb  Pb200  1  0.25079146  0.95223291  0.25925815  1
  Pb  Pb201  1  0.74686528  0.28481381  0.24675225  1
  Pb  Pb202  1  0.75282775  0.61923927  0.25695064  1
  Pb  Pb203  1  0.74959636  0.94989305  0.23908964  1
  Pb  Pb204  1  -0.00352106  0.21777382  0.73770489  1
  Pb  Pb205  1  -0.00528026  0.54712712  0.74601526  1
  Pb  Pb206  1  -0.00386941  0.88247793  0.73774649  1
  Pb  Pb207  1  0.50259677  0.21536353  0.75676936  1
  Pb  Pb208  1  0.50210017  0.55055575  0.75486965  1
  Pb  Pb209  1  0.49568321  0.88398349  0.75404058  1
  Pb  Pb210  1  -0.00809987  0.11706116  0.25658683  1
  Pb  Pb211  1  0.00026127  0.45189220  0.25292685  1
  Pb  Pb212  1  0.00364156  0.78396023  0.23669871  1
  Pb  Pb213  1  0.49849767  0.11522502  0.24092279  1
  Pb  Pb214  1  0.49719063  0.44960177  0.25711364  1
  Pb  Pb215  1  0.50189333  0.78406193  0.26595888  1
  C  C216  1  0.00244071  0.04281347  0.63424081  1
  C  C217  1  0.00168351  0.38090919  0.63534164  1
  C  C218  1  -0.01298044  0.71135359  0.63294024  1
  C  C219  1  0.50187750  0.04647106  0.63199395  1
  C  C220  1  0.49704614  0.37771992  0.63359765  1
  C  C221  1  0.49203330  0.71057462  0.63421070  1
  C  C222  1  -0.00260027  0.29423575  0.12739354  1
  C  C223  1  -0.03215016  0.61466508  0.10789360  1
  C  C224  1  -0.00753519  0.95624106  0.13109286  1
  C  C225  1  0.50080333  0.28933525  0.13205017  1
  C  C226  1  0.49053825  0.62537540  0.13676906  1
  C  C227  1  0.49260736  0.95341384  0.13218138  1
  C  C228  1  0.00746246  0.04614852  0.86869620  1
  C  C229  1  -0.00792288  0.37130347  0.87322616  1
  C  C230  1  0.00177851  0.71142220  0.86380527  1
  C  C231  1  0.50404726  0.04421075  0.86920857  1
  C  C232  1  0.46903415  0.37996116  0.89094186  1
  C  C233  1  0.49346519  0.71197943  0.86992852  1
  C  C234  1  -0.00070815  0.28655253  0.36193454  1
  C  C235  1  0.00569467  0.62202062  0.36622720  1
  C  C236  1  0.01057154  0.95923441  0.37533163  1
  C  C237  1  0.50035543  0.28232503  0.37772992  1
  C  C238  1  0.50141515  0.61878884  0.36664642  1
  C  C239  1  0.53135829  0.95419116  0.38839402  1
  C  C240  1  0.24897625  0.20715388  0.62993798  1
  C  C241  1  0.24882990  0.54718641  0.63007850  1
  C  C242  1  0.24274919  0.87559727  0.63003556  1
  C  C243  1  0.75152312  0.21255365  0.63087690  1
  C  C244  1  0.74239814  0.54769387  0.63370430  1
  C  C245  1  0.72057000  0.88621701  0.60502879  1
  C  C246  1  0.24480630  0.12572262  0.12853628  1
  C  C247  1  0.27890634  0.44898869  0.10516943  1
  C  C248  1  0.25106658  0.79285627  0.13058662  1
  C  C249  1  0.73928132  0.12350640  0.12959091  1
  C  C250  1  0.76030387  0.45382230  0.13264986  1
  C  C251  1  0.76070801  0.78538692  0.12729720  1
  C  C252  1  0.24358958  0.21410810  0.87213832  1
  C  C253  1  0.26276180  0.54010326  0.86331630  1
  C  C254  1  0.25409420  0.88105704  0.86959307  1
  C  C255  1  0.75423821  0.21045864  0.87153181  1
  C  C256  1  0.78322680  0.54656078  0.88878085  1
  C  C257  1  0.75485561  0.87608920  0.86882050  1
  C  C258  1  0.25458480  0.11828936  0.36734305  1
  C  C259  1  0.25107973  0.45516134  0.36483929  1
  C  C260  1  0.25826467  0.78829421  0.36894263  1
  C  C261  1  0.74372370  0.12126733  0.37334334  1
  C  C262  1  0.75062965  0.46005591  0.37027731  1
  C  C263  1  0.75944109  0.79185350  0.37245668  1
  C  C264  1  0.30462047  0.24002092  0.95982191  1
  C  C265  1  0.55592215  0.07277237  0.54395159  1
  C  C266  1  0.74806377  0.23924146  0.53206796  1
  C  C267  1  0.96263882  0.07961014  0.95697289  1
  C  C268  1  0.59522211  0.92321926  0.47237120  1
  C  C269  1  0.51583297  0.92857263  0.03430845  1
  C  C270  1  0.51918472  0.59684368  0.04116420  1
  C  C271  1  0.95851240  0.25478916  0.45359953  1
  C  C272  1  0.52272982  0.25923774  0.03544410  1
  C  C273  1  0.56535305  0.59878459  0.45416880  1
  C  C274  1  0.22398669  0.24376435  0.96814264  1
  C  C275  1  0.94859339  0.73880752  0.54035885  1
  C  C276  1  0.84049579  0.57148023  0.97878492  1
  C  C277  1  0.78196137  0.24999767  0.96142236  1
  C  C278  1  0.25198584  0.23370165  0.53101960  1
  C  C279  1  0.01272053  0.74174258  0.95932285  1
  C  C280  1  0.25796653  0.41667412  0.00836996  1
  C  C281  1  0.24056897  0.56867646  0.95839659  1
  C  C282  1  0.27540913  0.09073892  0.46405128  1
  C  C283  1  0.32897117  0.22639419  0.55085182  1
  C  C284  1  0.43772115  0.59688596  0.04759086  1
  C  C285  1  0.55087664  0.39762524  0.54292153  1
  C  C286  1  0.21278689  0.75785879  0.45806637  1
  C  C287  1  0.81406435  0.42727849  0.04367306  1
  C  C288  1  0.75813345  0.57659171  0.98520306  1
  C  C289  1  0.04904062  0.59817391  0.45843265  1
  C  C290  1  0.73319033  0.42594540  0.03618395  1
  C  C291  1  0.32750708  0.76348234  0.05338158  1
  C  C292  1  0.74172118  0.91676995  0.50811419  1
  C  C293  1  0.40418977  0.40857144  0.97499117  1
  C  C294  1  0.65904968  0.91195386  0.51677909  1
  C  C295  1  0.76379598  0.08555505  0.46806327  1
  C  C296  1  0.53904259  0.73911683  0.96254168  1
  C  C297  1  0.04047442  0.25602529  0.45402337  1
  C  C298  1  0.90466319  0.58335122  0.02337176  1
  C  C299  1  0.67115968  0.23303110  0.55232080  1
  C  C300  1  0.18356481  0.08999556  0.04523398  1
  C  C301  1  0.97257434  0.92053013  0.46531368  1
  C  C302  1  0.43522093  0.93181175  0.04305250  1
  C  C303  1  0.69693177  0.57862544  0.54433358  1
  C  C304  1  0.48446621  0.59482542  0.46503976  1
  C  C305  1  0.19469025  0.09441744  0.45599822  1
  C  C306  1  0.17981818  0.58002860  0.54941948  1
  C  C307  1  0.03089948  0.41250509  0.95980012  1
  C  C308  1  0.34045175  0.42064142  0.01819031  1
  C  C309  1  0.45764496  0.74001434  0.96399068  1
  C  C310  1  0.44221464  0.26242935  0.04471502  1
  C  C311  1  0.96421044  0.39798873  0.53934260  1
  N  N312  1  0.21753749  0.90891379  0.96034000  1
  N  N313  1  0.25111940  0.75582776  0.03746506  1
  N  N314  1  0.97022304  0.59398344  0.46111451  1
  N  N315  1  0.78618916  0.42383786  0.46089309  1
  N  N316  1  0.81752623  0.90233657  0.95213353  1
  N  N317  1  0.46155591  0.25719911  0.47012258  1
  N  N318  1  0.17381494  0.90871033  0.55049372  1
  N  N319  1  0.29559428  0.90947959  0.96216439  1
  N  N320  1  0.70469376  0.24632327  0.95976094  1
  N  N321  1  0.56817054  0.07111301  0.95397872  1
  N  N322  1  0.48353210  0.41628021  0.98440254  1
  N  N323  1  0.69631769  0.76245690  0.04131045  1
  N  N324  1  0.95958698  0.25793402  0.03727858  1
  N  N325  1  0.04394544  0.39828281  0.54177973  1
  N  N326  1  0.94980723  0.93235708  0.03793676  1
  N  N327  1  0.93478500  0.73710246  0.94879202  1
  N  N328  1  0.02634216  0.73945540  0.53861180  1
  N  N329  1  0.19923754  0.43314601  0.45596284  1
  N  N330  1  0.79297731  0.09299458  0.04194940  1
  N  N331  1  0.42926368  0.74232997  0.55064888  1
  N  N332  1  0.50621357  0.74502990  0.54199153  1
  N  N333  1  0.53885644  0.24547032  0.46608551  1
  N  N334  1  0.05133330  0.92263728  0.46331851  1
  N  N335  1  0.25689900  0.58229919  0.53634749  1
  N  N336  1  0.82745710  0.76905484  0.45434779  1
  N  N337  1  0.03570983  0.25799127  0.03742487  1
  N  N338  1  0.02637438  0.93003487  0.03634050  1
  N  N339  1  0.47194857  0.40434389  0.53873542  1
  N  N340  1  0.95352798  0.41441627  0.96115043  1
  N  N341  1  0.77411923  0.58007171  0.53911399  1
  N  N342  1  0.28254852  0.42521607  0.45883243  1
  N  N343  1  0.04164657  0.08233572  0.96098538  1
  N  N344  1  0.51548130  0.91670024  0.48106950  1
  N  N345  1  0.05349060  0.07356332  0.54611583  1
  N  N346  1  0.49140136  0.07490572  0.96289095  1
  N  N347  1  -0.01554117  0.57577783  0.01606691  1
  N  N348  1  0.26159417  0.08880717  0.03651934  1
  N  N349  1  0.29168290  0.75562432  0.46276496  1
  N  N350  1  0.71712691  0.08922963  0.03552003  1
  N  N351  1  0.75207454  0.75364685  0.46437868  1
  N  N352  1  0.70256818  0.42783782  0.45941982  1
  N  N353  1  0.24969542  0.91453602  0.53894357  1
  N  N354  1  0.31888757  0.57103240  0.95038743  1
  N  N355  1  0.68620964  0.09065901  0.45822735  1
  N  N356  1  0.97791488  0.07383877  0.53941406  1
  N  N357  1  0.47921468  0.07675357  0.53517930  1
  N  N358  1  0.77335534  0.75826702  0.03214581  1
  N  N359  1  0.74037324  0.91490331  0.96014102  1
  N  N360  1  0.07035251  0.05486174  0.60491172  1
  N  N361  1  0.06677316  0.38459105  0.60056390  1
  N  N362  1  0.04993216  0.72216740  0.59765524  1
  N  N363  1  0.57251914  0.05467618  0.60299983  1
  N  N364  1  0.56705013  0.38369721  0.60249960  1
  N  N365  1  0.54609877  0.72384360  0.59139648  1
  N  N366  1  0.42921059  0.28039735  0.10321803  1
  N  N367  1  0.42116479  0.61429212  0.10702500  1
  N  N368  1  0.42161450  0.94637526  0.10209022  1
  N  N369  1  0.93418707  0.28012352  0.09307345  1
  N  N370  1  0.89546599  0.60522088  0.08205231  1
  N  N371  1  0.92745729  0.94862304  0.09655651  1
  N  N372  1  0.45055405  0.05647710  0.91271673  1
  N  N373  1  0.39592420  0.38775578  0.91604215  1
  N  N374  1  0.43030283  0.72389461  0.90770995  1
  N  N375  1  0.94012631  0.05813792  0.90039290  1
  N  N376  1  0.92898051  0.38799975  0.90609157  1
  N  N377  1  0.93002798  0.71821338  0.88922002  1
  N  N378  1  0.06450539  0.27584758  0.39687667  1
  N  N379  1  0.07244267  0.61482034  0.40013636  1
  N  N380  1  0.07583234  0.94832037  0.40835774  1
  N  N381  1  0.56373621  0.26740565  0.41150014  1
  N  N382  1  0.57392770  0.61333240  0.39286415  1
  N  N383  1  0.60416786  0.94397233  0.41336927  1
  N  N384  1  0.32613845  0.21065396  0.61086049  1
  N  N385  1  0.30044135  0.55864915  0.58511898  1
  N  N386  1  0.29299392  0.89169339  0.58579017  1
  N  N387  1  0.79774988  0.22605146  0.58248993  1
  N  N388  1  0.80263747  0.56088799  0.59647226  1
  N  N389  1  0.77671870  0.90084673  0.56134399  1
  N  N390  1  0.17300157  0.11190799  0.10249102  1
  N  N391  1  0.22276734  0.43412599  0.06111259  1
  N  N392  1  0.20369364  0.77761148  0.08392659  1
  N  N393  1  0.68247379  0.10798738  0.08969129  1
  N  N394  1  0.70075665  0.44309156  0.09271018  1
  N  N395  1  0.68918900  0.77824893  0.10073904  1
  N  N396  1  0.18712557  0.22825427  0.91543730  1
  N  N397  1  0.20485498  0.55027582  0.90505802  1
  N  N398  1  0.19052052  0.89332950  0.90401667  1
  N  N399  1  0.68739385  0.22120195  0.90240628  1
  N  N400  1  0.72500235  0.56109455  0.92902308  1
  N  N401  1  0.70123314  0.88876443  0.91229598  1
  N  N402  1  0.31142560  0.10513688  0.41085128  1
  N  N403  1  0.30950872  0.43470443  0.40014086  1
  N  N404  1  0.31847979  0.77456504  0.40661365  1
  N  N405  1  0.79981101  0.10435249  0.41559544  1
  N  N406  1  0.81211172  0.44872638  0.40719340  1
  N  N407  1  0.83275998  0.78379402  0.39461810  1
  N  N408  1  0.43680561  0.27203306  0.41302819  1
  N  N409  1  0.44605391  0.60723658  0.41023518  1
  N  N410  1  0.47684318  0.94029508  0.43062107  1
  N  N411  1  0.93425420  0.27390714  0.39623674  1
  N  N412  1  0.94484987  0.60903864  0.40345138  1
  N  N413  1  0.94730641  0.94278521  0.41092574  1
  N  N414  1  0.06796615  0.06132697  0.90537389  1
  N  N415  1  0.05716369  0.38691234  0.90673153  1
  N  N416  1  0.05511292  0.72570014  0.90800637  1
  N  N417  1  0.57549217  0.05361120  0.89498825  1
  N  N418  1  0.52300403  0.39374604  0.93381921  1
  N  N419  1  0.56003492  0.72117990  0.90263206  1
  N  N420  1  0.06081074  0.28110636  0.09292875  1
  N  N421  1  0.02297984  0.59952040  0.06655962  1
  N  N422  1  0.05393681  0.94468076  0.09411911  1
  N  N423  1  0.55828014  0.27641359  0.09133038  1
  N  N424  1  0.55057328  0.61429435  0.09724814  1
  N  N425  1  0.55068581  0.94245338  0.09109475  1
  N  N426  1  0.44552738  0.06009336  0.59137158  1
  N  N427  1  0.43849027  0.38913444  0.59389925  1
  N  N428  1  0.42103407  0.72227302  0.60865839  1
  N  N429  1  0.94460117  0.05445029  0.59362705  1
  N  N430  1  0.93774655  0.38878892  0.59757480  1
  N  N431  1  0.92185051  0.72223294  0.59776497  1
  N  N432  1  0.18329797  0.11165270  0.39461136  1
  N  N433  1  0.18480515  0.45670891  0.39847192  1
  N  N434  1  0.19057723  0.77756438  0.40072752  1
  N  N435  1  0.67311360  0.11376712  0.40008860  1
  N  N436  1  0.68440109  0.45072754  0.40245219  1
  N  N437  1  0.70899473  0.77707150  0.41748620  1
  N  N438  1  0.31503316  0.22153959  0.89881676  1
  N  N439  1  0.33140437  0.55271564  0.89142410  1
  N  N440  1  0.31784879  0.89148671  0.90540301  1
  N  N441  1  0.81505637  0.22872174  0.90845285  1
  N  N442  1  0.85350663  0.55244027  0.91785344  1
  N  N443  1  0.82643042  0.88747225  0.89258892  1
  N  N444  1  0.30038493  0.11301017  0.08682751  1
  N  N445  1  0.35052945  0.44087837  0.07936515  1
  N  N446  1  0.32721134  0.78430150  0.11185624  1
  N  N447  1  0.80801396  0.11444251  0.10018329  1
  N  N448  1  0.83032241  0.44402198  0.10165825  1
  N  N449  1  0.81407508  0.77336496  0.08363982  1
  N  N450  1  0.20257750  0.22168913  0.58189430  1
  N  N451  1  0.17461900  0.55975799  0.60783227  1
  N  N452  1  0.16965923  0.88649261  0.60794886  1
  N  N453  1  0.67423478  0.21723592  0.61230430  1
  N  N454  1  0.67459497  0.55961500  0.60168920  1
  N  N455  1  0.64889715  0.89305510  0.57857646  1
  Cl  Cl456  1  0.25823456  0.05485737  0.62237708  1
  Cl  Cl457  1  0.25231091  0.39881436  0.59986223  1
  Cl  Cl458  1  0.23523514  0.72012624  0.62457360  1
  Cl  Cl459  1  0.75860851  0.05327814  0.60556028  1
  Cl  Cl460  1  0.75351127  0.40334678  0.61273769  1
  Cl  Cl461  1  0.73043075  0.73800099  0.60280847  1
  Cl  Cl462  1  0.24373514  0.28200121  0.12075507  1
  Cl  Cl463  1  0.21276468  0.60023824  0.10951522  1
  Cl  Cl464  1  0.23618486  0.94627972  0.12318680  1
  Cl  Cl465  1  0.74814461  0.28213370  0.11493225  1
  Cl  Cl466  1  0.72738028  0.62454015  0.12378884  1
  Cl  Cl467  1  0.73890331  0.93371241  0.10190283  1
  Cl  Cl468  1  0.26453658  0.06091723  0.89861547  1
  Cl  Cl469  1  0.23011077  0.38341501  0.86744065  1
  Cl  Cl470  1  0.24074889  0.72987026  0.89804869  1
  Cl  Cl471  1  0.75612455  0.04662047  0.87092112  1
  Cl  Cl472  1  0.72713901  0.39297441  0.88823883  1
  Cl  Cl473  1  0.74567354  0.72535871  0.88001259  1
  Cl  Cl474  1  0.25475497  0.28978630  0.38955598  1
  Cl  Cl475  1  0.26146900  0.60395372  0.39570253  1
  Cl  Cl476  1  0.28835911  0.93852052  0.40350770  1
  Cl  Cl477  1  0.74661064  0.27607112  0.38272841  1
  Cl  Cl478  1  0.76035601  0.61568052  0.38419495  1
  Cl  Cl479  1  0.77292625  0.94906215  0.37159215  1
  Cl  Cl480  1  -0.00047531  0.22573097  0.60215353  1
  Cl  Cl481  1  -0.01238968  0.55131717  0.61819152  1
  Cl  Cl482  1  -0.03274788  0.89097753  0.60370305  1
  Cl  Cl483  1  0.49968117  0.22360975  0.62428447  1
  Cl  Cl484  1  0.48448445  0.56028021  0.61799916  1
  Cl  Cl485  1  0.46933449  0.89634155  0.61472733  1
  Cl  Cl486  1  -0.00954758  0.11536799  0.12219995  1
  Cl  Cl487  1  0.02001654  0.45017263  0.12364194  1
  Cl  Cl488  1  0.01128899  0.76982340  0.10022369  1
  Cl  Cl489  1  0.48671966  0.10724282  0.09895554  1
  Cl  Cl490  1  0.52389997  0.43833119  0.11997108  1
  Cl  Cl491  1  0.50985622  0.78140268  0.13565049  1
  Cl  Cl492  1  0.00115423  0.22733190  0.87212918  1
  Cl  Cl493  1  0.02945099  0.55179190  0.88254644  1
  Cl  Cl494  1  0.00932124  0.88445818  0.87172972  1
  Cl  Cl495  1  0.50340241  0.21842515  0.88708309  1
  Cl  Cl496  1  0.53488939  0.55470691  0.88756140  1
  Cl  Cl497  1  0.51327411  0.89104090  0.88742913  1
  Cl  Cl498  1  -0.01657885  0.10616407  0.38398393  1
  Cl  Cl499  1  -0.00293539  0.44003490  0.39257580  1
  Cl  Cl500  1  0.00979467  0.79029136  0.36825617  1
  Cl  Cl501  1  0.49221981  0.10829284  0.37289123  1
  Cl  Cl502  1  0.49434107  0.43298616  0.39612128  1
  Cl  Cl503  1  0.52333961  0.77529025  0.40595264  1
  Cl  Cl504  1  0.36453780  0.14990804  0.75426622  1
  Cl  Cl505  1  0.36186712  0.48157847  0.75068488  1
  Cl  Cl506  1  0.35742388  0.81553182  0.75254354  1
  Cl  Cl507  1  0.85860325  0.15189387  0.74967511  1
  Cl  Cl508  1  0.85664475  0.48397270  0.76317118  1
  Cl  Cl509  1  0.86740979  0.81168303  0.75466820  1
  Cl  Cl510  1  0.13807882  0.18796442  0.26069979  1
  Cl  Cl511  1  0.14149455  0.51829392  0.26206095  1
  Cl  Cl512  1  0.14313929  0.84968371  0.24977392  1
  Cl  Cl513  1  0.63202644  0.18510717  0.25437931  1
  Cl  Cl514  1  0.63850602  0.51914815  0.25909087  1
  Cl  Cl515  1  0.64360640  0.84698794  0.25696144  1
  Cl  Cl516  1  0.14311353  0.14673975  0.75294429  1
  Cl  Cl517  1  0.13582097  0.47968673  0.73716069  1
  Cl  Cl518  1  0.13536776  0.81593438  0.74538906  1
  Cl  Cl519  1  0.63685036  0.14477790  0.75162566  1
  Cl  Cl520  1  0.63039467  0.47979529  0.73610553  1
  Cl  Cl521  1  0.64776695  0.81894583  0.73986122  1
  Cl  Cl522  1  0.36076705  0.18373236  0.24519073  1
  Cl  Cl523  1  0.36253133  0.51790388  0.23798046  1
  Cl  Cl524  1  0.36516051  0.85306399  0.25149939  1
  Cl  Cl525  1  0.85236046  0.18044392  0.25183146  1
  Cl  Cl526  1  0.85902165  0.51639453  0.24678499  1
  Cl  Cl527  1  0.86225065  0.84910592  0.24394418  1
  Cl  Cl528  1  0.11393429  0.31521109  0.74045336  1
  Cl  Cl529  1  0.10672148  0.64753682  0.74277468  1
  Cl  Cl530  1  0.11724676  0.97927597  0.74570088  1
  Cl  Cl531  1  0.61361548  0.31390788  0.74456520  1
  Cl  Cl532  1  0.60850491  0.65384933  0.74944162  1
  Cl  Cl533  1  0.61687178  0.97836383  0.73829736  1
  Cl  Cl534  1  0.38324914  0.01696317  0.24174630  1
  Cl  Cl535  1  0.39404065  0.35192607  0.25258549  1
  Cl  Cl536  1  0.38733618  0.68611504  0.25350164  1
  Cl  Cl537  1  0.88935071  0.01445730  0.24332191  1
  Cl  Cl538  1  0.88767195  0.35120290  0.25217854  1
  Cl  Cl539  1  0.89385989  0.68130245  0.23667702  1
  Cl  Cl540  1  0.39051956  0.31605959  0.75599244  1
  Cl  Cl541  1  0.38423249  0.64891385  0.75660945  1
  Cl  Cl542  1  0.39686791  0.98167514  0.75570974  1
  Cl  Cl543  1  0.88793320  0.31851507  0.74390115  1
  Cl  Cl544  1  0.88535517  0.64467915  0.75896293  1
  Cl  Cl545  1  0.89501208  0.98595641  0.75619499  1
  Cl  Cl546  1  0.11330660  0.02100852  0.26037550  1
  Cl  Cl547  1  0.11278669  0.35220004  0.25711617  1
  Cl  Cl548  1  0.11201178  0.68186462  0.25316002  1
  Cl  Cl549  1  0.60557456  0.01228214  0.25551046  1
  Cl  Cl550  1  0.61001935  0.35166695  0.26510690  1
  Cl  Cl551  1  0.61172610  0.68360232  0.25792924  1
