# generated using pymatgen
data_H8PbC4(N3Cl2)2
_symmetry_space_group_name_H-M   'P 1'
_cell_length_a   16.62883695
_cell_length_b   22.51887579
_cell_length_c   21.59628880
_cell_angle_alpha   90.00100350
_cell_angle_beta   89.99222670
_cell_angle_gamma   89.99128708
_symmetry_Int_Tables_number   1
_chemical_formula_structural   H8PbC4(N3Cl2)2
_chemical_formula_sum   'H192 Pb24 C96 N144 Cl96'
_cell_volume   8087.00474343
_cell_formula_units_Z   24
loop_
 _symmetry_equiv_pos_site_id
 _symmetry_equiv_pos_as_xyz
  1  'x, y, z'
loop_
 _atom_site_type_symbol
 _atom_site_label
 _atom_site_symmetry_multiplicity
 _atom_site_fract_x
 _atom_site_fract_y
 _atom_site_fract_z
 _atom_site_occupancy
  H  H0  1  -0.00127439  0.02720101  0.67732697  1
  H  H1  1  0.00695458  0.36380213  0.67403334  1
  H  H2  1  -0.01037214  0.69265553  0.67105201  1
  H  H3  1  0.49622168  0.02978055  0.68175476  1
  H  H4  1  0.50162991  0.36003966  0.67566728  1
  H  H5  1  0.50792683  0.69843129  0.68222612  1
  H  H6  1  -0.01636660  0.30107933  0.17850615  1
  H  H7  1  -0.00851550  0.63535534  0.17788870  1
  H  H8  1  0.00865900  0.96837238  0.17907045  1
  H  H9  1  0.51326460  0.30410169  0.17562167  1
  H  H10  1  0.50874950  0.63653375  0.17694389  1
  H  H11  1  0.49742110  0.96931179  0.17765333  1
  H  H12  1  0.00382875  0.02781820  0.81766836  1
  H  H13  1  0.00032421  0.36273030  0.82248167  1
  H  H14  1  0.01113325  0.70152517  0.82018378  1
  H  H15  1  0.50021530  0.02918885  0.81935297  1
  H  H16  1  0.48952338  0.36295429  0.82364201  1
  H  H17  1  0.48565009  0.69292602  0.82157594  1
  H  H18  1  -0.00637684  0.30595492  0.32376707  1
  H  H19  1  0.00144303  0.63993291  0.32773089  1
  H  H20  1  0.01331543  0.97079485  0.32642510  1
  H  H21  1  0.51130197  0.30034883  0.32267223  1
  H  H22  1  0.49458302  0.63644999  0.31569473  1
  H  H23  1  0.49073483  0.97169193  0.31846851  1
  H  H24  1  0.23443642  0.19749855  0.67237637  1
  H  H25  1  0.25831307  0.53000853  0.68060379  1
  H  H26  1  0.24596334  0.85712693  0.67792177  1
  H  H27  1  0.76152575  0.19289852  0.67584736  1
  H  H28  1  0.74216963  0.52824752  0.68176449  1
  H  H29  1  0.74546361  0.86286987  0.67996564  1
  H  H30  1  0.23098015  0.13453212  0.18075429  1
  H  H31  1  0.24944323  0.47056933  0.17905609  1
  H  H32  1  0.26383121  0.80016328  0.18177031  1
  H  H33  1  0.76508052  0.13432023  0.17809353  1
  H  H34  1  0.75010049  0.46899040  0.17656444  1
  H  H35  1  0.73562649  0.80495876  0.17955736  1
  H  H36  1  0.24419054  0.19861516  0.82630619  1
  H  H37  1  0.23299945  0.52755296  0.82336743  1
  H  H38  1  0.26073908  0.86904444  0.82120347  1
  H  H39  1  0.75431772  0.19569218  0.82351447  1
  H  H40  1  0.75748565  0.52698743  0.82184117  1
  H  H41  1  0.74733322  0.86513503  0.82642519  1
  H  H42  1  0.26027758  0.14014440  0.32450213  1
  H  H43  1  0.24695587  0.46730594  0.32249506  1
  H  H44  1  0.26261803  0.80668510  0.32285008  1
  H  H45  1  0.74007370  0.14118134  0.32451753  1
  H  H46  1  0.74554745  0.47423623  0.32559394  1
  H  H47  1  0.74494476  0.80329630  0.32024634  1
  H  H48  1  0.12888616  0.05161145  0.61254837  1
  H  H49  1  0.11614165  0.38815865  0.59323707  1
  H  H50  1  0.12468581  0.71904007  0.61472421  1
  H  H51  1  0.63113228  0.05241871  0.62026550  1
  H  H52  1  0.60814214  0.39142935  0.59296803  1
  H  H53  1  0.61843599  0.72388175  0.60066647  1
  H  H54  1  0.37386858  0.28501108  0.12307867  1
  H  H55  1  0.37807035  0.61240577  0.11370147  1
  H  H56  1  0.39140090  0.94271390  0.09432626  1
  H  H57  1  0.88475721  0.27293778  0.09093793  1
  H  H58  1  0.88550326  0.60667904  0.09252094  1
  H  H59  1  0.88303204  0.94609559  0.11067531  1
  H  H60  1  0.38044880  0.05710272  0.89366890  1
  H  H61  1  0.38561141  0.39286470  0.90858843  1
  H  H62  1  0.37098722  0.71656088  0.90051806  1
  H  H63  1  0.87702369  0.05145769  0.88435541  1
  H  H64  1  0.88131540  0.38886138  0.89724569  1
  H  H65  1  0.87160484  0.71942791  0.87183546  1
  H  H66  1  0.11954314  0.28190501  0.39374699  1
  H  H67  1  0.12874055  0.61364765  0.39386381  1
  H  H68  1  0.11864569  0.94188154  0.40727205  1
  H  H69  1  0.61907825  0.27345689  0.40288455  1
  H  H70  1  0.62981466  0.61609810  0.37362676  1
  H  H71  1  0.61867666  0.94765110  0.38697222  1
  H  H72  1  0.37635215  0.21690782  0.62215621  1
  H  H73  1  0.36251355  0.55720506  0.59566258  1
  H  H74  1  0.37563615  0.88479193  0.61288546  1
  H  H75  1  0.87733526  0.22386408  0.60076568  1
  H  H76  1  0.86752489  0.55496457  0.61162666  1
  H  H77  1  0.87893961  0.88217605  0.61994473  1
  H  H78  1  0.12737367  0.10965557  0.09550251  1
  H  H79  1  0.12211261  0.44936691  0.10980184  1
  H  H80  1  0.13046441  0.78457117  0.11901130  1
  H  H81  1  0.61960760  0.12201312  0.13197106  1
  H  H82  1  0.61532645  0.44577667  0.11632921  1
  H  H83  1  0.62906788  0.77560693  0.09639272  1
  H  H84  1  0.12264892  0.22573241  0.89719025  1
  H  H85  1  0.12457012  0.55977280  0.90388359  1
  H  H86  1  0.11905595  0.88296180  0.87409303  1
  H  H87  1  0.61896738  0.21968307  0.88156183  1
  H  H88  1  0.62017618  0.55045617  0.87753741  1
  H  H89  1  0.61240889  0.88479242  0.88313748  1
  H  H90  1  0.36225497  0.10744273  0.40942893  1
  H  H91  1  0.38080233  0.44596073  0.38359219  1
  H  H92  1  0.37316260  0.77472675  0.40379630  1
  H  H93  1  0.87114347  0.11544841  0.38707066  1
  H  H94  1  0.88662752  0.44985222  0.37531014  1
  H  H95  1  0.87862757  0.78428285  0.38169341  1
  H  H96  1  0.37242321  0.28429976  0.37790857  1
  H  H97  1  0.38199374  0.61271709  0.39488946  1
  H  H98  1  0.36923345  0.94667605  0.39099185  1
  H  H99  1  0.87048143  0.27775431  0.39317537  1
  H  H100  1  0.88056473  0.60944647  0.39808822  1
  H  H101  1  0.87384623  0.95378593  0.37843999  1
  H  H102  1  0.12656659  0.05656711  0.88905589  1
  H  H103  1  0.13035541  0.38831820  0.88566147  1
  H  H104  1  0.11666765  0.72033745  0.90583950  1
  H  H105  1  0.62880393  0.05212236  0.88570604  1
  H  H106  1  0.63040479  0.38130808  0.87602097  1
  H  H107  1  0.61775305  0.72007495  0.88119648  1
  H  H108  1  0.12797268  0.28306343  0.13047790  1
  H  H109  1  0.13081632  0.61745243  0.12141264  1
  H  H110  1  0.13251330  0.94309510  0.10739115  1
  H  H111  1  0.61766029  0.27286834  0.09068020  1
  H  H112  1  0.62641901  0.60903764  0.10041559  1
  H  H113  1  0.63733204  0.95181876  0.12563272  1
  H  H114  1  0.38330799  0.05727580  0.60292777  1
  H  H115  1  0.36227148  0.37844423  0.62000677  1
  H  H116  1  0.37118795  0.71812962  0.62283968  1
  H  H117  1  0.88057288  0.05568919  0.60184957  1
  H  H118  1  0.87118852  0.38225626  0.62003583  1
  H  H119  1  0.87762522  0.72650293  0.59459207  1
  H  H120  1  0.11785408  0.11902906  0.37350550  1
  H  H121  1  0.13403912  0.44023600  0.40056734  1
  H  H122  1  0.12707031  0.78528185  0.38371614  1
  H  H123  1  0.62278566  0.11187122  0.39940393  1
  H  H124  1  0.64178481  0.43901798  0.40878580  1
  H  H125  1  0.63020842  0.77766066  0.39590200  1
  H  H126  1  0.37135893  0.22324712  0.89315030  1
  H  H127  1  0.37089232  0.54897376  0.87960177  1
  H  H128  1  0.36131670  0.89274282  0.90979796  1
  H  H129  1  0.86638807  0.22528873  0.90269047  1
  H  H130  1  0.86580296  0.55656105  0.90547664  1
  H  H131  1  0.85968591  0.89156823  0.90486126  1
  H  H132  1  0.37201019  0.11833393  0.13118584  1
  H  H133  1  0.37093595  0.44333161  0.10703368  1
  H  H134  1  0.37735134  0.77317746  0.10369542  1
  H  H135  1  0.86178163  0.10636591  0.09043785  1
  H  H136  1  0.86234050  0.44226833  0.09590977  1
  H  H137  1  0.87489703  0.78394851  0.12413336  1
  H  H138  1  0.13315414  0.23027620  0.58838710  1
  H  H139  1  0.11767032  0.54757032  0.62634307  1
  H  H140  1  0.12731409  0.88761167  0.60285539  1
  H  H141  1  0.62894605  0.21794223  0.61383517  1
  H  H142  1  0.61932980  0.55384298  0.60837706  1
  H  H143  1  0.63082983  0.88901503  0.60343621  1
  H  H144  1  0.16588659  0.42014494  0.00056401  1
  H  H145  1  0.09370719  0.75453949  0.50773645  1
  H  H146  1  0.96473502  0.24627245  -0.01048858  1
  H  H147  1  0.08719736  0.57556780  0.49580270  1
  H  H148  1  0.41652385  0.57710780  0.00455902  1
  H  H149  1  0.91948599  0.08221967  0.99519373  1
  H  H150  1  0.28202942  0.08175600  0.50763106  1
  H  H151  1  0.44385936  0.58791895  0.50300529  1
  H  H152  1  0.79691185  0.25208126  1.00519565  1
  H  H153  1  0.38562933  0.41489468  0.51383421  1
  H  H154  1  0.53205647  0.40940530  0.49191496  1
  H  H155  1  0.57176265  0.77454623  0.97466218  1
  H  H156  1  0.60451359  0.58935823  0.48728447  1
  H  H157  1  0.36010597  0.08927832  0.01650116  1
  H  H158  1  0.55178019  0.24354158  0.50906637  1
  H  H159  1  0.20186550  0.08503037  -0.00939853  1
  H  H160  1  0.44894610  0.08633925  0.49767177  1
  H  H161  1  0.59141741  0.08502846  0.99553443  1
  H  H162  1  0.93777194  0.59096693  0.50324200  1
  H  H163  1  0.27983797  0.91879048  1.00758355  1
  H  H164  1  0.85477102  0.91457879  0.50740881  1
  H  H165  1  0.04488798  0.74227220  1.01186695  1
  H  H166  1  0.78995279  0.58343156  1.00445907  1
  H  H167  1  0.36299968  0.24893350  0.51141451  1
  H  H168  1  0.68926399  0.91970656  0.49653353  1
  H  H169  1  0.54898346  0.75080176  0.49575265  1
  H  H170  1  0.88734311  0.74681839  -0.01321381  1
  H  H171  1  0.33042112  0.25210733  0.99936873  1
  H  H172  1  0.70324240  0.74808557  -0.00691850  1
  H  H173  1  0.09040192  0.08089449  0.50193126  1
  H  H174  1  0.94089344  0.42020545  1.00044558  1
  H  H175  1  0.30485444  0.72545602  0.01471719  1
  H  H176  1  0.69015368  0.74823111  0.50538892  1
  H  H177  1  0.78009366  0.07826125  -0.01125012  1
  H  H178  1  0.88990903  0.41227321  0.50313712  1
  H  H179  1  0.72009429  0.41459397  0.50883882  1
  H  H180  1  0.64580325  0.41789804  0.00732272  1
  H  H181  1  0.44165748  0.72706801  1.00272958  1
  H  H182  1  0.17522566  0.78194935  0.00911894  1
  H  H183  1  0.42271285  0.91350663  0.49766860  1
  H  H184  1  0.07268275  0.07708754  0.99569101  1
  H  H185  1  0.11846241  0.25752799  0.02041556  1
  H  H186  1  0.92663866  0.91418713  0.00069593  1
  H  H187  1  0.28725872  0.58570107  0.49375783  1
  H  H188  1  0.96291453  0.58106730  -0.00615959  1
  H  H189  1  0.08453907  0.91555588  0.00296092  1
  H  H190  1  0.63263972  0.92067848  0.00454604  1
  H  H191  1  0.46333247  0.91669082  -0.01099471  1
  Pb  Pb192  1  0.24428799  0.05203096  0.74705094  1
  Pb  Pb193  1  0.24689836  0.38134497  0.75251233  1
  Pb  Pb194  1  0.24409272  0.71284318  0.76506582  1
  Pb  Pb195  1  0.75006400  0.04732653  0.74806973  1
  Pb  Pb196  1  0.74225431  0.38210439  0.74352846  1
  Pb  Pb197  1  0.74114546  0.71751845  0.74476402  1
  Pb  Pb198  1  0.25118343  0.28574982  0.25299298  1
  Pb  Pb199  1  0.25698804  0.61664221  0.25448567  1
  Pb  Pb200  1  0.25684482  0.95067063  0.24622333  1
  Pb  Pb201  1  0.75568982  0.28310636  0.24374169  1
  Pb  Pb202  1  0.75886988  0.61585225  0.24182836  1
  Pb  Pb203  1  0.75289301  0.95318098  0.25254409  1
  Pb  Pb204  1  -0.00626819  0.21797056  0.74673334  1
  Pb  Pb205  1  -0.00825665  0.55038205  0.75540145  1
  Pb  Pb206  1  -0.00360218  0.88029423  0.75572989  1
  Pb  Pb207  1  0.49846749  0.21388137  0.75074518  1
  Pb  Pb208  1  0.49311382  0.54822746  0.74249486  1
  Pb  Pb209  1  0.49110681  0.88368532  0.74977030  1
  Pb  Pb210  1  0.00285111  0.11618043  0.23577656  1
  Pb  Pb211  1  0.00633396  0.45070451  0.24154501  1
  Pb  Pb212  1  0.00508685  0.78453142  0.25217719  1
  Pb  Pb213  1  0.50090421  0.12005092  0.26198259  1
  Pb  Pb214  1  0.50697763  0.44944063  0.25925828  1
  Pb  Pb215  1  0.50787521  0.78263357  0.24705921  1
  C  C216  1  0.00280398  0.04384875  0.63037342  1
  C  C217  1  -0.00283913  0.37839856  0.62684806  1
  C  C218  1  -0.00223885  0.71177842  0.62545519  1
  C  C219  1  0.50384778  0.04536635  0.63462862  1
  C  C220  1  0.49042446  0.37615759  0.62897538  1
  C  C221  1  0.49898227  0.71318915  0.63489266  1
  C  C222  1  -0.00021826  0.28670199  0.13196638  1
  C  C223  1  0.00217887  0.62036145  0.13086850  1
  C  C224  1  0.00867868  0.95298062  0.13132610  1
  C  C225  1  0.50182607  0.28805259  0.12926046  1
  C  C226  1  0.50458047  0.61934885  0.13014619  1
  C  C227  1  0.50875851  0.95461791  0.13059188  1
  C  C228  1  0.00322642  0.04419179  0.86510467  1
  C  C229  1  0.00361416  0.37953477  0.86942091  1
  C  C230  1  -0.00072052  0.71399533  0.86791531  1
  C  C231  1  0.50301755  0.04577117  0.86644786  1
  C  C232  1  0.50187378  0.37873317  0.86997690  1
  C  C233  1  0.49150807  0.70934975  0.86866042  1
  C  C234  1  -0.00523318  0.28915978  0.37066447  1
  C  C235  1  0.00350327  0.62128152  0.37412898  1
  C  C236  1  0.00147904  0.95505302  0.37293671  1
  C  C237  1  0.50109127  0.28577845  0.36992638  1
  C  C238  1  0.50250922  0.62176383  0.36324099  1
  C  C239  1  0.49303152  0.95528082  0.36565623  1
  C  C240  1  0.24863314  0.21392769  0.62648503  1
  C  C241  1  0.24573254  0.54404301  0.63351062  1
  C  C242  1  0.24945332  0.87587164  0.63172790  1
  C  C243  1  0.75567159  0.21100408  0.62968289  1
  C  C244  1  0.74302704  0.54479548  0.63454386  1
  C  C245  1  0.75190118  0.87836311  0.63256294  1
  C  C246  1  0.24403130  0.12051254  0.13364610  1
  C  C247  1  0.24722050  0.45475288  0.13169891  1
  C  C248  1  0.25692880  0.78603426  0.13400655  1
  C  C249  1  0.74889732  0.12100643  0.13141483  1
  C  C250  1  0.74217763  0.45295732  0.12958363  1
  C  C251  1  0.74681497  0.78865180  0.13304699  1
  C  C252  1  0.24650498  0.21535308  0.87343758  1
  C  C253  1  0.24315043  0.54504161  0.86931832  1
  C  C254  1  0.24687061  0.88218197  0.86838779  1
  C  C255  1  0.74684458  0.21213828  0.87021637  1
  C  C256  1  0.74838946  0.54343926  0.86844224  1
  C  C257  1  0.73930899  0.88053080  0.87360522  1
  C  C258  1  0.24707388  0.12345998  0.37051553  1
  C  C259  1  0.25449165  0.45214330  0.36957929  1
  C  C260  1  0.25458081  0.79067224  0.36986734  1
  C  C261  1  0.74472110  0.12337086  0.37080327  1
  C  C262  1  0.75756000  0.45642939  0.37138031  1
  C  C263  1  0.75109621  0.78873253  0.36780137  1
  C  C264  1  0.44173729  0.26082025  0.04346999  1
  C  C265  1  0.78280297  0.24516142  0.53737125  1
  C  C266  1  0.49229402  0.92794711  0.03281577  1
  C  C267  1  0.76489660  0.90938579  0.96857725  1
  C  C268  1  0.22922145  0.42269030  0.46447106  1
  C  C269  1  0.75533428  0.09259642  0.03293705  1
  C  C270  1  0.45941597  0.58857482  0.04089284  1
  C  C271  1  0.56155437  0.40509529  0.95573890  1
  C  C272  1  0.01974867  0.40579691  0.53053003  1
  C  C273  1  0.43967636  0.26128374  0.45693909  1
  C  C274  1  0.54608638  0.07402255  0.95756513  1
  C  C275  1  0.97094815  0.74934902  0.53243434  1
  C  C276  1  0.20737821  0.42889912  0.03928520  1
  C  C277  1  0.30974544  0.09736981  0.04780112  1
  C  C278  1  0.52018239  0.25669865  0.46702280  1
  C  C279  1  0.05366708  0.41117333  0.95895572  1
  C  C280  1  0.98959581  0.25822690  0.03464611  1
  C  C281  1  0.25942813  0.57199205  0.53722198  1
  C  C282  1  0.01664029  0.73580162  0.96699300  1
  C  C283  1  0.04695339  0.07120200  0.53956407  1
  C  C284  1  0.71633191  0.08953511  0.46286373  1
  C  C285  1  0.47655332  0.59718760  0.46045875  1
  C  C286  1  0.73093635  0.76015276  0.03713470  1
  C  C287  1  0.69002035  0.24371807  0.95734302  1
  C  C288  1  0.95870342  0.25744134  0.46201324  1
  C  C289  1  0.82256345  0.42490557  0.45459044  1
  C  C290  1  0.93951205  0.92803711  0.45814530  1
  C  C291  1  0.80588059  0.90479415  0.54286853  1
  C  C292  1  0.72417771  0.90727768  0.53702205  1
  C  C293  1  0.48079291  0.07423858  0.53995995  1
  C  C294  1  0.93606118  0.73675144  0.95475673  1
  C  C295  1  0.22924544  0.09493233  0.03515935  1
  C  C296  1  0.95860974  0.07312368  0.95598740  1
  C  C297  1  0.23435659  0.24829800  0.53058452  1
  C  C298  1  0.68406330  0.90750989  0.96226991  1
  C  C299  1  0.96615230  0.92535125  0.03918912  1
  C  C300  1  0.80485945  0.76296994  0.45729004  1
  C  C301  1  0.72382380  0.76013829  0.46397195  1
  C  C302  1  0.55814981  0.59818271  0.45294277  1
  C  C303  1  0.20827973  0.24488531  0.96722489  1
  C  C304  1  0.93882439  0.40377246  0.53791824  1
  C  C305  1  0.51870049  0.73977585  0.53895162  1
  C  C306  1  0.22392902  0.57991268  0.96282360  1
  C  C307  1  0.57264059  0.93107612  0.04452082  1
  C  C308  1  0.45984755  0.92527046  0.45812746  1
  C  C309  1  0.67680773  0.09909224  0.04878346  1
  C  C310  1  0.18010468  0.09291958  0.45309274  1
  C  C311  1  0.01874655  0.92367944  0.46750561  1
  N  N312  1  0.31124739  0.24202529  0.54256884  1
  N  N313  1  0.21872801  0.91038931  0.53928892  1
  N  N314  1  0.76921739  0.42506984  0.03392223  1
  N  N315  1  0.27665939  0.75879384  0.46486275  1
  N  N316  1  0.20084351  0.76315403  0.45848331  1
  N  N317  1  0.43130426  0.39807729  0.54291171  1
  N  N318  1  0.29515421  0.90912906  0.54244862  1
  N  N319  1  0.18144761  0.56672180  0.54661060  1
  N  N320  1  0.03587674  0.25869917  0.46341311  1
  N  N321  1  0.76836067  0.24444318  0.96349415  1
  N  N322  1  0.74478816  0.42154001  0.46482443  1
  N  N323  1  0.25670918  0.90537441  0.96478560  1
  N  N324  1  0.53843780  0.58809800  0.03582206  1
  N  N325  1  0.20372741  0.76132211  0.04537858  1
  N  N326  1  0.46694479  0.07522114  0.96080248  1
  N  N327  1  0.04720455  0.59446854  0.46423770  1
  N  N328  1  0.70657261  0.57441801  0.54139635  1
  N  N329  1  0.28651160  0.42587316  0.03795832  1
  N  N330  1  0.78292571  0.57467119  0.54231820  1
  N  N331  1  0.80893353  0.76279913  0.04659433  1
  N  N332  1  0.28760432  0.24388550  0.96475545  1
  N  N333  1  0.98782239  0.59213259  0.03641867  1
  N  N334  1  0.79347629  0.09042956  0.46026051  1
  N  N335  1  0.70549320  0.24373207  0.54026226  1
  N  N336  1  0.28563027  0.76231316  0.03859906  1
  N  N337  1  0.04939359  0.74560277  0.53985423  1
  N  N338  1  0.69168008  0.42600259  0.04204810  1
  N  N339  1  0.76473283  0.57502695  0.96138990  1
  N  N340  1  0.51778483  0.25579746  0.03227264  1
  N  N341  1  0.48544781  0.40943812  0.96735314  1
  N  N342  1  0.30650188  0.42606335  0.46038073  1
  N  N343  1  0.04580105  0.92511717  0.03918683  1
  N  N344  1  0.96809013  0.07319177  0.53584240  1
  N  N345  1  0.55965850  0.07260160  0.54556421  1
  N  N346  1  0.06689068  0.26194674  0.04926781  1
  N  N347  1  0.30091329  0.57592110  0.95679985  1
  N  N348  1  0.25754617  0.08928781  0.46431758  1
  N  N349  1  0.50826792  0.41092677  0.53654827  1
  N  N350  1  0.96865428  0.58363354  0.46282576  1
  N  N351  1  0.53924402  0.92546371  0.45706384  1
  N  N352  1  0.68754873  0.57310792  0.95356300  1
  N  N353  1  0.97451530  0.41094884  0.96176754  1
  N  N354  1  0.54345920  0.73810769  0.95626354  1
  N  N355  1  0.46183502  0.74259512  0.96075779  1
  N  N356  1  0.06481641  0.59554910  0.04476265  1
  N  N357  1  0.17994754  0.90206755  0.95391900  1
  N  N358  1  0.03823900  0.07524988  0.95650573  1
  N  N359  1  0.44019620  0.73782736  0.54608547  1
  N  N360  1  0.06983293  0.05386749  0.59769665  1
  N  N361  1  0.05463697  0.39064931  0.58404403  1
  N  N362  1  0.06654866  0.72169398  0.59687980  1
  N  N363  1  0.57218711  0.05459549  0.60450984  1
  N  N364  1  0.54560813  0.38722127  0.58607370  1
  N  N365  1  0.55656560  0.72484178  0.59305337  1
  N  N366  1  0.42966197  0.27997878  0.10267629  1
  N  N367  1  0.43710595  0.60734027  0.09858283  1
  N  N368  1  0.45344221  0.94271080  0.08754796  1
  N  N369  1  0.94753701  0.27307561  0.08616343  1
  N  N370  1  0.94787915  0.60795511  0.08797541  1
  N  N371  1  0.94302065  0.94242804  0.09637506  1
  N  N372  1  0.44163739  0.05743048  0.90361963  1
  N  N373  1  0.44817018  0.39248825  0.91263939  1
  N  N374  1  0.43261027  0.71513120  0.90948442  1
  N  N375  1  0.93661470  0.05555645  0.89881961  1
  N  N376  1  0.94281662  0.39033143  0.90706977  1
  N  N377  1  0.92688127  0.72324025  0.89343921  1
  N  N378  1  0.05870863  0.27905253  0.40532564  1
  N  N379  1  0.06883273  0.60810232  0.40628667  1
  N  N380  1  0.05717377  0.93997922  0.41567833  1
  N  N381  1  0.55744302  0.27237094  0.41150243  1
  N  N382  1  0.57263856  0.61325228  0.39238567  1
  N  N383  1  0.55789023  0.94402569  0.39922333  1
  N  N384  1  0.32044920  0.22064417  0.60162518  1
  N  N385  1  0.30025911  0.55783874  0.58999736  1
  N  N386  1  0.31550133  0.88808586  0.59988934  1
  N  N387  1  0.81629837  0.22595369  0.59107190  1
  N  N388  1  0.80677637  0.55567093  0.59959671  1
  N  N389  1  0.82121788  0.88715843  0.60247068  1
  N  N390  1  0.18944504  0.10944660  0.08923570  1
  N  N391  1  0.18166139  0.44596402  0.09681632  1
  N  N392  1  0.18920191  0.78466253  0.10204079  1
  N  N393  1  0.67334769  0.11574044  0.10830958  1
  N  N394  1  0.67398383  0.44354987  0.09975825  1
  N  N395  1  0.69111382  0.77573861  0.09006400  1
  N  N396  1  0.18272702  0.22787480  0.91030519  1
  N  N397  1  0.18604913  0.56139245  0.91064985  1
  N  N398  1  0.17460597  0.88748203  0.89398761  1
  N  N399  1  0.67640842  0.22440619  0.89934316  1
  N  N400  1  0.67783462  0.55490351  0.89510034  1
  N  N401  1  0.66911981  0.88984741  0.90234614  1
  N  N402  1  0.29990195  0.11109371  0.41432895  1
  N  N403  1  0.32262343  0.44446875  0.39986048  1
  N  N404  1  0.31131959  0.77557552  0.41003172  1
  N  N405  1  0.81143848  0.11177781  0.40171511  1
  N  N406  1  0.83080928  0.44464331  0.39601278  1
  N  N407  1  0.82076293  0.78003882  0.39920728  1
  N  N408  1  0.42863854  0.27847198  0.39786504  1
  N  N409  1  0.44330133  0.61158241  0.40416459  1
  N  N410  1  0.43001136  0.94316230  0.40233728  1
  N  N411  1  0.93053775  0.27555223  0.40611684  1
  N  N412  1  0.94123401  0.61056333  0.41060254  1
  N  N413  1  0.92885380  0.94704288  0.39959929  1
  N  N414  1  0.06580537  0.05421813  0.90138768  1
  N  N415  1  0.07169492  0.39242697  0.90150578  1
  N  N416  1  0.05489859  0.72179831  0.91228422  1
  N  N417  1  0.56929473  0.05621066  0.89979386  1
  N  N418  1  0.57438215  0.38692139  0.89608647  1
  N  N419  1  0.55854406  0.72698922  0.89575033  1
  N  N420  1  0.07254642  0.28113558  0.10845086  1
  N  N421  1  0.07324633  0.61239203  0.10378618  1
  N  N422  1  0.07192743  0.94299805  0.09573157  1
  N  N423  1  0.55557028  0.27338294  0.08693505  1
  N  N424  1  0.56501739  0.60732601  0.09202110  1
  N  N425  1  0.58148248  0.94715831  0.10472392  1
  N  N426  1  0.44495164  0.05774164  0.59415332  1
  N  N427  1  0.41962113  0.38629216  0.60291700  1
  N  N428  1  0.42975923  0.72154032  0.60592952  1
  N  N429  1  0.94222558  0.05569478  0.59242979  1
  N  N430  1  0.92638926  0.38705094  0.59936517  1
  N  N431  1  0.93870756  0.72856315  0.58538296  1
  N  N432  1  0.17331156  0.11276834  0.39459161  1
  N  N433  1  0.19531168  0.43879579  0.41009089  1
  N  N434  1  0.18583638  0.78391450  0.39998637  1
  N  N435  1  0.68337152  0.10927928  0.40911985  1
  N  N436  1  0.70381355  0.44444455  0.41464227  1
  N  N437  1  0.69112115  0.77645480  0.40694573  1
  N  N438  1  0.31126905  0.22506993  0.90703085  1
  N  N439  1  0.31277604  0.55398496  0.89695556  1
  N  N440  1  0.29874949  0.89448841  0.91288809  1
  N  N441  1  0.80470010  0.22285516  0.91086020  1
  N  N442  1  0.80360694  0.55490221  0.91082858  1
  N  N443  1  0.79813282  0.89293816  0.91466091  1
  N  N444  1  0.31713767  0.11285463  0.10888425  1
  N  N445  1  0.30970051  0.44221999  0.09581871  1
  N  N446  1  0.31543992  0.76897968  0.09661549  1
  N  N447  1  0.79974750  0.10705948  0.08590360  1
  N  N448  1  0.80016230  0.44094406  0.08895391  1
  N  N449  1  0.81737481  0.78021633  0.10629952  1
  N  N450  1  0.19506711  0.23043113  0.58212876  1
  N  N451  1  0.17458056  0.54953259  0.60692767  1
  N  N452  1  0.18907562  0.88998267  0.59443798  1
  N  N453  1  0.68852564  0.22215367  0.59929438  1
  N  N454  1  0.68039471  0.55665390  0.59869799  1
  N  N455  1  0.69183995  0.89077441  0.59317210  1
  Cl  Cl456  1  0.25899517  0.06267937  0.60680070  1
  Cl  Cl457  1  0.23792730  0.38286996  0.61721201  1
  Cl  Cl458  1  0.24585471  0.71649401  0.63399904  1
  Cl  Cl459  1  0.75799510  0.05919402  0.62068061  1
  Cl  Cl460  1  0.72616738  0.39573251  0.60208885  1
  Cl  Cl461  1  0.74621870  0.72449402  0.61097787  1
  Cl  Cl462  1  0.25113090  0.27671400  0.11811423  1
  Cl  Cl463  1  0.25482382  0.62016830  0.12245984  1
  Cl  Cl464  1  0.26428301  0.93952608  0.10135906  1
  Cl  Cl465  1  0.76065278  0.27294366  0.10008794  1
  Cl  Cl466  1  0.76276737  0.60623930  0.09987934  1
  Cl  Cl467  1  0.76360096  0.94819906  0.12141187  1
  Cl  Cl468  1  0.25098557  0.05885925  0.88334554  1
  Cl  Cl469  1  0.25704512  0.38869132  0.88557520  1
  Cl  Cl470  1  0.24665111  0.72275750  0.90327030  1
  Cl  Cl471  1  0.75386192  0.05219131  0.88321330  1
  Cl  Cl472  1  0.75955814  0.38145972  0.87546004  1
  Cl  Cl473  1  0.73962128  0.72052485  0.88089471  1
  Cl  Cl474  1  0.24344243  0.28033128  0.38492401  1
  Cl  Cl475  1  0.25385890  0.61096019  0.39057193  1
  Cl  Cl476  1  0.24507493  0.95146405  0.37707534  1
  Cl  Cl477  1  0.74488300  0.27928541  0.37571154  1
  Cl  Cl478  1  0.76093861  0.61075798  0.37306092  1
  Cl  Cl479  1  0.74112623  0.94700292  0.38391217  1
  Cl  Cl480  1  0.00581820  0.22453881  0.61588103  1
  Cl  Cl481  1  -0.01072027  0.56450107  0.61722005  1
  Cl  Cl482  1  0.00662236  0.88081936  0.62455101  1
  Cl  Cl483  1  0.50457608  0.22121782  0.61634539  1
  Cl  Cl484  1  0.49042343  0.55348248  0.60641499  1
  Cl  Cl485  1  0.50105929  0.88630966  0.61770001  1
  Cl  Cl486  1  -0.00121507  0.10628046  0.09669813  1
  Cl  Cl487  1  -0.01429564  0.44300668  0.10324100  1
  Cl  Cl488  1  0.00669754  0.78015200  0.11839898  1
  Cl  Cl489  1  0.49575202  0.12027563  0.13458663  1
  Cl  Cl490  1  0.49300365  0.44576461  0.12865222  1
  Cl  Cl491  1  0.50112121  0.77118703  0.10267308  1
  Cl  Cl492  1  -0.00679867  0.22545474  0.88969928  1
  Cl  Cl493  1  -0.01098679  0.55754737  0.89889113  1
  Cl  Cl494  1  -0.01525698  0.89175810  0.89096839  1
  Cl  Cl495  1  0.49311820  0.22138692  0.87820991  1
  Cl  Cl496  1  0.49502965  0.55152460  0.87366459  1
  Cl  Cl497  1  0.48059870  0.88345800  0.88669697  1
  Cl  Cl498  1  -0.00625601  0.11923648  0.36680704  1
  Cl  Cl499  1  0.01293488  0.44854607  0.37354600  1
  Cl  Cl500  1  0.00452254  0.77352826  0.38599918  1
  Cl  Cl501  1  0.48609157  0.10749665  0.39687187  1
  Cl  Cl502  1  0.51867782  0.43380052  0.39803031  1
  Cl  Cl503  1  0.50209267  0.77554401  0.38151988  1
  Cl  Cl504  1  0.36044669  0.14987959  0.74513774  1
  Cl  Cl505  1  0.35624818  0.48350200  0.74995904  1
  Cl  Cl506  1  0.35602210  0.81382691  0.75192526  1
  Cl  Cl507  1  0.85874707  0.14976359  0.75655617  1
  Cl  Cl508  1  0.86358877  0.47753049  0.74373611  1
  Cl  Cl509  1  0.85894974  0.81421227  0.75578090  1
  Cl  Cl510  1  0.13570225  0.18723363  0.24852905  1
  Cl  Cl511  1  0.13989916  0.51976622  0.24244998  1
  Cl  Cl512  1  0.13713099  0.85501582  0.24142812  1
  Cl  Cl513  1  0.63629516  0.18717025  0.24710337  1
  Cl  Cl514  1  0.63876473  0.51970261  0.25086332  1
  Cl  Cl515  1  0.63996977  0.85297062  0.24477970  1
  Cl  Cl516  1  0.14336620  0.14848215  0.75302260  1
  Cl  Cl517  1  0.13347547  0.48174572  0.74905305  1
  Cl  Cl518  1  0.13529118  0.81291780  0.76196706  1
  Cl  Cl519  1  0.63674873  0.14719501  0.74991126  1
  Cl  Cl520  1  0.64319603  0.48035323  0.75541470  1
  Cl  Cl521  1  0.63904213  0.81349119  0.75398512  1
  Cl  Cl522  1  0.35893513  0.18517528  0.25334654  1
  Cl  Cl523  1  0.35912820  0.52003134  0.25890223  1
  Cl  Cl524  1  0.35931632  0.85315180  0.24843640  1
  Cl  Cl525  1  0.85583493  0.18662423  0.24690032  1
  Cl  Cl526  1  0.85553092  0.51675251  0.24538550  1
  Cl  Cl527  1  0.86303522  0.85099961  0.25075589  1
  Cl  Cl528  1  0.11036279  0.31458382  0.75992776  1
  Cl  Cl529  1  0.10563292  0.64940974  0.75145013  1
  Cl  Cl530  1  0.11309056  0.97939289  0.75536368  1
  Cl  Cl531  1  0.60735763  0.31640071  0.75088211  1
  Cl  Cl532  1  0.60942903  0.64654463  0.75335230  1
  Cl  Cl533  1  0.61443565  0.97766073  0.74688608  1
  Cl  Cl534  1  0.39208707  0.01808510  0.24460233  1
  Cl  Cl535  1  0.38457626  0.35486001  0.26082037  1
  Cl  Cl536  1  0.39041304  0.68589467  0.24573642  1
  Cl  Cl537  1  0.89141033  0.01687977  0.25366842  1
  Cl  Cl538  1  0.89122378  0.35161791  0.24923024  1
  Cl  Cl539  1  0.89250182  0.68461890  0.24763676  1
  Cl  Cl540  1  0.38625964  0.31465223  0.74242860  1
  Cl  Cl541  1  0.39275667  0.64781855  0.74865893  1
  Cl  Cl542  1  0.39364266  0.98303732  0.75180779  1
  Cl  Cl543  1  0.89217896  0.31352313  0.74156453  1
  Cl  Cl544  1  0.88701500  0.64610265  0.75571478  1
  Cl  Cl545  1  0.89266129  0.98440284  0.74666034  1
  Cl  Cl546  1  0.10950974  0.02185793  0.24444138  1
  Cl  Cl547  1  0.11179053  0.35362066  0.24209648  1
  Cl  Cl548  1  0.11016787  0.68649736  0.24921828  1
  Cl  Cl549  1  0.61352890  0.02026793  0.24950684  1
  Cl  Cl550  1  0.60582469  0.35200156  0.24637321  1
  Cl  Cl551  1  0.61031164  0.68640146  0.24731073  1
