# generated using pymatgen
data_H8PbC4(N3Cl2)2
_symmetry_space_group_name_H-M   'P 1'
_cell_length_a   16.62330570
_cell_length_b   22.51024275
_cell_length_c   21.59044973
_cell_angle_alpha   89.99758103
_cell_angle_beta   90.00154213
_cell_angle_gamma   89.99733985
_symmetry_Int_Tables_number   1
_chemical_formula_structural   H8PbC4(N3Cl2)2
_chemical_formula_sum   'H192 Pb24 C96 N144 Cl96'
_cell_volume   8079.03068700
_cell_formula_units_Z   24
loop_
 _symmetry_equiv_pos_site_id
 _symmetry_equiv_pos_as_xyz
  1  'x, y, z'
loop_
 _atom_site_type_symbol
 _atom_site_label
 _atom_site_symmetry_multiplicity
 _atom_site_fract_x
 _atom_site_fract_y
 _atom_site_fract_z
 _atom_site_occupancy
  H  H0  1  0.00039033  0.03132499  0.67829451  1
  H  H1  1  0.00685508  0.36234131  0.67573272  1
  H  H2  1  0.00685665  0.69985884  0.67380683  1
  H  H3  1  0.49077676  0.03246357  0.67637652  1
  H  H4  1  0.49512014  0.36504496  0.67958020  1
  H  H5  1  0.50289487  0.69405659  0.67599367  1
  H  H6  1  0.01122525  0.30352452  0.17549170  1
  H  H7  1  0.00118127  0.63905498  0.17570988  1
  H  H8  1  -0.01257705  0.96809904  0.17770101  1
  H  H9  1  0.48861839  0.30401099  0.17778183  1
  H  H10  1  0.48713766  0.63831061  0.17944142  1
  H  H11  1  0.51317654  0.96529859  0.18136361  1
  H  H12  1  0.00356858  0.03187665  0.82027558  1
  H  H13  1  -0.00057969  0.36251856  0.82408796  1
  H  H14  1  -0.00601136  0.69505015  0.82263797  1
  H  H15  1  0.49897820  0.03110546  0.81618204  1
  H  H16  1  0.49880445  0.36416746  0.82348458  1
  H  H17  1  0.50617552  0.69821029  0.81868399  1
  H  H18  1  0.00488456  0.30360693  0.31990926  1
  H  H19  1  0.00108950  0.63519164  0.31931959  1
  H  H20  1  -0.01703490  0.96761375  0.32173172  1
  H  H21  1  0.50530671  0.30423199  0.32299610  1
  H  H22  1  0.49456248  0.63553182  0.32051609  1
  H  H23  1  0.51751369  0.96996590  0.32396886  1
  H  H24  1  0.24863338  0.19681792  0.67924452  1
  H  H25  1  0.24412498  0.52932284  0.67835021  1
  H  H26  1  0.25359379  0.86094398  0.67172555  1
  H  H27  1  0.74475383  0.19500744  0.67971556  1
  H  H28  1  0.75683253  0.53086771  0.67991131  1
  H  H29  1  0.74713940  0.86543927  0.68239414  1
  H  H30  1  0.26210945  0.13360593  0.18251674  1
  H  H31  1  0.24561808  0.46957644  0.17598100  1
  H  H32  1  0.26167655  0.80503298  0.17955295  1
  H  H33  1  0.73463369  0.13676252  0.18092674  1
  H  H34  1  0.75199474  0.47083578  0.17733594  1
  H  H35  1  0.74728368  0.80087858  0.18027539  1
  H  H36  1  0.25008002  0.19823810  0.81735627  1
  H  H37  1  0.25366354  0.52772018  0.82288549  1
  H  H38  1  0.25884630  0.86368542  0.82771102  1
  H  H39  1  0.74953883  0.19789651  0.82251418  1
  H  H40  1  0.74686234  0.52974750  0.82112394  1
  H  H41  1  0.74495478  0.86441371  0.81735054  1
  H  H42  1  0.25584716  0.13753734  0.32304386  1
  H  H43  1  0.25314949  0.47317808  0.32259099  1
  H  H44  1  0.24293765  0.80068033  0.32677899  1
  H  H45  1  0.74718757  0.13582080  0.32372568  1
  H  H46  1  0.74688774  0.46839439  0.32372725  1
  H  H47  1  0.74698841  0.80266987  0.32281824  1
  H  H48  1  0.13318384  0.05251296  0.61476927  1
  H  H49  1  0.12120310  0.39317989  0.59931160  1
  H  H50  1  0.11457281  0.72468765  0.59135193  1
  H  H51  1  0.62880778  0.05225628  0.61981181  1
  H  H52  1  0.62411326  0.38717157  0.61218586  1
  H  H53  1  0.60957695  0.72533597  0.59321337  1
  H  H54  1  0.37546518  0.27710053  0.09728582  1
  H  H55  1  0.38305600  0.60771611  0.09380869  1
  H  H56  1  0.37637356  0.94936911  0.12328409  1
  H  H57  1  0.86818000  0.28779864  0.12489694  1
  H  H58  1  0.87684160  0.61252914  0.10687899  1
  H  H59  1  0.88674137  0.94170379  0.09288277  1
  H  H60  1  0.37422139  0.04998382  0.88621732  1
  H  H61  1  0.37728800  0.38695662  0.89463323  1
  H  H62  1  0.37274573  0.71841817  0.88212364  1
  H  H63  1  0.87745073  0.05456337  0.88673349  1
  H  H64  1  0.87473168  0.38993090  0.89291718  1
  H  H65  1  0.87577965  0.72021566  0.89856376  1
  H  H66  1  0.12172080  0.27659947  0.39509268  1
  H  H67  1  0.13368468  0.61754776  0.38282533  1
  H  H68  1  0.12855125  0.95121768  0.36520447  1
  H  H69  1  0.61213733  0.27415418  0.40570593  1
  H  H70  1  0.62816714  0.61217974  0.38387475  1
  H  H71  1  0.61507088  0.94003622  0.41277962  1
  H  H72  1  0.38101375  0.21947960  0.61435230  1
  H  H73  1  0.37147478  0.55341845  0.60931046  1
  H  H74  1  0.37248808  0.88736604  0.59604840  1
  H  H75  1  0.88115552  0.21716354  0.62313974  1
  H  H76  1  0.86562246  0.55716200  0.59848031  1
  H  H77  1  0.87526295  0.88423055  0.61468956  1
  H  H78  1  0.12488148  0.11444271  0.12264576  1
  H  H79  1  0.12720202  0.44045462  0.10226625  1
  H  H80  1  0.12721604  0.78107813  0.11741134  1
  H  H81  1  0.62972926  0.11041285  0.09467562  1
  H  H82  1  0.62223522  0.44707352  0.11256506  1
  H  H83  1  0.62990117  0.77867281  0.10555061  1
  H  H84  1  0.13514397  0.22184782  0.89590301  1
  H  H85  1  0.11886915  0.55331441  0.87978799  1
  H  H86  1  0.12214665  0.88529535  0.88447328  1
  H  H87  1  0.63246040  0.22433312  0.89565592  1
  H  H88  1  0.62466548  0.55204875  0.89168320  1
  H  H89  1  0.62287815  0.88626944  0.88907136  1
  H  H90  1  0.36376244  0.10674176  0.40507425  1
  H  H91  1  0.37790778  0.44575571  0.39283380  1
  H  H92  1  0.38009382  0.78263090  0.37930794  1
  H  H93  1  0.86663600  0.10935928  0.39686533  1
  H  H94  1  0.87638979  0.44587526  0.38806197  1
  H  H95  1  0.88643741  0.78245370  0.37748501  1
  H  H96  1  0.36657230  0.28362792  0.37824644  1
  H  H97  1  0.38067815  0.61059563  0.40047111  1
  H  H98  1  0.37374197  0.95231740  0.36965709  1
  H  H99  1  0.87381683  0.28026268  0.38447629  1
  H  H100  1  0.88473955  0.61196202  0.39456828  1
  H  H101  1  0.88753203  0.94104707  0.41070840  1
  H  H102  1  0.12658552  0.05223394  0.89259784  1
  H  H103  1  0.12385053  0.39160528  0.89139494  1
  H  H104  1  0.12393907  0.71843323  0.88876049  1
  H  H105  1  0.62406442  0.05489709  0.88465522  1
  H  H106  1  0.62588892  0.38574965  0.88987180  1
  H  H107  1  0.62113357  0.72172203  0.89709243  1
  H  H108  1  0.11108577  0.27124649  0.08923873  1
  H  H109  1  0.12542919  0.61023011  0.10650111  1
  H  H110  1  0.13062895  0.95317306  0.12921530  1
  H  H111  1  0.62242846  0.28508238  0.11739822  1
  H  H112  1  0.62693569  0.61658131  0.12619326  1
  H  H113  1  0.62374602  0.94370194  0.10152861  1
  H  H114  1  0.38263932  0.05945474  0.59410973  1
  H  H115  1  0.37543940  0.39157223  0.60702431  1
  H  H116  1  0.36334292  0.71595479  0.62252649  1
  H  H117  1  0.88405953  0.05615835  0.60180125  1
  H  H118  1  0.87405958  0.38256385  0.61329146  1
  H  H119  1  0.86971582  0.71719394  0.62089306  1
  H  H120  1  0.11807151  0.11785803  0.37864821  1
  H  H121  1  0.12948525  0.44629594  0.39284600  1
  H  H122  1  0.13535472  0.77410646  0.40826746  1
  H  H123  1  0.61741684  0.11171353  0.38918533  1
  H  H124  1  0.62787817  0.44168012  0.39822853  1
  H  H125  1  0.63975114  0.77325932  0.40583585  1
  H  H126  1  0.38361165  0.22157906  0.88059322  1
  H  H127  1  0.36612715  0.55570771  0.90257993  1
  H  H128  1  0.36841765  0.89220362  0.90777196  1
  H  H129  1  0.88118523  0.21805325  0.88565995  1
  H  H130  1  0.87376055  0.55126900  0.88888635  1
  H  H131  1  0.87261363  0.88501014  0.88375309  1
  H  H132  1  0.37231692  0.11055913  0.10004728  1
  H  H133  1  0.37506517  0.44958437  0.10965641  1
  H  H134  1  0.37432137  0.77765995  0.09902282  1
  H  H135  1  0.87405175  0.11627438  0.12642032  1
  H  H136  1  0.87111455  0.44574069  0.10295156  1
  H  H137  1  0.87897308  0.78129180  0.11650339  1
  H  H138  1  0.13355369  0.22438966  0.60040448  1
  H  H139  1  0.12297558  0.55598631  0.60384977  1
  H  H140  1  0.12481100  0.88752624  0.60669043  1
  H  H141  1  0.63387043  0.22534295  0.59944416  1
  H  H142  1  0.61822848  0.55013018  0.62319122  1
  H  H143  1  0.62560398  0.88950982  0.60851649  1
  H  H144  1  0.55667460  0.75072630  1.00386689  1
  H  H145  1  0.92312121  0.42190282  0.99679085  1
  H  H146  1  0.53055817  0.91663805  0.50952246  1
  H  H147  1  0.33729857  0.41103204  0.00979152  1
  H  H148  1  0.70153463  0.24702918  0.49705590  1
  H  H149  1  0.94178252  0.08623654  0.49455836  1
  H  H150  1  0.53419649  0.74877652  0.49178588  1
  H  H151  1  0.70861675  0.08877713  -0.00456540  1
  H  H152  1  0.79763105  0.58623904  0.49335331  1
  H  H153  1  0.97056571  0.91080302  0.51061982  1
  H  H154  1  0.68356611  0.41538927  0.50180577  1
  H  H155  1  0.68095439  0.92295776  0.50607727  1
  H  H156  1  0.53650836  0.25814406  0.50652102  1
  H  H157  1  0.71456211  0.74848946  0.50717342  1
  H  H158  1  0.68613396  0.75042539  -0.00513088  1
  H  H159  1  0.65819283  0.08328533  0.49565690  1
  H  H160  1  0.46258419  0.58077004  -0.00398474  1
  H  H161  1  0.30107243  0.08418158  -0.00557477  1
  H  H162  1  0.36349935  0.75046047  0.49607951  1
  H  H163  1  0.18363201  0.42602200  -0.00181090  1
  H  H164  1  0.08113376  0.74660898  0.99460313  1
  H  H165  1  0.83361927  0.91135240  0.50268251  1
  H  H166  1  0.67281776  0.90796979  1.00189584  1
  H  H167  1  0.96425319  0.91486562  -0.01166085  1
  H  H168  1  0.19823393  0.24656478  1.00310813  1
  H  H169  1  0.55757098  0.91955058  -0.00823100  1
  H  H170  1  0.88627239  0.74661621  0.50361965  1
  H  H171  1  0.31923280  0.92174299  0.49576094  1
  H  H172  1  0.83226431  0.90883280  0.99763779  1
  H  H173  1  0.65953277  0.41646606  0.00735754  1
  H  H174  1  0.05656791  0.40837977  0.49569993  1
  H  H175  1  0.91852733  0.08167421  0.99985870  1
  H  H176  1  0.57925107  0.07919582  0.99752075  1
  H  H177  1  0.39062549  0.24710369  0.48399994  1
  H  H178  1  0.67178108  0.58307628  1.00224648  1
  H  H179  1  0.64337270  0.57819331  0.51437751  1
  H  H180  1  0.02822845  0.25263084  -0.00919143  1
  H  H181  1  0.87978300  0.25154028  0.01580880  1
  H  H182  1  0.29732989  0.58490502  1.00385993  1
  H  H183  1  0.94172875  0.58646506  0.50530265  1
  H  H184  1  0.32636235  0.42050051  0.49761344  1
  H  H185  1  0.16035868  0.91455440  0.49911779  1
  H  H186  1  0.41954606  0.07475074  0.99888112  1
  H  H187  1  0.90585961  0.41750676  0.50885384  1
  H  H188  1  0.85588287  0.24842870  0.51062776  1
  H  H189  1  0.68521971  0.25298625  1.00511278  1
  H  H190  1  0.10145917  0.08181082  0.50747421  1
  H  H191  1  0.14459121  0.91850438  0.99508137  1
  Pb  Pb192  1  0.24816155  0.04710892  0.74946702  1
  Pb  Pb193  1  0.24834260  0.38020345  0.75114259  1
  Pb  Pb194  1  0.24550706  0.71356642  0.74755829  1
  Pb  Pb195  1  0.75210018  0.04689755  0.75012228  1
  Pb  Pb196  1  0.74770049  0.38199247  0.75025930  1
  Pb  Pb197  1  0.74173691  0.71562046  0.74810544  1
  Pb  Pb198  1  0.25297620  0.28383871  0.24111678  1
  Pb  Pb199  1  0.25453421  0.61950482  0.24150093  1
  Pb  Pb200  1  0.25459887  0.95276332  0.25314002  1
  Pb  Pb201  1  0.74839885  0.28729513  0.26085352  1
  Pb  Pb202  1  0.75789636  0.61684225  0.25382612  1
  Pb  Pb203  1  0.75648203  0.94987044  0.25263705  1
  Pb  Pb204  1  0.00200990  0.21432827  0.75388140  1
  Pb  Pb205  1  -0.00360676  0.54900235  0.74361316  1
  Pb  Pb206  1  0.00033689  0.87852780  0.74854300  1
  Pb  Pb207  1  0.50175913  0.21397581  0.74414183  1
  Pb  Pb208  1  0.49298815  0.54759282  0.75984239  1
  Pb  Pb209  1  0.49392244  0.88244852  0.74857210  1
  Pb  Pb210  1  -0.00014451  0.12053012  0.25578867  1
  Pb  Pb211  1  0.00588643  0.45061326  0.24935633  1
  Pb  Pb212  1  0.00812611  0.78517098  0.25105901  1
  Pb  Pb213  1  0.50403088  0.11806651  0.24631237  1
  Pb  Pb214  1  0.50040991  0.45320172  0.25173751  1
  Pb  Pb215  1  0.50908436  0.78375871  0.25131731  1
  C  C216  1  0.00642029  0.04738896  0.63095752  1
  C  C217  1  0.00074374  0.37853465  0.62843602  1
  C  C218  1  -0.00392492  0.71378944  0.62645625  1
  C  C219  1  0.50112306  0.04801002  0.62976499  1
  C  C220  1  0.49855292  0.38070841  0.63244497  1
  C  C221  1  0.49217694  0.71014810  0.62929629  1
  C  C222  1  -0.00343978  0.28784034  0.12909103  1
  C  C223  1  0.00151862  0.62092174  0.12937913  1
  C  C224  1  0.00184283  0.95438060  0.13072972  1
  C  C225  1  0.49516742  0.28900771  0.13050884  1
  C  C226  1  0.49873972  0.62224325  0.13291838  1
  C  C227  1  0.50451037  0.95260540  0.13339049  1
  C  C228  1  0.00196462  0.04635709  0.86811457  1
  C  C229  1  -0.00104945  0.38012131  0.87074329  1
  C  C230  1  -0.00178651  0.71106971  0.86990752  1
  C  C231  1  0.49915920  0.04549197  0.86422539  1
  C  C232  1  0.50059295  0.37849243  0.87133559  1
  C  C233  1  0.49986140  0.71308677  0.86622479  1
  C  C234  1  -0.00043575  0.28736220  0.36678382  1
  C  C235  1  0.00621098  0.62140269  0.36716990  1
  C  C236  1  -0.00018286  0.95313797  0.36789793  1
  C  C237  1  0.49447265  0.28766986  0.36961691  1
  C  C238  1  0.50123717  0.61990599  0.36786483  1
  C  C239  1  0.50199263  0.95531010  0.37030128  1
  C  C240  1  0.25449202  0.21238511  0.63183694  1
  C  C241  1  0.24608176  0.54574162  0.63114971  1
  C  C242  1  0.25044538  0.87830040  0.62473736  1
  C  C243  1  0.75305160  0.21094979  0.63257861  1
  C  C244  1  0.74615820  0.54603367  0.63278335  1
  C  C245  1  0.74898314  0.88090548  0.63468945  1
  C  C246  1  0.25295767  0.11978837  0.13484776  1
  C  C247  1  0.24923587  0.45324695  0.12855189  1
  C  C248  1  0.25444907  0.78873519  0.13254459  1
  C  C249  1  0.74568947  0.12199983  0.13382248  1
  C  C250  1  0.74814724  0.45475156  0.13011459  1
  C  C251  1  0.75180665  0.78711845  0.13232393  1
  C  C252  1  0.25655972  0.21338738  0.86478326  1
  C  C253  1  0.24646296  0.54453440  0.86942694  1
  C  C254  1  0.24930444  0.87991458  0.87434071  1
  C  C255  1  0.75409219  0.21300838  0.87007183  1
  C  C256  1  0.74793646  0.54472961  0.86875837  1
  C  C257  1  0.74691209  0.87914065  0.86525651  1
  C  C258  1  0.24594282  0.12098857  0.36943228  1
  C  C259  1  0.25387684  0.45628912  0.36954978  1
  C  C260  1  0.25369526  0.78576670  0.37373745  1
  C  C261  1  0.74332406  0.11938607  0.37078752  1
  C  C262  1  0.74996975  0.45259850  0.37108734  1
  C  C263  1  0.75751161  0.78763267  0.36991502  1
  C  C264  1  0.46324281  0.40351313  0.96545873  1
  C  C265  1  0.79959345  0.42619278  0.46287426  1
  C  C266  1  0.76803150  0.57440796  0.53661838  1
  C  C267  1  0.27235286  0.09435898  0.03844896  1
  C  C268  1  0.78271224  0.42614352  0.03487153  1
  C  C269  1  0.97624223  0.07519487  0.53595329  1
  C  C270  1  0.44612944  0.93064131  0.04457720  1
  C  C271  1  0.71073780  0.57229637  0.96340228  1
  C  C272  1  0.80554605  0.23747588  0.96125352  1
  C  C273  1  0.18964008  0.09354878  0.45640336  1
  C  C274  1  0.79420278  0.90307365  0.54189322  1
  C  C275  1  0.27268411  0.91239164  0.96984339  1
  C  C276  1  0.05760526  0.59883811  0.45815990  1
  C  C277  1  0.97658959  0.59637664  0.46396935  1
  C  C278  1  0.72383424  0.24085488  0.96586552  1
  C  C279  1  0.79233453  0.57173265  0.96095323  1
  C  C280  1  0.45830630  0.06766663  0.95899910  1
  C  C281  1  0.48224752  0.07890890  0.53446512  1
  C  C282  1  0.93603361  0.73797680  0.53787642  1
  C  C283  1  0.81942939  0.75921405  0.45568999  1
  C  C284  1  0.54021414  0.06931907  0.95847042  1
  C  C285  1  0.99524854  0.92421413  0.46609707  1
  C  C286  1  0.54500605  0.40318121  0.96363539  1
  C  C287  1  0.52658210  0.92879908  0.03509734  1
  C  C288  1  0.46556299  0.41070102  0.53916256  1
  C  C289  1  0.04111786  0.07099695  0.96234086  1
  C  C290  1  0.01675409  0.74030285  0.52952940  1
  C  C291  1  0.72143318  0.76157710  0.03569276  1
  C  C292  1  0.54646697  0.26219075  0.04143151  1
  C  C293  1  0.04131618  0.41454056  0.96175749  1
  C  C294  1  0.42969767  0.73870094  0.54379913  1
  C  C295  1  0.52464803  0.74013642  0.96129671  1
  C  C296  1  0.23306576  0.75637535  0.46979877  1
  C  C297  1  0.77912345  0.08831102  0.46469721  1
  C  C298  1  0.79162831  0.90111810  0.95896265  1
  C  C299  1  0.18975941  0.57866741  0.95554364  1
  C  C300  1  0.99115796  0.92711145  0.03251895  1
  C  C301  1  0.70979724  0.90113712  0.96098878  1
  C  C302  1  0.96384538  0.58740987  0.03890780  1
  C  C303  1  0.81020333  0.23944979  0.54567240  1
  C  C304  1  0.95963374  0.07176490  0.96210538  1
  C  C305  1  0.02885097  0.25576646  0.46013430  1
  C  C306  1  0.23107748  0.23781139  0.96039406  1
  C  C307  1  0.80256806  0.76334916  0.04128203  1
  C  C308  1  0.07365805  0.92826355  0.44889425  1
  C  C309  1  0.43003165  0.93094098  0.45334302  1
  C  C310  1  0.07093881  0.93159272  0.04609871  1
  C  C311  1  0.31388532  0.75935816  0.46150391  1
  N  N312  1  0.68945849  0.57185434  0.54610078  1
  N  N313  1  0.71461348  0.90409169  0.54059567  1
  N  N314  1  0.46966009  0.25918810  0.03406897  1
  N  N315  1  0.28240478  0.90301139  0.53057658  1
  N  N316  1  0.96311022  0.73936192  0.96402432  1
  N  N317  1  0.30320239  0.23730443  0.54087703  1
  N  N318  1  0.26811934  0.57763432  0.96249524  1
  N  N319  1  0.54348999  0.40896948  0.53977611  1
  N  N320  1  0.26620960  0.08882367  0.46592923  1
  N  N321  1  0.28985948  0.42636985  0.45982960  1
  N  N322  1  0.94990256  0.40051465  0.53903356  1
  N  N323  1  0.43566493  0.26441805  0.45553226  1
  N  N324  1  0.19387331  0.09534181  0.04622009  1
  N  N325  1  0.31000886  0.23881114  0.95528335  1
  N  N326  1  0.27922407  0.75824909  0.03734273  1
  N  N327  1  0.96217235  0.41235665  0.96143066  1
  N  N328  1  0.22703808  0.24078455  0.53656394  1
  N  N329  1  0.72020120  0.42456804  0.46495435  1
  N  N330  1  0.19457029  0.90918001  0.96124507  1
  N  N331  1  0.05557790  0.07465971  0.54180947  1
  N  N332  1  0.44579751  0.73978964  0.95616220  1
  N  N333  1  0.95138697  0.25772263  0.45797478  1
  N  N334  1  0.21180561  0.57572222  0.53767390  1
  N  N335  1  0.21688383  0.41869361  0.03779659  1
  N  N336  1  0.00730824  0.25189623  0.03627822  1
  N  N337  1  0.04113467  0.73911917  0.95912812  1
  N  N338  1  0.55112480  0.59205481  0.45774019  1
  N  N339  1  0.48615166  0.58921521  0.03978472  1
  N  N340  1  0.74125612  0.75639114  0.46435118  1
  N  N341  1  0.50711824  0.92629527  0.46635856  1
  N  N342  1  0.29517374  0.43295035  0.03692363  1
  N  N343  1  0.73113937  0.24245346  0.53875632  1
  N  N344  1  0.04124956  0.58627306  0.03756531  1
  N  N345  1  0.80948091  0.09590227  0.04867639  1
  N  N346  1  0.50778235  0.74190298  0.53492003  1
  N  N347  1  0.51330552  0.25325292  0.46236340  1
  N  N348  1  0.93114977  0.26603752  0.04547959  1
  N  N349  1  0.47493713  0.59139288  0.46337356  1
  N  N350  1  0.20448526  0.91101186  0.53682344  1
  N  N351  1  0.02761127  0.41436091  0.53729926  1
  N  N352  1  0.56302236  0.59276683  0.04914103  1
  N  N353  1  0.21165883  0.42665409  0.46149510  1
  N  N354  1  0.20306501  0.75947081  0.04349283  1
  N  N355  1  0.70378099  0.42638827  0.03996534  1
  N  N356  1  0.70029050  0.09062954  0.46114981  1
  N  N357  1  0.28799130  0.57480230  0.53918636  1
  N  N358  1  0.73244529  0.09325540  0.03919867  1
  N  N359  1  0.55924624  0.07600077  0.54162111  1
  N  N360  1  0.07369104  0.05751776  0.60027338  1
  N  N361  1  0.06007941  0.38998482  0.58923465  1
  N  N362  1  0.05272677  0.72561561  0.58280154  1
  N  N363  1  0.57097700  0.05686639  0.60238911  1
  N  N364  1  0.56387125  0.39040820  0.59915153  1
  N  N365  1  0.54715986  0.72120917  0.58670557  1
  N  N366  1  0.43718749  0.27661886  0.09066891  1
  N  N367  1  0.44551099  0.61001429  0.08926477  1
  N  N368  1  0.43338500  0.94487211  0.10388646  1
  N  N369  1  0.92406566  0.27959877  0.10538012  1
  N  N370  1  0.93674174  0.60821880  0.09412773  1
  N  N371  1  0.94874964  0.94171635  0.08635989  1
  N  N372  1  0.43407233  0.05319352  0.90007701  1
  N  N373  1  0.43706794  0.38884034  0.90855957  1
  N  N374  1  0.43214502  0.72316706  0.89679947  1
  N  N375  1  0.93638963  0.05639699  0.90217209  1
  N  N376  1  0.93523050  0.39007879  0.90574844  1
  N  N377  1  0.93692633  0.72236651  0.90796024  1
  N  N378  1  0.06066734  0.27361289  0.40551256  1
  N  N379  1  0.07522277  0.61372152  0.39973271  1
  N  N380  1  0.07547194  0.94545887  0.38927311  1
  N  N381  1  0.54995115  0.27731040  0.41235589  1
  N  N382  1  0.56880266  0.60912082  0.39830924  1
  N  N383  1  0.55252475  0.94316525  0.41574495  1
  N  N384  1  0.32171019  0.21984817  0.59987225  1
  N  N385  1  0.31084951  0.55632080  0.59714251  1
  N  N386  1  0.31137682  0.89006564  0.58703693  1
  N  N387  1  0.82399013  0.22151888  0.60436258  1
  N  N388  1  0.80367667  0.55893101  0.59058057  1
  N  N389  1  0.81589950  0.88768913  0.59992438  1
  N  N390  1  0.18354807  0.11077025  0.10615863  1
  N  N391  1  0.18793106  0.44256179  0.09104932  1
  N  N392  1  0.18663338  0.77811592  0.10258006  1
  N  N393  1  0.69205329  0.11212071  0.08982429  1
  N  N394  1  0.68198821  0.44398021  0.09827080  1
  N  N395  1  0.69053969  0.77676587  0.09377888  1
  N  N396  1  0.19663105  0.22266131  0.90528558  1
  N  N397  1  0.17615500  0.55861970  0.89791288  1
  N  N398  1  0.17984790  0.88898373  0.90225533  1
  N  N399  1  0.69310964  0.22531982  0.90778377  1
  N  N400  1  0.68423579  0.55534245  0.90474720  1
  N  N401  1  0.68309107  0.88780600  0.90223168  1
  N  N402  1  0.30139314  0.10641211  0.41045470  1
  N  N403  1  0.31728419  0.44598274  0.40490442  1
  N  N404  1  0.32509947  0.77761166  0.40048635  1
  N  N405  1  0.80603368  0.10607301  0.40872393  1
  N  N406  1  0.81792320  0.44269020  0.40438029  1
  N  N407  1  0.82983526  0.77748131  0.39672807  1
  N  N408  1  0.42405009  0.27631622  0.39552284  1
  N  N409  1  0.44266853  0.60890482  0.40793344  1
  N  N410  1  0.42718764  0.94757535  0.39333819  1
  N  N411  1  0.93291891  0.27764422  0.39844765  1
  N  N412  1  0.94541732  0.61030785  0.40589947  1
  N  N413  1  0.94964371  0.94040238  0.41424215  1
  N  N414  1  0.06641568  0.05585816  0.90565228  1
  N  N415  1  0.06416492  0.39458532  0.90559044  1
  N  N416  1  0.06399961  0.72168209  0.90238924  1
  N  N417  1  0.56435964  0.05552831  0.89922509  1
  N  N418  1  0.56689388  0.38819597  0.90574365  1
  N  N419  1  0.55971267  0.72400640  0.90642453  1
  N  N420  1  0.04870944  0.27509290  0.08446874  1
  N  N421  1  0.06497485  0.60749031  0.09536856  1
  N  N422  1  0.07630169  0.94795526  0.10623096  1
  N  N423  1  0.56471817  0.27984213  0.09992124  1
  N  N424  1  0.57012927  0.61138719  0.10767295  1
  N  N425  1  0.56250889  0.94255653  0.09177211  1
  N  N426  1  0.44444203  0.06187193  0.58720455  1
  N  N427  1  0.43582485  0.39345859  0.59504568  1
  N  N428  1  0.41972129  0.72065768  0.60287335  1
  N  N429  1  0.94528514  0.05864609  0.59138161  1
  N  N430  1  0.93284022  0.38801893  0.59818412  1
  N  N431  1  0.92473064  0.72154910  0.59961442  1
  N  N432  1  0.17464840  0.11241949  0.39736670  1
  N  N433  1  0.18999347  0.44429892  0.40451031  1
  N  N434  1  0.19704991  0.77248403  0.41698775  1
  N  N435  1  0.67735431  0.11000344  0.40335880  1
  N  N436  1  0.68912937  0.44173556  0.40853196  1
  N  N437  1  0.70238053  0.77660857  0.41235767  1
  N  N438  1  0.32407839  0.22361871  0.89566274  1
  N  N439  1  0.30411835  0.55444788  0.91032902  1
  N  N440  1  0.30702337  0.89417515  0.91631463  1
  N  N441  1  0.82300027  0.22102087  0.90255616  1
  N  N442  1  0.81429742  0.55526164  0.90385998  1
  N  N443  1  0.81342768  0.88778428  0.89912913  1
  N  N444  1  0.31056919  0.10924172  0.09251179  1
  N  N445  1  0.31544480  0.44303514  0.09640143  1
  N  N446  1  0.31241086  0.77657823  0.09222058  1
  N  N447  1  0.81693415  0.11153512  0.10800346  1
  N  N448  1  0.81041838  0.44328383  0.09114436  1
  N  N449  1  0.82050372  0.77837095  0.09957603  1
  N  N450  1  0.19548521  0.22525678  0.59275702  1
  N  N451  1  0.18421068  0.55790440  0.59455815  1
  N  N452  1  0.18437748  0.88915169  0.59232975  1
  N  N453  1  0.69584396  0.22161072  0.59139000  1
  N  N454  1  0.67620899  0.55375978  0.60510022  1
  N  N455  1  0.68693512  0.89388614  0.59890165  1
  Cl  Cl456  1  0.25742297  0.04917145  0.61779647  1
  Cl  Cl457  1  0.24766904  0.39260536  0.61625080  1
  Cl  Cl458  1  0.23633363  0.72643528  0.61368220  1
  Cl  Cl459  1  0.75828894  0.05304245  0.61605562  1
  Cl  Cl460  1  0.74916057  0.38760970  0.61187307  1
  Cl  Cl461  1  0.72900413  0.72708840  0.60252896  1
  Cl  Cl462  1  0.23706232  0.27570626  0.10474754  1
  Cl  Cl463  1  0.26153315  0.60330954  0.10188085  1
  Cl  Cl464  1  0.25483492  0.94957711  0.12517691  1
  Cl  Cl465  1  0.74510869  0.28770112  0.12821449  1
  Cl  Cl466  1  0.75402864  0.61457798  0.12191808  1
  Cl  Cl467  1  0.75485716  0.94342403  0.11733092  1
  Cl  Cl468  1  0.25098815  0.04990850  0.88422919  1
  Cl  Cl469  1  0.24786005  0.39299668  0.88863171  1
  Cl  Cl470  1  0.24657269  0.71499001  0.87938730  1
  Cl  Cl471  1  0.74710167  0.06174356  0.88712080  1
  Cl  Cl472  1  0.75153099  0.39153368  0.88338648  1
  Cl  Cl473  1  0.74800052  0.71988553  0.88184661  1
  Cl  Cl474  1  0.24334799  0.28520145  0.37336620  1
  Cl  Cl475  1  0.25962989  0.61507095  0.37282258  1
  Cl  Cl476  1  0.25189120  0.94343337  0.38851233  1
  Cl  Cl477  1  0.73518535  0.27267535  0.39922942  1
  Cl  Cl478  1  0.75601434  0.61052333  0.39019602  1
  Cl  Cl479  1  0.74289014  0.94103811  0.40148057  1
  Cl  Cl480  1  0.01024501  0.22025768  0.62187251  1
  Cl  Cl481  1  -0.00716546  0.55419252  0.60803669  1
  Cl  Cl482  1  0.00156797  0.88713373  0.61474577  1
  Cl  Cl483  1  0.51055234  0.23037879  0.60401503  1
  Cl  Cl484  1  0.49382805  0.55024720  0.62772601  1
  Cl  Cl485  1  0.50123936  0.89086545  0.60342787  1
  Cl  Cl486  1  -0.00119446  0.11628947  0.12475251  1
  Cl  Cl487  1  -0.00131672  0.44046434  0.11204831  1
  Cl  Cl488  1  0.00438154  0.77794345  0.11735332  1
  Cl  Cl489  1  0.50429772  0.10977682  0.10934059  1
  Cl  Cl490  1  0.49806706  0.44802573  0.11764652  1
  Cl  Cl491  1  0.50176137  0.77838068  0.11666770  1
  Cl  Cl492  1  0.01175012  0.23044789  0.89437389  1
  Cl  Cl493  1  -0.00479099  0.54718337  0.87436830  1
  Cl  Cl494  1  -0.00281302  0.88628497  0.88139904  1
  Cl  Cl495  1  0.50876247  0.22156686  0.87208606  1
  Cl  Cl496  1  0.48825068  0.55803972  0.89957913  1
  Cl  Cl497  1  0.49555975  0.88826868  0.88096914  1
  Cl  Cl498  1  -0.01029228  0.11096161  0.39087013  1
  Cl  Cl499  1  0.00413822  0.44016049  0.38960746  1
  Cl  Cl500  1  0.01389891  0.77916553  0.38333345  1
  Cl  Cl501  1  0.49237692  0.11204264  0.38103464  1
  Cl  Cl502  1  0.50145132  0.44038011  0.38481699  1
  Cl  Cl503  1  0.52109577  0.77243842  0.39667092  1
  Cl  Cl504  1  0.36529795  0.14536369  0.75126734  1
  Cl  Cl505  1  0.35826123  0.48197162  0.75247799  1
  Cl  Cl506  1  0.35992955  0.81421084  0.74708149  1
  Cl  Cl507  1  0.86263908  0.14877094  0.75090641  1
  Cl  Cl508  1  0.86119177  0.48044434  0.74639506  1
  Cl  Cl509  1  0.86025501  0.81270402  0.74524217  1
  Cl  Cl510  1  0.13448734  0.18735460  0.24932086  1
  Cl  Cl511  1  0.14172262  0.51833174  0.24876862  1
  Cl  Cl512  1  0.13991308  0.85560756  0.24808364  1
  Cl  Cl513  1  0.64137935  0.18409346  0.25428420  1
  Cl  Cl514  1  0.63766197  0.52138022  0.24962423  1
  Cl  Cl515  1  0.64188554  0.85126009  0.25311525  1
  Cl  Cl516  1  0.14307273  0.14837841  0.75129208  1
  Cl  Cl517  1  0.13579131  0.48026291  0.75266135  1
  Cl  Cl518  1  0.14245305  0.81837724  0.75534815  1
  Cl  Cl519  1  0.63900859  0.14613337  0.74531575  1
  Cl  Cl520  1  0.64208651  0.47998858  0.74687203  1
  Cl  Cl521  1  0.64306624  0.81325656  0.74777236  1
  Cl  Cl522  1  0.35471794  0.18720572  0.25342223  1
  Cl  Cl523  1  0.35965397  0.51638227  0.24264544  1
  Cl  Cl524  1  0.36175130  0.85452413  0.26050803  1
  Cl  Cl525  1  0.86073431  0.18716662  0.24960725  1
  Cl  Cl526  1  0.85593490  0.51879413  0.25470378  1
  Cl  Cl527  1  0.86020756  0.85533940  0.25333008  1
  Cl  Cl528  1  0.10882240  0.31652806  0.75186849  1
  Cl  Cl529  1  0.10794924  0.64878024  0.75179515  1
  Cl  Cl530  1  0.10784293  0.98271366  0.74751903  1
  Cl  Cl531  1  0.61173646  0.31506891  0.74567984  1
  Cl  Cl532  1  0.60849205  0.64658787  0.74598042  1
  Cl  Cl533  1  0.61558601  0.97796340  0.74319150  1
  Cl  Cl534  1  0.38683264  0.02053341  0.24901054  1
  Cl  Cl535  1  0.38863215  0.35162976  0.25084782  1
  Cl  Cl536  1  0.39130427  0.68664372  0.25009492  1
  Cl  Cl537  1  0.89092010  0.01847099  0.24969488  1
  Cl  Cl538  1  0.88365276  0.35566350  0.25212579  1
  Cl  Cl539  1  0.88933770  0.68874988  0.25100174  1
  Cl  Cl540  1  0.38812035  0.31310894  0.75040669  1
  Cl  Cl541  1  0.39021162  0.64782750  0.75228613  1
  Cl  Cl542  1  0.39614818  0.97950334  0.74579222  1
  Cl  Cl543  1  0.88948536  0.31341073  0.74738709  1
  Cl  Cl544  1  0.89003174  0.64760951  0.74352661  1
  Cl  Cl545  1  0.88895788  0.97981218  0.74945528  1
  Cl  Cl546  1  0.11479676  0.02172363  0.25172442  1
  Cl  Cl547  1  0.10355567  0.35305284  0.24673050  1
  Cl  Cl548  1  0.11090727  0.68527470  0.24494476  1
  Cl  Cl549  1  0.60698686  0.01923758  0.25232344  1
  Cl  Cl550  1  0.60965727  0.35107504  0.25116181  1
  Cl  Cl551  1  0.61149082  0.68842947  0.24814702  1
