# generated using pymatgen
data_H8PbC4(N3Cl2)2
_symmetry_space_group_name_H-M   'P 1'
_cell_length_a   16.62224928
_cell_length_b   22.50190477
_cell_length_c   21.58941761
_cell_angle_alpha   89.99890409
_cell_angle_beta   90.00225138
_cell_angle_gamma   90.00027267
_symmetry_Int_Tables_number   1
_chemical_formula_structural   H8PbC4(N3Cl2)2
_chemical_formula_sum   'H192 Pb24 C96 N144 Cl96'
_cell_volume   8075.13887405
_cell_formula_units_Z   24
loop_
 _symmetry_equiv_pos_site_id
 _symmetry_equiv_pos_as_xyz
  1  'x, y, z'
loop_
 _atom_site_type_symbol
 _atom_site_label
 _atom_site_symmetry_multiplicity
 _atom_site_fract_x
 _atom_site_fract_y
 _atom_site_fract_z
 _atom_site_occupancy
  H  H0  1  -0.00748130  0.03385539  0.68018447  1
  H  H1  1  0.00512917  0.36485033  0.68085634  1
  H  H2  1  -0.00211434  0.69972799  0.68003600  1
  H  H3  1  0.50791407  0.03222832  0.67948215  1
  H  H4  1  0.50484812  0.36591632  0.68149080  1
  H  H5  1  0.50163441  0.69906269  0.68002571  1
  H  H6  1  0.00116947  0.30334004  0.17978592  1
  H  H7  1  0.00574561  0.63519985  0.17968960  1
  H  H8  1  0.00571890  0.96779817  0.17678540  1
  H  H9  1  0.49566562  0.30242770  0.18005452  1
  H  H10  1  0.49504772  0.63476358  0.18191945  1
  H  H11  1  0.50741711  0.96818757  0.18322017  1
  H  H12  1  -0.00564200  0.03083498  0.81926927  1
  H  H13  1  0.00066360  0.36447856  0.81978834  1
  H  H14  1  -0.00106411  0.69775199  0.81813884  1
  H  H15  1  0.50601896  0.03144020  0.81690228  1
  H  H16  1  0.49329164  0.36483430  0.82143072  1
  H  H17  1  0.50350789  0.69818344  0.81676270  1
  H  H18  1  -0.00319116  0.30259001  0.31779512  1
  H  H19  1  0.00290876  0.63439392  0.31547071  1
  H  H20  1  0.00329055  0.96758430  0.31779627  1
  H  H21  1  0.50815220  0.30055165  0.31829617  1
  H  H22  1  0.49000437  0.63682558  0.31853161  1
  H  H23  1  0.49391970  0.96825969  0.31851475  1
  H  H24  1  0.25223626  0.19844963  0.67802388  1
  H  H25  1  0.24338558  0.53021623  0.68273084  1
  H  H26  1  0.24704231  0.86516191  0.67995260  1
  H  H27  1  0.74268645  0.19966231  0.68282883  1
  H  H28  1  0.75703552  0.53229873  0.68185166  1
  H  H29  1  0.75454391  0.86697941  0.68159606  1
  H  H30  1  0.24998733  0.13394813  0.18136118  1
  H  H31  1  0.25039442  0.46822082  0.17991376  1
  H  H32  1  0.25385401  0.80151816  0.18232279  1
  H  H33  1  0.75577917  0.13593810  0.17952164  1
  H  H34  1  0.75270136  0.46819163  0.17846683  1
  H  H35  1  0.75204531  0.80098139  0.18151350  1
  H  H36  1  0.25325898  0.19900463  0.81772390  1
  H  H37  1  0.25380401  0.53188597  0.81859960  1
  H  H38  1  0.25297864  0.86493966  0.81866474  1
  H  H39  1  0.74428892  0.19778107  0.82170961  1
  H  H40  1  0.74713998  0.53043069  0.82211341  1
  H  H41  1  0.74326676  0.86693768  0.82020055  1
  H  H42  1  0.25660547  0.13475592  0.32365616  1
  H  H43  1  0.24581562  0.46651310  0.31848385  1
  H  H44  1  0.24539373  0.80051641  0.32163389  1
  H  H45  1  0.75349546  0.13417628  0.31953206  1
  H  H46  1  0.74658341  0.46715970  0.31895010  1
  H  H47  1  0.75498311  0.80064837  0.32143265  1
  H  H48  1  0.13257614  0.04978087  0.62653304  1
  H  H49  1  0.12144943  0.38921327  0.60410539  1
  H  H50  1  0.12430111  0.72107996  0.60920308  1
  H  H51  1  0.62824698  0.05540576  0.60507832  1
  H  H52  1  0.61804176  0.38896405  0.60210907  1
  H  H53  1  0.62547524  0.72242672  0.60970473  1
  H  H54  1  0.37980196  0.27826816  0.10079032  1
  H  H55  1  0.37976585  0.61135784  0.10548470  1
  H  H56  1  0.37225479  0.94752185  0.12132941  1
  H  H57  1  0.87583759  0.27926241  0.11163505  1
  H  H58  1  0.87890660  0.61305359  0.11031442  1
  H  H59  1  0.87016417  0.94884906  0.11712110  1
  H  H60  1  0.37845365  0.05422833  0.88650835  1
  H  H61  1  0.37932955  0.39090464  0.89975131  1
  H  H62  1  0.37657452  0.72030738  0.88643142  1
  H  H63  1  0.87789586  0.05590805  0.89755886  1
  H  H64  1  0.87606721  0.38834488  0.89171043  1
  H  H65  1  0.87511509  0.71955073  0.88782807  1
  H  H66  1  0.12254360  0.27894274  0.38792053  1
  H  H67  1  0.12602487  0.61419982  0.38675188  1
  H  H68  1  0.12638210  0.94675663  0.39005472  1
  H  H69  1  0.61870413  0.27618335  0.39923290  1
  H  H70  1  0.62676420  0.61608440  0.37619160  1
  H  H71  1  0.62814089  0.94764267  0.38148474  1
  H  H72  1  0.37643220  0.22286360  0.60834759  1
  H  H73  1  0.37335038  0.55505772  0.61717199  1
  H  H74  1  0.37403914  0.88612980  0.61163389  1
  H  H75  1  0.87888487  0.21793303  0.62417797  1
  H  H76  1  0.87051068  0.55691137  0.60146076  1
  H  H77  1  0.86833484  0.88766848  0.60377486  1
  H  H78  1  0.12216694  0.11335384  0.11262873  1
  H  H79  1  0.12481922  0.44643765  0.10878606  1
  H  H80  1  0.12347053  0.78200610  0.11683410  1
  H  H81  1  0.62440964  0.11476850  0.11471148  1
  H  H82  1  0.62325135  0.44541713  0.11146890  1
  H  H83  1  0.62679162  0.77927300  0.10990174  1
  H  H84  1  0.12095177  0.21866492  0.87971601  1
  H  H85  1  0.12005172  0.55106333  0.87855595  1
  H  H86  1  0.12827500  0.88754166  0.89010473  1
  H  H87  1  0.62728594  0.22366377  0.89866655  1
  H  H88  1  0.62411630  0.55463956  0.89266408  1
  H  H89  1  0.63670369  0.88985972  0.90292822  1
  H  H90  1  0.36739187  0.10776118  0.40336604  1
  H  H91  1  0.37833068  0.44623229  0.38399590  1
  H  H92  1  0.37627109  0.77960059  0.38637900  1
  H  H93  1  0.86914318  0.11060689  0.39904292  1
  H  H94  1  0.87949423  0.44721237  0.38118064  1
  H  H95  1  0.87188108  0.77720887  0.39791642  1
  H  H96  1  0.37153824  0.28020093  0.37777963  1
  H  H97  1  0.38130548  0.61048207  0.40246769  1
  H  H98  1  0.37988174  0.94459039  0.39814686  1
  H  H99  1  0.87360927  0.27966803  0.38962743  1
  H  H100  1  0.87637091  0.61497225  0.38328073  1
  H  H101  1  0.87624144  0.94477060  0.38691958  1
  H  H102  1  0.12604598  0.05327031  0.88554055  1
  H  H103  1  0.12486525  0.38806222  0.89300934  1
  H  H104  1  0.12448956  0.71958244  0.88623623  1
  H  H105  1  0.62756924  0.05428876  0.88984743  1
  H  H106  1  0.62714945  0.38589666  0.88265986  1
  H  H107  1  0.62585408  0.72076959  0.88953316  1
  H  H108  1  0.12449729  0.28022894  0.10754294  1
  H  H109  1  0.12773111  0.61042403  0.10814862  1
  H  H110  1  0.11698598  0.94134821  0.09733991  1
  H  H111  1  0.62757896  0.27962449  0.11636625  1
  H  H112  1  0.62828321  0.61552596  0.12126897  1
  H  H113  1  0.62030657  0.94505302  0.10354016  1
  H  H114  1  0.37934373  0.05399639  0.61174809  1
  H  H115  1  0.36923478  0.38498035  0.62015683  1
  H  H116  1  0.37651268  0.72186575  0.60930114  1
  H  H117  1  0.88599406  0.05777115  0.59730331  1
  H  H118  1  0.87304936  0.38522054  0.61587219  1
  H  H119  1  0.87527216  0.72260227  0.60787080  1
  H  H120  1  0.12070588  0.11450589  0.38235333  1
  H  H121  1  0.13054508  0.44345002  0.39858193  1
  H  H122  1  0.12751753  0.77606408  0.39707125  1
  H  H123  1  0.62087479  0.11418255  0.38452342  1
  H  H124  1  0.63037060  0.44414255  0.39766123  1
  H  H125  1  0.62322698  0.78104417  0.38561428  1
  H  H126  1  0.37001302  0.22269920  0.89343045  1
  H  H127  1  0.36849957  0.55358975  0.89634542  1
  H  H128  1  0.37750079  0.88744290  0.89007142  1
  H  H129  1  0.87536610  0.21987966  0.88738263  1
  H  H130  1  0.87310686  0.55433419  0.89059107  1
  H  H131  1  0.88329919  0.88386111  0.87375085  1
  H  H132  1  0.37198502  0.11251524  0.10880179  1
  H  H133  1  0.37389804  0.44465193  0.10915698  1
  H  H134  1  0.37277276  0.77899365  0.10911704  1
  H  H135  1  0.87305354  0.11053695  0.10374382  1
  H  H136  1  0.87201715  0.44439373  0.10276965  1
  H  H137  1  0.87584016  0.78000255  0.11028474  1
  H  H138  1  0.12825885  0.21855907  0.60671181  1
  H  H139  1  0.12375209  0.55310007  0.60854232  1
  H  H140  1  0.12545055  0.88850907  0.60709122  1
  H  H141  1  0.63107816  0.22072660  0.60353990  1
  H  H142  1  0.62241412  0.55279849  0.62256968  1
  H  H143  1  0.62016300  0.88565509  0.62088965  1
  H  H144  1  0.69213347  0.41375731  0.49950238  1
  H  H145  1  0.55520928  0.91764660  -0.00269697  1
  H  H146  1  0.65933108  0.75330228  0.49295970  1
  H  H147  1  0.17829768  0.25973281  0.50908677  1
  H  H148  1  0.60042642  0.58695779  0.00808671  1
  H  H149  1  0.89574536  0.91771654  0.00774358  1
  H  H150  1  0.14626405  0.57836883  0.99205191  1
  H  H151  1  0.15131310  0.24834593  0.99164061  1
  H  H152  1  0.91807318  0.74875714  0.99830272  1
  H  H153  1  0.69462285  0.24578450  0.49421293  1
  H  H154  1  0.80668147  0.91309473  0.49323214  1
  H  H155  1  0.44654868  0.25426267  -0.00217169  1
  H  H156  1  0.07688398  0.59579000  0.50084749  1
  H  H157  1  0.80479668  0.58132133  0.49891281  1
  H  H158  1  0.33065202  0.57304865  0.50824573  1
  H  H159  1  0.43849981  0.58473241  -0.00407375  1
  H  H160  1  0.44630363  0.91836398  0.50505650  1
  H  H161  1  0.70680687  0.91640487  1.00928808  1
  H  H162  1  0.16457743  0.08433712  0.00746695  1
  H  H163  1  0.66579700  0.41751297  0.00603670  1
  H  H164  1  0.91965730  0.59183935  0.49754396  1
  H  H165  1  0.57393774  0.74852965  0.99800764  1
  H  H166  1  0.95623329  0.08525981  0.49147277  1
  H  H167  1  0.32307096  0.93088483  0.51360062  1
  H  H168  1  0.07505678  0.92629032  0.50271819  1
  H  H169  1  0.80294791  0.08607342  0.50203778  1
  H  H170  1  0.32301503  0.08443014  -0.00070539  1
  H  H171  1  0.14565177  0.08371199  0.49220473  1
  H  H172  1  0.92060424  0.25094675  0.49824565  1
  H  H173  1  0.83444313  0.24739373  0.99337658  1
  H  H174  1  0.55552834  0.41487207  0.49440511  1
  H  H175  1  0.55048220  0.24669365  0.50424304  1
  H  H176  1  0.32833198  0.91440425  0.99916411  1
  H  H177  1  0.33022759  0.24197752  0.50247469  1
  H  H178  1  0.84756295  0.41779793  0.49319599  1
  H  H179  1  0.57543651  0.08293099  0.99800153  1
  H  H180  1  0.30877263  0.57938363  1.00552191  1
  H  H181  1  0.45703624  0.58961341  0.50373305  1
  H  H182  1  0.92332776  0.92150677  0.49441874  1
  H  H183  1  0.18098047  0.57077155  0.49611048  1
  H  H184  1  0.40022582  0.41311081  0.51260834  1
  H  H185  1  0.82679938  0.58270646  0.99628289  1
  H  H186  1  0.18402493  0.89513766  0.50069589  1
  H  H187  1  0.08526700  0.74885951  0.99693045  1
  H  H188  1  0.33768851  0.75120292  0.49322302  1
  H  H189  1  0.31349778  0.25114731  1.00240019  1
  H  H190  1  0.32097178  0.74995790  -0.00083013  1
  H  H191  1  0.65016085  0.58244671  0.50978457  1
  Pb  Pb192  1  0.25594814  0.04831330  0.75305635  1
  Pb  Pb193  1  0.24916478  0.37874379  0.75333498  1
  Pb  Pb194  1  0.24818882  0.71340714  0.74636550  1
  Pb  Pb195  1  0.75035275  0.04552307  0.74565484  1
  Pb  Pb196  1  0.75287813  0.38147130  0.74636914  1
  Pb  Pb197  1  0.75122525  0.71363976  0.74630588  1
  Pb  Pb198  1  0.24416880  0.28550429  0.24842920  1
  Pb  Pb199  1  0.25325966  0.61963181  0.25259850  1
  Pb  Pb200  1  0.24974632  0.95351492  0.25474135  1
  Pb  Pb201  1  0.75280166  0.28620147  0.25148474  1
  Pb  Pb202  1  0.75210639  0.61992355  0.25016436  1
  Pb  Pb203  1  0.74568709  0.95345416  0.24856545  1
  Pb  Pb204  1  0.00072347  0.21185422  0.74822682  1
  Pb  Pb205  1  0.00017123  0.54575770  0.74458848  1
  Pb  Pb206  1  0.00308840  0.88189102  0.74357380  1
  Pb  Pb207  1  0.50519539  0.21533725  0.75196626  1
  Pb  Pb208  1  0.49738724  0.54701633  0.75099073  1
  Pb  Pb209  1  0.49980096  0.87793024  0.75413008  1
  Pb  Pb210  1  -0.00528171  0.11843968  0.25059239  1
  Pb  Pb211  1  0.00124079  0.45577976  0.25031133  1
  Pb  Pb212  1  -0.00039744  0.78768510  0.25131758  1
  Pb  Pb213  1  0.49786956  0.12172656  0.25016552  1
  Pb  Pb214  1  0.50093666  0.45026243  0.25274174  1
  Pb  Pb215  1  0.50103678  0.78783805  0.24829150  1
  C  C216  1  0.00363839  0.04705231  0.63259109  1
  C  C217  1  -0.00054923  0.37963896  0.63348385  1
  C  C218  1  -0.00055630  0.71429003  0.63232226  1
  C  C219  1  0.50495270  0.04714134  0.63195182  1
  C  C220  1  0.49666338  0.38041511  0.63383491  1
  C  C221  1  0.50092948  0.71407910  0.63256733  1
  C  C222  1  0.00076815  0.28775684  0.13256052  1
  C  C223  1  0.00384067  0.61986597  0.13233527  1
  C  C224  1  -0.00288663  0.95304557  0.12949328  1
  C  C225  1  0.50062978  0.28745645  0.13244653  1
  C  C226  1  0.50138770  0.62032521  0.13415442  1
  C  C227  1  0.49959855  0.95359045  0.13571263  1
  C  C228  1  -0.00038218  0.04600367  0.86680632  1
  C  C229  1  0.00053305  0.37971517  0.86738841  1
  C  C230  1  -0.00048621  0.71267080  0.86596928  1
  C  C231  1  0.50365990  0.04650012  0.86457051  1
  C  C232  1  0.50029549  0.38010089  0.86853323  1
  C  C233  1  0.50182222  0.71326559  0.86444768  1
  C  C234  1  -0.00226507  0.28747141  0.36542936  1
  C  C235  1  0.00180528  0.62049325  0.36363860  1
  C  C236  1  0.00157621  0.95276390  0.36578972  1
  C  C237  1  0.49908692  0.28612552  0.36578115  1
  C  C238  1  0.49899804  0.62167415  0.36573274  1
  C  C239  1  0.50081378  0.95360618  0.36607082  1
  C  C240  1  0.25228748  0.21354416  0.63021580  1
  C  C241  1  0.24743031  0.54614772  0.63535307  1
  C  C242  1  0.24878997  0.87998545  0.63198879  1
  C  C243  1  0.75077034  0.21300064  0.63501991  1
  C  C244  1  0.75014585  0.54689451  0.63407223  1
  C  C245  1  0.74785689  0.88033797  0.63371827  1
  C  C246  1  0.24762377  0.11918912  0.13344611  1
  C  C247  1  0.24949357  0.45318972  0.13239436  1
  C  C248  1  0.25043463  0.78721115  0.13448745  1
  C  C249  1  0.75079700  0.12040470  0.13235426  1
  C  C250  1  0.74892534  0.45281389  0.13094332  1
  C  C251  1  0.75124201  0.78681653  0.13372592  1
  C  C252  1  0.24781364  0.21338950  0.86559382  1
  C  C253  1  0.24717723  0.54595481  0.86645640  1
  C  C254  1  0.25300294  0.87978539  0.86643554  1
  C  C255  1  0.74927628  0.21336325  0.86904844  1
  C  C256  1  0.74857307  0.54600578  0.86955791  1
  C  C257  1  0.75430819  0.88011156  0.86772417  1
  C  C258  1  0.24763576  0.11931560  0.37068443  1
  C  C259  1  0.25177313  0.45250157  0.36640298  1
  C  C260  1  0.25018597  0.78556274  0.36915112  1
  C  C261  1  0.74811682  0.11989068  0.36737520  1
  C  C262  1  0.75194052  0.45245404  0.36681798  1
  C  C263  1  0.74958127  0.78624950  0.36912003  1
  C  C264  1  0.77995992  0.09020518  0.03880625  1
  C  C265  1  0.47239866  0.59489868  0.03761234  1
  C  C266  1  0.80394962  0.42789334  0.45703701  1
  C  C267  1  0.96377064  0.74090066  0.53893145  1
  C  C268  1  0.69488260  0.57313841  0.54550482  1
  C  C269  1  0.47509589  0.41017460  0.96293396  1
  C  C270  1  0.52360011  0.40544491  0.53736375  1
  C  C271  1  0.02789022  0.40844812  0.53909067  1
  C  C272  1  0.20194670  0.76209818  0.04319730  1
  C  C273  1  0.06706606  0.06986183  0.54584686  1
  C  C274  1  0.55423372  0.59607442  0.04341500  1
  C  C275  1  0.78182854  0.75870576  0.46496315  1
  C  C276  1  0.03937305  0.59152896  0.03903115  1
  C  C277  1  0.53741629  0.07442061  0.53816476  1
  C  C278  1  0.53600266  0.73855206  0.95827827  1
  C  C279  1  0.51964164  0.25838056  0.46139690  1
  C  C280  1  0.04030350  0.92905043  0.46007804  1
  C  C281  1  0.95847947  0.59917193  0.45776722  1
  C  C282  1  0.27507442  0.57029575  0.96350107  1
  C  C283  1  0.96178565  0.26170272  0.45897787  1
  C  C284  1  0.52300409  0.92780099  0.04003048  1
  C  C285  1  0.28328132  0.76067347  0.03870254  1
  C  C286  1  0.96058803  0.25847767  0.04075456  1
  C  C287  1  0.27244334  0.08843550  0.46662710  1
  C  C288  1  0.47716022  0.92817114  0.46187470  1
  C  C289  1  0.95960932  0.73846419  0.96023569  1
  C  C290  1  0.04047825  0.59979357  0.45921615  1
  C  C291  1  0.28613274  0.42544852  0.03973148  1
  C  C292  1  0.73710077  0.90548546  0.96607154  1
  C  C293  1  0.02243892  0.92336627  0.03328344  1
  C  C294  1  0.53893817  0.74151180  0.53952815  1
  C  C295  1  0.98670241  0.07313589  0.53437255  1
  C  C296  1  0.69352223  0.90387577  0.54411863  1
  C  C297  1  0.72718158  0.23708750  0.53707734  1
  C  C298  1  0.81733462  0.90305765  0.95441307  1
  C  C299  1  0.28517229  0.09401655  0.03910903  1
  C  C300  1  0.04195117  0.73838721  0.95957913  1
  C  C301  1  0.19645682  0.23849559  0.95651090  1
  C  C302  1  0.27834400  0.23970216  0.96163032  1
  C  C303  1  0.70797651  0.57551839  0.96271870  1
  C  C304  1  0.80817855  0.23628713  0.54614401  1
  C  C305  1  0.21250465  0.56997035  0.54014120  1
  C  C306  1  0.53757470  0.07264019  0.95827341  1
  C  C307  1  0.77422642  0.90435552  0.53603300  1
  C  C308  1  0.78913756  0.76042917  0.04043017  1
  C  C309  1  0.21648550  0.75667694  0.46426948  1
  C  C310  1  0.28941557  0.90474916  0.95991739  1
  C  C311  1  0.19329239  0.56940865  0.95709377  1
  N  N312  1  0.03859964  0.25833766  0.03837160  1
  N  N313  1  0.72457952  0.42834751  0.46205289  1
  N  N314  1  0.04103397  0.74029957  0.53800351  1
  N  N315  1  0.22401437  0.42740505  0.46273461  1
  N  N316  1  0.19427836  0.09200143  0.45860027  1
  N  N317  1  0.71553813  0.24082798  0.96378688  1
  N  N318  1  0.96144376  0.59282342  0.03839487  1
  N  N319  1  0.21011585  0.90501552  0.96040202  1
  N  N320  1  0.21331021  0.23273567  0.53634148  1
  N  N321  1  0.77329293  0.09483656  0.46143792  1
  N  N322  1  0.70298126  0.76061115  0.45952848  1
  N  N323  1  0.04681031  0.07248858  0.95817151  1
  N  N324  1  0.45808887  0.07264864  0.95747329  1
  N  N325  1  0.44401308  0.92836512  0.04584943  1
  N  N326  1  0.71132309  0.76035602  0.03912165  1
  N  N327  1  0.04121105  0.26169991  0.45925540  1
  N  N328  1  0.46006288  0.07406756  0.53888620  1
  N  N329  1  0.46081490  0.74117939  0.53813432  1
  N  N330  1  0.21173456  0.90961212  0.54047054  1
  N  N331  1  0.77410140  0.57545267  0.53962967  1
  N  N332  1  0.29206669  0.90043645  0.53958579  1
  N  N333  1  0.44086652  0.25967746  0.45438329  1
  N  N334  1  0.96094677  0.92590311  0.45735060  1
  N  N335  1  0.20886836  0.42607775  0.03836023  1
  N  N336  1  0.70628119  0.42566418  0.04125663  1
  N  N337  1  0.29176286  0.57332516  0.54487002  1
  N  N338  1  0.20548634  0.09387538  0.04173669  1
  N  N339  1  0.29196443  0.24473984  0.54011976  1
  N  N340  1  0.29539247  0.75892775  0.45965978  1
  N  N341  1  0.30034181  0.42850040  0.45813541  1
  N  N342  1  0.94428483  0.92667670  0.04120352  1
  N  N343  1  0.44456735  0.40459816  0.54492883  1
  N  N344  1  0.97048407  0.07368162  0.96220047  1
  N  N345  1  0.96183220  0.40707847  0.96073873  1
  N  N346  1  0.55599535  0.92831036  0.45598649  1
  N  N347  1  0.47580741  0.26059932  0.03895861  1
  N  N348  1  0.55357666  0.26141696  0.04270877  1
  N  N349  1  0.03799656  0.40705690  0.96111142  1
  N  N350  1  0.95045879  0.40683896  0.54177377  1
  N  N351  1  0.78720822  0.57481121  0.96097324  1
  N  N352  1  0.48184040  0.59304488  0.46008405  1
  N  N353  1  0.55921520  0.59530570  0.45238605  1
  N  N354  1  0.45653704  0.73810783  0.95777898  1
  N  N355  1  0.70227607  0.09147951  0.04091811  1
  N  N356  1  0.78449177  0.42552573  0.03668225  1
  N  N357  1  0.69564295  0.09661357  0.45786513  1
  N  N358  1  0.55260652  0.40841688  0.95884528  1
  N  N359  1  0.79344401  0.23989461  0.95837637  1
  N  N360  1  0.07660787  0.05434655  0.60559186  1
  N  N361  1  0.06030226  0.39195643  0.59403094  1
  N  N362  1  0.06364067  0.72347641  0.59758301  1
  N  N363  1  0.56787417  0.05821003  0.59406680  1
  N  N364  1  0.55629918  0.39058676  0.59261403  1
  N  N365  1  0.56538353  0.72516475  0.59658338  1
  N  N366  1  0.44162869  0.27836542  0.09248334  1
  N  N367  1  0.44075761  0.60993521  0.09445928  1
  N  N368  1  0.43129043  0.94437079  0.10568924  1
  N  N369  1  0.93551242  0.27603076  0.09775843  1
  N  N370  1  0.93955203  0.61083534  0.09791937  1
  N  N371  1  0.92826253  0.94514733  0.10037903  1
  N  N372  1  0.43891763  0.05653418  0.89875915  1
  N  N373  1  0.44068997  0.39307980  0.90887457  1
  N  N374  1  0.43719975  0.72244366  0.89901522  1
  N  N375  1  0.93977498  0.05729690  0.90578207  1
  N  N376  1  0.93702798  0.39009581  0.90281120  1
  N  N377  1  0.93493136  0.72269828  0.90152610  1
  N  N378  1  0.06178920  0.27775349  0.40037453  1
  N  N379  1  0.06629643  0.61256362  0.40028659  1
  N  N380  1  0.06615171  0.94422171  0.40284468  1
  N  N381  1  0.55682000  0.27472221  0.40750694  1
  N  N382  1  0.56914106  0.61106555  0.39314487  1
  N  N383  1  0.56895346  0.94405204  0.39648598  1
  N  N384  1  0.31633271  0.22241393  0.59500055  1
  N  N385  1  0.31330906  0.55575486  0.60288264  1
  N  N386  1  0.31375928  0.89334863  0.59951146  1
  N  N387  1  0.82168767  0.22190849  0.60541422  1
  N  N388  1  0.80829998  0.55721925  0.59369133  1
  N  N389  1  0.80744910  0.88967449  0.59336354  1
  N  N390  1  0.18256207  0.10899650  0.09994471  1
  N  N391  1  0.18565565  0.44347595  0.09743530  1
  N  N392  1  0.18242753  0.77791278  0.10109471  1
  N  N393  1  0.68415806  0.11064958  0.10075230  1
  N  N394  1  0.68327330  0.44306117  0.09798756  1
  N  N395  1  0.68770558  0.77706160  0.09847234  1
  N  N396  1  0.17914508  0.22223034  0.89680570  1
  N  N397  1  0.17779464  0.55453411  0.89651508  1
  N  N398  1  0.18932636  0.88936066  0.90198759  1
  N  N399  1  0.68847852  0.22486941  0.90754590  1
  N  N400  1  0.68392072  0.55806091  0.90598439  1
  N  N401  1  0.69860295  0.89081158  0.91065355  1
  N  N402  1  0.30602675  0.10548452  0.41240602  1
  N  N403  1  0.31885828  0.44393321  0.39819751  1
  N  N404  1  0.31679707  0.77710464  0.40114027  1
  N  N405  1  0.80724127  0.11010648  0.40717110  1
  N  N406  1  0.82119572  0.44352836  0.39812054  1
  N  N407  1  0.81099065  0.77448440  0.40892193  1
  N  N408  1  0.43000681  0.27715224  0.39461283  1
  N  N409  1  0.44363802  0.61158295  0.40836594  1
  N  N410  1  0.44143701  0.94327581  0.40684249  1
  N  N411  1  0.93384891  0.27720008  0.40170273  1
  N  N412  1  0.93578617  0.61191364  0.39815546  1
  N  N413  1  0.93696886  0.94263794  0.39981781  1
  N  N414  1  0.06607388  0.05534292  0.89897100  1
  N  N415  1  0.06374516  0.39019093  0.90321587  1
  N  N416  1  0.06502747  0.72238802  0.90060262  1
  N  N417  1  0.56697732  0.05680505  0.90161519  1
  N  N418  1  0.56822721  0.38937900  0.89852050  1
  N  N419  1  0.56517797  0.72372740  0.90127624  1
  N  N420  1  0.06363863  0.27711428  0.09693913  1
  N  N421  1  0.06751111  0.60810229  0.09566269  1
  N  N422  1  0.05576666  0.93975272  0.08781255  1
  N  N423  1  0.56842515  0.27676343  0.10162724  1
  N  N424  1  0.57051495  0.61172812  0.10371702  1
  N  N425  1  0.55851680  0.94295351  0.09479907  1
  N  N426  1  0.43966782  0.05693270  0.59869536  1
  N  N427  1  0.42821505  0.38983925  0.60446649  1
  N  N428  1  0.43734700  0.72397100  0.59748887  1
  N  N429  1  0.94807133  0.05838579  0.58973671  1
  N  N430  1  0.93251227  0.38861386  0.60192152  1
  N  N431  1  0.93539099  0.72528999  0.59565584  1
  N  N432  1  0.17859364  0.11097764  0.39943786  1
  N  N433  1  0.19267098  0.44230322  0.40624123  1
  N  N434  1  0.18814800  0.77309990  0.40832148  1
  N  N435  1  0.68035280  0.11115761  0.39894835  1
  N  N436  1  0.69238337  0.44197351  0.40596417  1
  N  N437  1  0.68255686  0.77782459  0.40057174  1
  N  N438  1  0.30904238  0.22395590  0.90455064  1
  N  N439  1  0.30738374  0.55580018  0.90658267  1
  N  N440  1  0.31734702  0.88967112  0.90239896  1
  N  N441  1  0.81548327  0.22257527  0.90136222  1
  N  N442  1  0.81282079  0.55556437  0.90389062  1
  N  N443  1  0.82714347  0.88789421  0.89463715  1
  N  N444  1  0.31155119  0.10958052  0.09616765  1
  N  N445  1  0.31400229  0.44187390  0.09631194  1
  N  N446  1  0.31245471  0.77643193  0.09693666  1
  N  N447  1  0.81217600  0.10751389  0.09356627  1
  N  N448  1  0.81061084  0.44173496  0.09313965  1
  N  N449  1  0.81573552  0.77648090  0.09746605  1
  N  N450  1  0.18866618  0.22480908  0.59561066  1
  N  N451  1  0.18436202  0.55547876  0.59679204  1
  N  N452  1  0.18597311  0.88599126  0.59483919  1
  N  N453  1  0.69237168  0.22262572  0.59382206  1
  N  N454  1  0.67988074  0.55642984  0.60442573  1
  N  N455  1  0.67787877  0.88954933  0.60292026  1
  Cl  Cl456  1  0.25676062  0.05083033  0.61988149  1
  Cl  Cl457  1  0.24518211  0.38331010  0.61954556  1
  Cl  Cl458  1  0.25190492  0.72252034  0.61024399  1
  Cl  Cl459  1  0.76034369  0.05672284  0.60779130  1
  Cl  Cl460  1  0.74127807  0.39057108  0.60596341  1
  Cl  Cl461  1  0.74892899  0.72190888  0.61062622  1
  Cl  Cl462  1  0.25598037  0.27859138  0.11389560  1
  Cl  Cl463  1  0.25389586  0.61147217  0.12011612  1
  Cl  Cl464  1  0.24338637  0.94734105  0.12263217  1
  Cl  Cl465  1  0.75273040  0.27894267  0.11825083  1
  Cl  Cl466  1  0.75584672  0.61237597  0.11690878  1
  Cl  Cl467  1  0.74365262  0.94696106  0.11499131  1
  Cl  Cl468  1  0.25084905  0.05668988  0.88910180  1
  Cl  Cl469  1  0.25283858  0.38731783  0.88412270  1
  Cl  Cl470  1  0.25223567  0.71986247  0.87757012  1
  Cl  Cl471  1  0.75451423  0.05303589  0.87805788  1
  Cl  Cl472  1  0.75196342  0.38806837  0.87953287  1
  Cl  Cl473  1  0.74945575  0.71544252  0.87707793  1
  Cl  Cl474  1  0.24661451  0.27466218  0.38624021  1
  Cl  Cl475  1  0.25816867  0.60981290  0.39421343  1
  Cl  Cl476  1  0.25290736  0.94214994  0.39758558  1
  Cl  Cl477  1  0.74399979  0.27992397  0.38632899  1
  Cl  Cl478  1  0.75320587  0.61226471  0.38946431  1
  Cl  Cl479  1  0.75563564  0.94699425  0.38351096  1
  Cl  Cl480  1  0.00559725  0.21901158  0.61548979  1
  Cl  Cl481  1  -0.00460268  0.55511904  0.60890803  1
  Cl  Cl482  1  -0.00033909  0.89158375  0.60598033  1
  Cl  Cl483  1  0.50263387  0.22160385  0.61639416  1
  Cl  Cl484  1  0.49471862  0.55750813  0.60792534  1
  Cl  Cl485  1  0.49310102  0.88536840  0.61869198  1
  Cl  Cl486  1  -0.00116644  0.11573269  0.12008404  1
  Cl  Cl487  1  -0.00299443  0.44964208  0.11915252  1
  Cl  Cl488  1  -0.00177246  0.78283483  0.11640848  1
  Cl  Cl489  1  0.49842429  0.11497366  0.11616133  1
  Cl  Cl490  1  0.50021056  0.44626201  0.12139028  1
  Cl  Cl491  1  0.50248055  0.77988439  0.11630161  1
  Cl  Cl492  1  -0.00426845  0.21890740  0.87905521  1
  Cl  Cl493  1  -0.00504948  0.55446954  0.87527463  1
  Cl  Cl494  1  0.00751486  0.88734285  0.87588784  1
  Cl  Cl495  1  0.49625666  0.22572718  0.88950028  1
  Cl  Cl496  1  0.49597273  0.55274612  0.88317783  1
  Cl  Cl497  1  0.50933101  0.88866667  0.88757914  1
  Cl  Cl498  1  -0.00870445  0.11126233  0.38693069  1
  Cl  Cl499  1  0.00751829  0.44679554  0.38344192  1
  Cl  Cl500  1  -0.00101426  0.78268924  0.38233140  1
  Cl  Cl501  1  0.49514988  0.11482600  0.38151031  1
  Cl  Cl502  1  0.50647801  0.44449780  0.39197442  1
  Cl  Cl503  1  0.49978337  0.78008642  0.38127418  1
  Cl  Cl504  1  0.35750708  0.14413857  0.75109439  1
  Cl  Cl505  1  0.36305883  0.47783713  0.74462749  1
  Cl  Cl506  1  0.36231879  0.81114801  0.74714854  1
  Cl  Cl507  1  0.86405974  0.14504375  0.74724720  1
  Cl  Cl508  1  0.85757717  0.47746077  0.74778415  1
  Cl  Cl509  1  0.86264285  0.81105031  0.75317269  1
  Cl  Cl510  1  0.14082354  0.18983395  0.25326750  1
  Cl  Cl511  1  0.13787294  0.52326206  0.25091381  1
  Cl  Cl512  1  0.13716829  0.85454515  0.25234034  1
  Cl  Cl513  1  0.63588958  0.18828003  0.24942190  1
  Cl  Cl514  1  0.63916136  0.52274636  0.25126838  1
  Cl  Cl515  1  0.63867996  0.85606606  0.25263100  1
  Cl  Cl516  1  0.13662249  0.14431492  0.74785598  1
  Cl  Cl517  1  0.13764178  0.47996857  0.75036524  1
  Cl  Cl518  1  0.13982810  0.81021869  0.74850676  1
  Cl  Cl519  1  0.64003708  0.14604621  0.75207459  1
  Cl  Cl520  1  0.63618395  0.47804679  0.74725272  1
  Cl  Cl521  1  0.63637961  0.81165740  0.74619974  1
  Cl  Cl522  1  0.36177921  0.18812270  0.25216548  1
  Cl  Cl523  1  0.36244939  0.52319834  0.25214988  1
  Cl  Cl524  1  0.36255286  0.85553435  0.25222319  1
  Cl  Cl525  1  0.86049923  0.18871849  0.25101629  1
  Cl  Cl526  1  0.86097179  0.52164378  0.25418348  1
  Cl  Cl527  1  0.86319922  0.85612153  0.25158636  1
  Cl  Cl528  1  0.11340500  0.31039933  0.75142276  1
  Cl  Cl529  1  0.11262064  0.64436694  0.74746617  1
  Cl  Cl530  1  0.11299549  0.97508823  0.74428517  1
  Cl  Cl531  1  0.60736256  0.31086316  0.75107435  1
  Cl  Cl532  1  0.61419965  0.64344252  0.74620883  1
  Cl  Cl533  1  0.61336754  0.97827042  0.74730720  1
  Cl  Cl534  1  0.38496594  0.02181008  0.24648488  1
  Cl  Cl535  1  0.39011879  0.35743502  0.25586678  1
  Cl  Cl536  1  0.38947243  0.68803278  0.25048746  1
  Cl  Cl537  1  0.89086732  0.02301066  0.24922488  1
  Cl  Cl538  1  0.88646512  0.35587533  0.25095725  1
  Cl  Cl539  1  0.88769762  0.68849369  0.24949643  1
  Cl  Cl540  1  0.38455522  0.31105412  0.74711116  1
  Cl  Cl541  1  0.38924698  0.64346309  0.74733046  1
  Cl  Cl542  1  0.38684051  0.97818130  0.75004290  1
  Cl  Cl543  1  0.88649442  0.31158535  0.74529909  1
  Cl  Cl544  1  0.88515061  0.64468755  0.74696038  1
  Cl  Cl545  1  0.88988779  0.97704495  0.75001982  1
  Cl  Cl546  1  0.11268683  0.02166822  0.25174224  1
  Cl  Cl547  1  0.11301178  0.35509124  0.24911220  1
  Cl  Cl548  1  0.11371798  0.68928174  0.25089958  1
  Cl  Cl549  1  0.61147287  0.02204542  0.25376217  1
  Cl  Cl550  1  0.60869966  0.35656174  0.24945632  1
  Cl  Cl551  1  0.61473023  0.68871446  0.25145901  1
