# generated using pymatgen
data_H8PbC4(N3Cl2)2
_symmetry_space_group_name_H-M   'P 1'
_cell_length_a   16.62910357
_cell_length_b   22.51033967
_cell_length_c   21.59239496
_cell_angle_alpha   89.99848794
_cell_angle_beta   89.99347807
_cell_angle_gamma   90.00190063
_symmetry_Int_Tables_number   1
_chemical_formula_structural   H8PbC4(N3Cl2)2
_chemical_formula_sum   'H192 Pb24 C96 N144 Cl96'
_cell_volume   8082.61139953
_cell_formula_units_Z   24
loop_
 _symmetry_equiv_pos_site_id
 _symmetry_equiv_pos_as_xyz
  1  'x, y, z'
loop_
 _atom_site_type_symbol
 _atom_site_label
 _atom_site_symmetry_multiplicity
 _atom_site_fract_x
 _atom_site_fract_y
 _atom_site_fract_z
 _atom_site_occupancy
  H  H0  1  -0.00791580  0.03013187  0.67750909  1
  H  H1  1  -0.01113878  0.36520513  0.67692133  1
  H  H2  1  0.01004834  0.69716035  0.68075725  1
  H  H3  1  0.49603791  0.02991149  0.67734773  1
  H  H4  1  0.49419124  0.36496231  0.68364182  1
  H  H5  1  0.49328452  0.69901367  0.67978400  1
  H  H6  1  0.00519814  0.30616716  0.17962884  1
  H  H7  1  0.00387549  0.63870045  0.17511823  1
  H  H8  1  -0.01785516  0.97010989  0.17830071  1
  H  H9  1  0.49795947  0.30555927  0.17963737  1
  H  H10  1  0.49811268  0.63444808  0.17929570  1
  H  H11  1  0.51248161  0.97085736  0.17714960  1
  H  H12  1  0.00415181  0.03045248  0.81808344  1
  H  H13  1  0.00419617  0.36488516  0.82017899  1
  H  H14  1  -0.00850064  0.69298547  0.81919920  1
  H  H15  1  0.49138087  0.03174877  0.81752747  1
  H  H16  1  0.50865438  0.36302316  0.82385790  1
  H  H17  1  0.49548007  0.69713247  0.82312249  1
  H  H18  1  -0.00936587  0.30216332  0.32199297  1
  H  H19  1  -0.00550505  0.63573352  0.32604290  1
  H  H20  1  0.00439401  0.96804271  0.31727712  1
  H  H21  1  0.51010470  0.30030293  0.31548723  1
  H  H22  1  0.50393223  0.63400079  0.31672056  1
  H  H23  1  0.50174532  0.97030581  0.31896995  1
  H  H24  1  0.26166756  0.19601844  0.67693241  1
  H  H25  1  0.26223124  0.53180217  0.68004250  1
  H  H26  1  0.24732869  0.86784512  0.68191084  1
  H  H27  1  0.74251120  0.19867303  0.68066282  1
  H  H28  1  0.73693483  0.53168636  0.68154375  1
  H  H29  1  0.74412667  0.86270432  0.68258301  1
  H  H30  1  0.25089398  0.13555102  0.18240042  1
  H  H31  1  0.24323155  0.46854385  0.17499368  1
  H  H32  1  0.26219818  0.80207712  0.17570555  1
  H  H33  1  0.74867890  0.13917388  0.17953300  1
  H  H34  1  0.74709464  0.46987510  0.17724089  1
  H  H35  1  0.75010036  0.80034144  0.17942992  1
  H  H36  1  0.24129659  0.19691875  0.81816018  1
  H  H37  1  0.25228962  0.53110404  0.82080749  1
  H  H38  1  0.25075802  0.86101817  0.82072586  1
  H  H39  1  0.74688343  0.19617516  0.81814446  1
  H  H40  1  0.74494262  0.52924226  0.82416338  1
  H  H41  1  0.74811890  0.85277784  0.82417647  1
  H  H42  1  0.25389712  0.13646257  0.32483670  1
  H  H43  1  0.24857132  0.46825879  0.32122306  1
  H  H44  1  0.25845498  0.80299447  0.31784286  1
  H  H45  1  0.75302319  0.13418390  0.31973753  1
  H  H46  1  0.74860848  0.46965188  0.31854072  1
  H  H47  1  0.74213595  0.80010305  0.31898040  1
  H  H48  1  0.13319833  0.04997680  0.62653048  1
  H  H49  1  0.12713779  0.38461674  0.62109188  1
  H  H50  1  0.11933286  0.72369586  0.59854145  1
  H  H51  1  0.63139457  0.05279306  0.61805629  1
  H  H52  1  0.62584165  0.38509668  0.61745497  1
  H  H53  1  0.62295245  0.71870587  0.61355654  1
  H  H54  1  0.37427371  0.27997064  0.10889831  1
  H  H55  1  0.38295640  0.61363859  0.10234609  1
  H  H56  1  0.37509599  0.94765490  0.12273132  1
  H  H57  1  0.87063781  0.28375920  0.12129783  1
  H  H58  1  0.87889932  0.61279341  0.10577756  1
  H  H59  1  0.87975800  0.93956692  0.09145138  1
  H  H60  1  0.37543302  0.05561201  0.89724440  1
  H  H61  1  0.36956628  0.38385383  0.87764742  1
  H  H62  1  0.37953636  0.72206881  0.89922149  1
  H  H63  1  0.87339315  0.05414054  0.88425171  1
  H  H64  1  0.87120427  0.38649090  0.88403912  1
  H  H65  1  0.87890488  0.72122065  0.90009528  1
  H  H66  1  0.12890615  0.27946751  0.37784688  1
  H  H67  1  0.12639914  0.61174402  0.38845136  1
  H  H68  1  0.11956938  0.94680726  0.39494501  1
  H  H69  1  0.62789756  0.28075901  0.39180252  1
  H  H70  1  0.62662772  0.61332206  0.38813364  1
  H  H71  1  0.61890358  0.94454983  0.39446524  1
  H  H72  1  0.36510029  0.22429119  0.59118195  1
  H  H73  1  0.36816134  0.55719077  0.59584904  1
  H  H74  1  0.38077300  0.88539835  0.61977241  1
  H  H75  1  0.87101501  0.22049931  0.61474072  1
  H  H76  1  0.87412903  0.55034841  0.62121906  1
  H  H77  1  0.87906470  0.88463965  0.62146900  1
  H  H78  1  0.12579942  0.11282758  0.11237201  1
  H  H79  1  0.13340974  0.44316096  0.09406229  1
  H  H80  1  0.12316703  0.78456543  0.12519323  1
  H  H81  1  0.62659851  0.11395356  0.10815513  1
  H  H82  1  0.62603150  0.44753603  0.10474263  1
  H  H83  1  0.61599644  0.77946330  0.11824349  1
  H  H84  1  0.13248455  0.22477515  0.90014177  1
  H  H85  1  0.11867083  0.54993747  0.88269396  1
  H  H86  1  0.12618497  0.88689312  0.89042703  1
  H  H87  1  0.62815771  0.22335535  0.89445607  1
  H  H88  1  0.62106512  0.55394335  0.89444456  1
  H  H89  1  0.62572257  0.88651662  0.89204256  1
  H  H90  1  0.36766942  0.10788366  0.40190041  1
  H  H91  1  0.36856027  0.44418138  0.39611644  1
  H  H92  1  0.37711233  0.77945604  0.39324571  1
  H  H93  1  0.86472932  0.10903466  0.39976709  1
  H  H94  1  0.87292915  0.44667770  0.39029652  1
  H  H95  1  0.87822073  0.78077869  0.37736390  1
  H  H96  1  0.37914835  0.27875178  0.37787362  1
  H  H97  1  0.37692626  0.61403239  0.38391023  1
  H  H98  1  0.37010817  0.94928331  0.38503593  1
  H  H99  1  0.88213386  0.27707676  0.40422359  1
  H  H100  1  0.87816018  0.60989881  0.40212060  1
  H  H101  1  0.87127210  0.94668675  0.37685659  1
  H  H102  1  0.12132989  0.05557241  0.89548978  1
  H  H103  1  0.11965111  0.39289408  0.89648232  1
  H  H104  1  0.12621192  0.71605169  0.88085427  1
  H  H105  1  0.62304276  0.05381627  0.88292915  1
  H  H106  1  0.61502056  0.39352448  0.90721701  1
  H  H107  1  0.62740135  0.71627020  0.88364523  1
  H  H108  1  0.11881002  0.27810810  0.10064594  1
  H  H109  1  0.12805760  0.61124456  0.10592948  1
  H  H110  1  0.12289389  0.94915368  0.12619563  1
  H  H111  1  0.62331834  0.28098798  0.11039044  1
  H  H112  1  0.63170559  0.61510359  0.11760582  1
  H  H113  1  0.62081029  0.94082483  0.09482629  1
  H  H114  1  0.38440309  0.05753155  0.59762723  1
  H  H115  1  0.37701734  0.38882405  0.60727461  1
  H  H116  1  0.37467729  0.72389081  0.60479411  1
  H  H117  1  0.88868945  0.06062370  0.59295628  1
  H  H118  1  0.88127749  0.39318832  0.59486814  1
  H  H119  1  0.87248868  0.71737383  0.62211880  1
  H  H120  1  0.12023662  0.11371862  0.38553979  1
  H  H121  1  0.12025957  0.44570461  0.38916898  1
  H  H122  1  0.12775799  0.77812560  0.38220735  1
  H  H123  1  0.61672361  0.11427155  0.37930891  1
  H  H124  1  0.62379970  0.44598602  0.38938789  1
  H  H125  1  0.63066087  0.77894325  0.39840143  1
  H  H126  1  0.37894846  0.21849472  0.87512699  1
  H  H127  1  0.36732590  0.55674160  0.89576663  1
  H  H128  1  0.37509439  0.88540572  0.89304813  1
  H  H129  1  0.87597781  0.22169951  0.88496942  1
  H  H130  1  0.87020751  0.55278606  0.89422507  1
  H  H131  1  0.87399223  0.88609368  0.88814396  1
  H  H132  1  0.37503659  0.11140384  0.11066993  1
  H  H133  1  0.38020267  0.44930349  0.11733017  1
  H  H134  1  0.36730235  0.77564711  0.09336598  1
  H  H135  1  0.87609891  0.11295913  0.11313260  1
  H  H136  1  0.87483885  0.44999244  0.11184487  1
  H  H137  1  0.86407537  0.77576489  0.09945861  1
  H  H138  1  0.12172924  0.21868291  0.62439808  1
  H  H139  1  0.12243196  0.54978217  0.62433065  1
  H  H140  1  0.13233594  0.88974852  0.60580346  1
  H  H141  1  0.62323508  0.22066105  0.60557204  1
  H  H142  1  0.62671650  0.55693698  0.60020134  1
  H  H143  1  0.63128002  0.88807875  0.60345927  1
  H  H144  1  0.42448774  0.24810869  0.00142737  1
  H  H145  1  0.54746181  0.91634822  -0.00590740  1
  H  H146  1  0.41331735  0.25294082  0.49190575  1
  H  H147  1  0.57520743  0.72580364  0.50506943  1
  H  H148  1  0.05338639  0.25513828  -0.00242388  1
  H  H149  1  0.67271685  0.41673472  0.49784921  1
  H  H150  1  0.95123300  0.24917059  0.50981715  1
  H  H151  1  0.17443830  0.08206964  0.00356419  1
  H  H152  1  0.35508513  0.41997198  0.00723960  1
  H  H153  1  0.89926601  0.25213333  0.00914116  1
  H  H154  1  0.41839994  0.58682469  0.49686008  1
  H  H155  1  0.83374172  0.08815453  0.00648892  1
  H  H156  1  0.43585572  0.41729463  0.50026337  1
  H  H157  1  0.29342624  0.58129917  0.49117192  1
  H  H158  1  0.83727022  0.42032359  -0.00070602  1
  H  H159  1  0.69727808  0.91516095  0.49677639  1
  H  H160  1  0.57829021  0.58499429  0.49926644  1
  H  H161  1  0.32055733  0.75395519  0.50289609  1
  H  H162  1  0.68751235  0.90304330  0.99735573  1
  H  H163  1  0.28576405  0.24846697  0.49239899  1
  H  H164  1  0.64486935  0.08583916  0.48738969  1
  H  H165  1  0.68548083  0.22539141  0.50032054  1
  H  H166  1  0.15064620  0.08325663  0.49461766  1
  H  H167  1  0.43786134  0.76800028  0.51018055  1
  H  H168  1  0.69508348  0.75391960  0.50810462  1
  H  H169  1  0.16821602  0.76133303  0.49197138  1
  H  H170  1  0.55776458  0.91786017  0.50312618  1
  H  H171  1  0.13968073  0.75084735  1.00941296  1
  H  H172  1  0.10430538  0.25452410  0.48752014  1
  H  H173  1  0.08977391  0.58084415  0.49575207  1
  H  H174  1  0.69737007  0.58392720  0.49451112  1
  H  H175  1  0.67552118  0.08504744  -0.00107285  1
  H  H176  1  0.19163160  0.91662044  0.49499595  1
  H  H177  1  0.30771575  0.58737866  1.00551664  1
  H  H178  1  0.57196718  0.26333525  0.50350626  1
  H  H179  1  0.82067124  0.26910496  0.51875201  1
  H  H180  1  0.44220100  0.58762568  -0.00800994  1
  H  H181  1  0.96540713  0.08530265  0.49349397  1
  H  H182  1  0.04696667  0.75013029  0.49345372  1
  H  H183  1  0.17424351  0.91534518  0.99937620  1
  H  H184  1  0.96109278  0.91829664  -0.00698052  1
  H  H185  1  0.20324962  0.25266265  1.00390525  1
  H  H186  1  0.06052530  0.91818501  0.50335173  1
  H  H187  1  0.80007321  0.08057416  0.50601546  1
  H  H188  1  0.89975902  0.91798715  0.49008320  1
  H  H189  1  0.59967626  0.74617623  0.99746364  1
  H  H190  1  0.81660040  0.89899298  0.99545323  1
  H  H191  1  0.16376454  0.41936082  0.49488769  1
  Pb  Pb192  1  0.25685129  0.04862418  0.75009890  1
  Pb  Pb193  1  0.25430167  0.38265682  0.75057705  1
  Pb  Pb194  1  0.25068664  0.71312799  0.74264726  1
  Pb  Pb195  1  0.75358977  0.04734093  0.74654175  1
  Pb  Pb196  1  0.75117490  0.37993627  0.75054110  1
  Pb  Pb197  1  0.75625979  0.71352165  0.75334503  1
  Pb  Pb198  1  0.24815858  0.28652525  0.24695932  1
  Pb  Pb199  1  0.24553464  0.61779667  0.24864059  1
  Pb  Pb200  1  0.24773962  0.95527004  0.25309599  1
  Pb  Pb201  1  0.75002994  0.28767835  0.26161463  1
  Pb  Pb202  1  0.75204512  0.62108781  0.25449179  1
  Pb  Pb203  1  0.74363577  0.94956634  0.24409437  1
  Pb  Pb204  1  0.00496126  0.21526159  0.75634530  1
  Pb  Pb205  1  -0.00109912  0.54485346  0.74823602  1
  Pb  Pb206  1  0.00654888  0.88199654  0.75218259  1
  Pb  Pb207  1  0.50437427  0.21524523  0.74310183  1
  Pb  Pb208  1  0.50412318  0.54977554  0.74511169  1
  Pb  Pb209  1  0.50386057  0.87940951  0.75319029  1
  Pb  Pb210  1  -0.00421147  0.11998422  0.25629191  1
  Pb  Pb211  1  -0.00130185  0.45416009  0.24807701  1
  Pb  Pb212  1  -0.00097211  0.78687667  0.24850071  1
  Pb  Pb213  1  0.49764789  0.12113218  0.25192585  1
  Pb  Pb214  1  0.49993991  0.45405522  0.25495709  1
  Pb  Pb215  1  0.49339861  0.78399082  0.25334076  1
  C  C216  1  0.00444834  0.04578775  0.63089388  1
  C  C217  1  -0.00049283  0.38066991  0.63028940  1
  C  C218  1  0.00043132  0.71237551  0.63365408  1
  C  C219  1  0.50446414  0.04615439  0.63071704  1
  C  C220  1  0.49936271  0.37994079  0.63602289  1
  C  C221  1  0.49698891  0.71414175  0.63194973  1
  C  C222  1  -0.00143949  0.29020282  0.13234162  1
  C  C223  1  0.00350484  0.62129705  0.12851577  1
  C  C224  1  -0.00560172  0.95453109  0.13164871  1
  C  C225  1  0.49835689  0.28908402  0.13255527  1
  C  C226  1  0.50403082  0.62106305  0.13131966  1
  C  C227  1  0.50315548  0.95475842  0.13051550  1
  C  C228  1  -0.00057666  0.04610030  0.86549339  1
  C  C229  1  -0.00196522  0.38049562  0.86721641  1
  C  C230  1  -0.00132061  0.70916376  0.86619399  1
  C  C231  1  0.49656246  0.04630934  0.86524645  1
  C  C232  1  0.49780358  0.37947322  0.87015858  1
  C  C233  1  0.50143954  0.71205623  0.87058908  1
  C  C234  1  0.00131889  0.28726056  0.36921663  1
  C  C235  1  0.00015484  0.61920266  0.37294521  1
  C  C236  1  -0.00197599  0.95352882  0.36503143  1
  C  C237  1  0.50552528  0.28658736  0.36355681  1
  C  C238  1  0.50236348  0.62002467  0.36488231  1
  C  C239  1  0.49656528  0.95473502  0.36638049  1
  C  C240  1  0.24965291  0.21209110  0.63039467  1
  C  C241  1  0.25057814  0.54621069  0.63285151  1
  C  C242  1  0.25336903  0.88100973  0.63390576  1
  C  C243  1  0.74550431  0.21319263  0.63272619  1
  C  C244  1  0.74606433  0.54611178  0.63416957  1
  C  C245  1  0.75182171  0.87854612  0.63540722  1
  C  C246  1  0.25059290  0.12001444  0.13488993  1
  C  C247  1  0.25281733  0.45361399  0.12780079  1
  C  C248  1  0.24983295  0.78693511  0.12902869  1
  C  C249  1  0.75073572  0.12184979  0.13253172  1
  C  C250  1  0.74989514  0.45538442  0.12947012  1
  C  C251  1  0.74348177  0.78539421  0.13214496  1
  C  C252  1  0.25120639  0.21243689  0.86509651  1
  C  C253  1  0.24630716  0.54597589  0.86830022  1
  C  C254  1  0.25081167  0.87736608  0.86795135  1
  C  C255  1  0.75041615  0.21229767  0.86544772  1
  C  C256  1  0.74554741  0.54513627  0.87135468  1
  C  C257  1  0.74931901  0.87353667  0.86958250  1
  C  C258  1  0.24653055  0.12007578  0.37161339  1
  C  C259  1  0.24546778  0.45253935  0.36864010  1
  C  C260  1  0.25375368  0.78805264  0.36560071  1
  C  C261  1  0.74410322  0.11924040  0.36716500  1
  C  C262  1  0.74838883  0.45364759  0.36595115  1
  C  C263  1  0.75030283  0.78690407  0.36681578  1
  C  C264  1  0.48141734  0.07695513  0.53599550  1
  C  C265  1  0.22893581  0.42507753  0.03093756  1
  C  C266  1  0.21344800  0.90476895  0.96059877  1
  C  C267  1  0.23310172  0.24083458  0.96067190  1
  C  C268  1  0.94492616  0.92802410  0.45514783  1
  C  C269  1  0.70897026  0.57366583  0.96366268  1
  C  C270  1  0.45589123  0.26390132  0.45549872  1
  C  C271  1  0.18802863  0.76028346  0.04221912  1
  C  C272  1  0.76911267  0.09134636  0.46299059  1
  C  C273  1  0.46304342  0.25964851  0.04035377  1
  C  C274  1  0.44007189  0.40707416  0.95627772  1
  C  C275  1  0.54049709  0.59546359  0.45961499  1
  C  C276  1  0.44212061  0.92428538  0.04467814  1
  C  C277  1  0.04041556  0.58724077  0.03826642  1
  C  C278  1  0.79469171  0.42960969  0.03626435  1
  C  C279  1  0.72662762  0.76291955  0.46488570  1
  C  C280  1  0.80715482  0.76381794  0.45553896  1
  C  C281  1  0.30625250  0.90329002  0.54344865  1
  C  C282  1  0.71331364  0.09433885  0.03886504  1
  C  C283  1  0.52448646  0.92779440  0.46093450  1
  C  C284  1  0.72878507  0.90534129  0.53986979  1
  C  C285  1  0.27410622  0.57480661  0.96429944  1
  C  C286  1  0.06988186  0.07220481  0.54596810  1
  C  C287  1  0.97976227  0.26022639  0.46594532  1
  C  C288  1  0.69329677  0.75894181  0.04268302  1
  C  C289  1  0.55264577  0.73766472  0.96203530  1
  C  C290  1  0.27504372  0.08763603  0.46633954  1
  C  C291  1  0.71326575  0.42898463  0.03534564  1
  C  C292  1  0.19299417  0.57180488  0.95795764  1
  C  C293  1  0.22532684  0.90550703  0.53668849  1
  C  C294  1  0.26592223  0.57183378  0.53593056  1
  C  C295  1  0.26866585  0.75785486  0.03267945  1
  C  C296  1  0.28705473  0.76243131  0.46054638  1
  C  C297  1  0.96820166  0.58775944  0.46737745  1
  C  C298  1  0.53762263  0.26649835  0.46080215  1
  C  C299  1  0.45853894  0.59608014  0.45828984  1
  C  C300  1  0.55728763  0.59781670  0.04098361  1
  C  C301  1  0.98151810  0.41264261  0.53545859  1
  C  C302  1  0.47129598  0.73952928  0.96580798  1
  C  C303  1  0.01876361  0.73991844  0.53769567  1
  C  C304  1  0.02542319  0.41221449  0.96069901  1
  C  C305  1  0.02659131  0.92799067  0.46157403  1
  C  C306  1  0.47082397  0.40640459  0.54140834  1
  C  C307  1  0.47637009  0.59695591  0.03380092  1
  C  C308  1  0.72634826  0.57293431  0.53822880  1
  C  C309  1  0.71170463  0.42679805  0.45875800  1
  C  C310  1  0.94377281  0.26121946  0.04479187  1
  C  C311  1  0.21326657  0.09303006  0.04241547  1
  N  N312  1  0.98364440  0.92452993  0.03723553  1
  N  N313  1  0.94816462  0.40926690  0.95803964  1
  N  N314  1  0.71034441  0.24191179  0.54032338  1
  N  N315  1  0.78619682  0.57392689  0.96470745  1
  N  N316  1  0.55854204  0.07490663  0.54148005  1
  N  N317  1  0.05029748  0.73854377  0.95456721  1
  N  N318  1  0.20398738  0.42609454  0.45894842  1
  N  N319  1  0.79100119  0.42647389  0.45939014  1
  N  N320  1  0.54226600  0.26000899  0.04014764  1
  N  N321  1  0.46825915  0.07311249  0.96098611  1
  N  N322  1  0.02308510  0.25827846  0.03900367  1
  N  N323  1  0.71916826  0.24144931  0.95984213  1
  N  N324  1  0.51647831  0.41102652  0.96696545  1
  N  N325  1  0.04688785  0.58946976  0.46207428  1
  N  N326  1  0.55013140  0.40508013  0.54454177  1
  N  N327  1  0.79186007  0.23508493  0.54130689  1
  N  N328  1  0.31161152  0.23896268  0.95263511  1
  N  N329  1  0.80752186  0.90482785  0.54615777  1
  N  N330  1  0.20764113  0.76122486  0.45567955  1
  N  N331  1  0.06044830  0.92824267  0.04742088  1
  N  N332  1  0.18569110  0.24021601  0.54624298  1
  N  N333  1  0.54458613  0.07216288  0.95652686  1
  N  N334  1  0.96312578  0.58775960  0.03681728  1
  N  N335  1  0.02979461  0.07362291  0.96067315  1
  N  N336  1  0.44535061  0.92850664  0.45733307  1
  N  N337  1  0.80482248  0.57129015  0.54564055  1
  N  N338  1  0.29253211  0.09241051  0.04144502  1
  N  N339  1  0.95299935  0.07318186  0.95693499  1
  N  N340  1  0.46325673  0.73551787  0.53730929  1
  N  N341  1  0.97474852  0.74078350  0.96083756  1
  N  N342  1  0.05833653  0.40908384  0.54253986  1
  N  N343  1  0.28240863  0.42611552  0.46289895  1
  N  N344  1  0.69022917  0.09315705  0.45488610  1
  N  N345  1  0.05818485  0.26055373  0.45553066  1
  N  N346  1  0.52016502  0.92346011  0.03613918  1
  N  N347  1  0.79524312  0.24046328  0.95689723  1
  N  N348  1  0.79300458  0.09193688  0.04209421  1
  N  N349  1  0.29256651  0.90442226  0.96173095  1
  N  N350  1  0.18769391  0.57046056  0.54566395  1
  N  N351  1  0.79329648  0.91570265  0.95468950  1
  N  N352  1  0.71049946  0.91701233  0.95535228  1
  N  N353  1  0.77014484  0.75804332  0.03493725  1
  N  N354  1  0.94033341  0.73829016  0.54587470  1
  N  N355  1  0.30698277  0.42780406  0.03991225  1
  N  N356  1  0.54399586  0.74173638  0.54255067  1
  N  N357  1  0.26262795  0.24308830  0.53649905  1
  N  N358  1  0.99206684  0.07609835  0.53565345  1
  N  N359  1  0.19663757  0.09105178  0.46012268  1
  N  N360  1  0.07774528  0.05469291  0.60543303  1
  N  N361  1  0.06953870  0.38911090  0.60310704  1
  N  N362  1  0.05751824  0.72449305  0.59143767  1
  N  N363  1  0.57317072  0.05552789  0.60176786  1
  N  N364  1  0.56598910  0.38892023  0.60374956  1
  N  N365  1  0.56304097  0.71788879  0.59814693  1
  N  N366  1  0.43444666  0.27716624  0.09689913  1
  N  N367  1  0.44392402  0.61170276  0.09149138  1
  N  N368  1  0.43142080  0.94281767  0.10315798  1
  N  N369  1  0.92844943  0.27921419  0.10318826  1
  N  N370  1  0.93977580  0.60940428  0.09412964  1
  N  N371  1  0.94181428  0.94298264  0.08732216  1
  N  N372  1  0.43712461  0.05695615  0.90467313  1
  N  N373  1  0.42603182  0.38861386  0.89707553  1
  N  N374  1  0.44041252  0.72414496  0.91084112  1
  N  N375  1  0.93323349  0.05608574  0.89791093  1
  N  N376  1  0.93080749  0.38917270  0.89854788  1
  N  N377  1  0.94115596  0.72214684  0.90637779  1
  N  N378  1  0.07127824  0.27853661  0.39646934  1
  N  N379  1  0.06728361  0.60889948  0.40366073  1
  N  N380  1  0.05830348  0.94379207  0.40495775  1
  N  N381  1  0.56730376  0.28009592  0.40309609  1
  N  N382  1  0.56648927  0.61044139  0.40120376  1
  N  N383  1  0.55764361  0.94317552  0.40525147  1
  N  N384  1  0.30295636  0.22274998  0.58631881  1
  N  N385  1  0.30601291  0.55742302  0.58915148  1
  N  N386  1  0.32290763  0.88897034  0.60211147  1
  N  N387  1  0.81115780  0.22741285  0.60168562  1
  N  N388  1  0.81531642  0.55463909  0.60519847  1
  N  N389  1  0.82017295  0.88822989  0.60582314  1
  N  N390  1  0.18583948  0.10986190  0.09940849  1
  N  N391  1  0.19500297  0.44107278  0.08529967  1
  N  N392  1  0.17783425  0.77840491  0.10337854  1
  N  N393  1  0.68701000  0.11102249  0.09550361  1
  N  N394  1  0.68625732  0.44435785  0.09142792  1
  N  N395  1  0.67421339  0.77546986  0.10160517  1
  N  N396  1  0.19458762  0.22482414  0.90732496  1
  N  N397  1  0.17683439  0.55471525  0.89990400  1
  N  N398  1  0.18618174  0.88870000  0.90319928  1
  N  N399  1  0.68983763  0.22379578  0.90350497  1
  N  N400  1  0.68097856  0.55674100  0.90728951  1
  N  N401  1  0.68639319  0.88699725  0.90426804  1
  N  N402  1  0.30626068  0.10574968  0.41183952  1
  N  N403  1  0.30733606  0.44170865  0.40610576  1
  N  N404  1  0.31610789  0.77739652  0.40425308  1
  N  N405  1  0.80294436  0.10724124  0.40848793  1
  N  N406  1  0.81194105  0.44318317  0.40135860  1
  N  N407  1  0.82115448  0.77810010  0.39653279  1
  N  N408  1  0.43742501  0.27648379  0.39499130  1
  N  N409  1  0.43610706  0.61122194  0.39915078  1
  N  N410  1  0.42986983  0.94522810  0.39846262  1
  N  N411  1  0.94394493  0.27611820  0.41216533  1
  N  N412  1  0.93897256  0.60631934  0.41253116  1
  N  N413  1  0.92869138  0.94371742  0.39510901  1
  N  N414  1  0.05957162  0.05718190  0.90407142  1
  N  N415  1  0.05842268  0.39461174  0.90633710  1
  N  N416  1  0.06696582  0.71921848  0.89597452  1
  N  N417  1  0.56335056  0.05572462  0.89709796  1
  N  N418  1  0.55249403  0.39316670  0.91208607  1
  N  N419  1  0.56987236  0.72069009  0.90126514  1
  N  N420  1  0.05676954  0.27960167  0.09210336  1
  N  N421  1  0.06815121  0.60749605  0.09354323  1
  N  N422  1  0.06632724  0.94500065  0.10676013  1
  N  N423  1  0.56261560  0.27865310  0.09786123  1
  N  N424  1  0.57354729  0.61199759  0.09987228  1
  N  N425  1  0.55912030  0.94428226  0.08835383  1
  N  N426  1  0.44607987  0.05952794  0.58950057  1
  N  N427  1  0.43831548  0.39127797  0.59719147  1
  N  N428  1  0.43586858  0.72989447  0.59625710  1
  N  N429  1  0.95101492  0.05781821  0.58756920  1
  N  N430  1  0.94300564  0.39504210  0.58772773  1
  N  N431  1  0.93069869  0.72124121  0.60533111  1
  N  N432  1  0.17850740  0.11151959  0.40170562  1
  N  N433  1  0.18041115  0.44253855  0.40215668  1
  N  N434  1  0.18724021  0.78014479  0.39796766  1
  N  N435  1  0.67514432  0.11091717  0.39609491  1
  N  N436  1  0.68395429  0.44286430  0.40153670  1
  N  N437  1  0.69188367  0.77745577  0.40809598  1
  N  N438  1  0.32099508  0.22131440  0.89296774  1
  N  N439  1  0.30650126  0.55841036  0.90720922  1
  N  N440  1  0.31413020  0.88724291  0.90377728  1
  N  N441  1  0.81624053  0.22236589  0.89834020  1
  N  N442  1  0.80935651  0.55586094  0.90597914  1
  N  N443  1  0.81413427  0.88635172  0.90223506  1
  N  N444  1  0.31401471  0.10905530  0.09943709  1
  N  N445  1  0.32224265  0.44522090  0.09967892  1
  N  N446  1  0.30570913  0.77384903  0.08489501  1
  N  N447  1  0.81587381  0.11048882  0.09950848  1
  N  N448  1  0.81628075  0.44606221  0.09614535  1
  N  N449  1  0.80178438  0.77457907  0.09221281  1
  N  N450  1  0.17826748  0.22325231  0.60540748  1
  N  N451  1  0.18005209  0.55470777  0.60627180  1
  N  N452  1  0.19319533  0.89138376  0.59440541  1
  N  N453  1  0.68383149  0.21780481  0.59418718  1
  N  N454  1  0.68840625  0.55777121  0.59227245  1
  N  N455  1  0.69305834  0.88977969  0.59449097  1
  Cl  Cl456  1  0.26072065  0.05547941  0.61441078  1
  Cl  Cl457  1  0.25372880  0.38533442  0.61795665  1
  Cl  Cl458  1  0.24837287  0.72484325  0.60279103  1
  Cl  Cl459  1  0.76496234  0.06002673  0.60955598  1
  Cl  Cl460  1  0.75418596  0.38323467  0.61581964  1
  Cl  Cl461  1  0.74229506  0.72179833  0.61813974  1
  Cl  Cl462  1  0.24192704  0.27961988  0.11213376  1
  Cl  Cl463  1  0.25626286  0.61258437  0.11588782  1
  Cl  Cl464  1  0.24793997  0.94589363  0.12239497  1
  Cl  Cl465  1  0.74614145  0.28104004  0.13100278  1
  Cl  Cl466  1  0.75619890  0.61548915  0.12441372  1
  Cl  Cl467  1  0.75105266  0.93328845  0.09708621  1
  Cl  Cl468  1  0.24591607  0.05479567  0.88393937  1
  Cl  Cl469  1  0.24275582  0.39024709  0.88553284  1
  Cl  Cl470  1  0.25485345  0.71900196  0.87419564  1
  Cl  Cl471  1  0.74898084  0.05732145  0.88322286  1
  Cl  Cl472  1  0.74228858  0.39202264  0.88437963  1
  Cl  Cl473  1  0.75852509  0.72121439  0.88165541  1
  Cl  Cl474  1  0.25469984  0.27214352  0.38962857  1
  Cl  Cl475  1  0.25113556  0.61291913  0.38487387  1
  Cl  Cl476  1  0.24292334  0.94876018  0.38772992  1
  Cl  Cl477  1  0.75607236  0.27271664  0.39869165  1
  Cl  Cl478  1  0.75167715  0.61369188  0.38980304  1
  Cl  Cl479  1  0.74080889  0.94597666  0.37809092  1
  Cl  Cl480  1  -0.00751192  0.21889190  0.61751530  1
  Cl  Cl481  1  -0.00125996  0.55187721  0.61317832  1
  Cl  Cl482  1  0.00736557  0.88886555  0.61942171  1
  Cl  Cl483  1  0.49291452  0.22407657  0.60666102  1
  Cl  Cl484  1  0.49645175  0.55950251  0.60871263  1
  Cl  Cl485  1  0.50960152  0.88448105  0.61871681  1
  Cl  Cl486  1  -0.00108197  0.11735442  0.12476082  1
  Cl  Cl487  1  0.00974911  0.44555631  0.11717259  1
  Cl  Cl488  1  -0.01327784  0.78250754  0.12158495  1
  Cl  Cl489  1  0.50049205  0.11404717  0.12154389  1
  Cl  Cl490  1  0.50347267  0.45033925  0.12463858  1
  Cl  Cl491  1  0.48870039  0.78131680  0.11989844  1
  Cl  Cl492  1  0.00777854  0.22879737  0.89459314  1
  Cl  Cl493  1  -0.00612064  0.54887033  0.87627083  1
  Cl  Cl494  1  -0.00403760  0.89355365  0.89237265  1
  Cl  Cl495  1  0.50645371  0.22332547  0.87530951  1
  Cl  Cl496  1  0.49415223  0.55591197  0.87854460  1
  Cl  Cl497  1  0.50389168  0.89003873  0.89244452  1
  Cl  Cl498  1  -0.01168525  0.10990683  0.39760180  1
  Cl  Cl499  1  -0.00264797  0.44823824  0.38375455  1
  Cl  Cl500  1  0.00647684  0.77360313  0.38424536  1
  Cl  Cl501  1  0.49087601  0.11098762  0.38647437  1
  Cl  Cl502  1  0.49320603  0.44567746  0.38917510  1
  Cl  Cl503  1  0.50233147  0.77634029  0.39524649  1
  Cl  Cl504  1  0.35427600  0.14725979  0.75306604  1
  Cl  Cl505  1  0.35519312  0.47990679  0.75108542  1
  Cl  Cl506  1  0.36445007  0.81341829  0.74469242  1
  Cl  Cl507  1  0.86413931  0.14780417  0.74952267  1
  Cl  Cl508  1  0.85964130  0.48133211  0.74780309  1
  Cl  Cl509  1  0.85857177  0.81181283  0.74647408  1
  Cl  Cl510  1  0.13563600  0.18675305  0.25917935  1
  Cl  Cl511  1  0.14492149  0.51983136  0.25173190  1
  Cl  Cl512  1  0.13599684  0.85449416  0.24661989  1
  Cl  Cl513  1  0.63714265  0.18718552  0.25879277  1
  Cl  Cl514  1  0.63646011  0.52227816  0.25187243  1
  Cl  Cl515  1  0.64226388  0.85344132  0.24780615  1
  Cl  Cl516  1  0.13463238  0.14341082  0.74001908  1
  Cl  Cl517  1  0.13506616  0.47800978  0.74509069  1
  Cl  Cl518  1  0.14205121  0.81513927  0.75192276  1
  Cl  Cl519  1  0.64020850  0.14722007  0.74314425  1
  Cl  Cl520  1  0.63711391  0.47958726  0.74617767  1
  Cl  Cl521  1  0.64027388  0.81223549  0.75452564  1
  Cl  Cl522  1  0.35610045  0.18426024  0.25246387  1
  Cl  Cl523  1  0.36303473  0.52040710  0.25168342  1
  Cl  Cl524  1  0.35759062  0.85272082  0.25198246  1
  Cl  Cl525  1  0.85650353  0.18391102  0.25165651  1
  Cl  Cl526  1  0.85751361  0.51651164  0.25168530  1
  Cl  Cl527  1  0.86247517  0.85452337  0.25556059  1
  Cl  Cl528  1  0.11026381  0.30962533  0.74206418  1
  Cl  Cl529  1  0.11351903  0.64468939  0.75012877  1
  Cl  Cl530  1  0.10727158  0.97937874  0.74764361  1
  Cl  Cl531  1  0.61033276  0.31249370  0.74146564  1
  Cl  Cl532  1  0.60584180  0.64668472  0.74729891  1
  Cl  Cl533  1  0.61650686  0.97982897  0.75027495  1
  Cl  Cl534  1  0.38882522  0.01843612  0.24804762  1
  Cl  Cl535  1  0.38434494  0.35457215  0.25301123  1
  Cl  Cl536  1  0.39302785  0.68812877  0.25856692  1
  Cl  Cl537  1  0.88640047  0.02021699  0.25139822  1
  Cl  Cl538  1  0.89284898  0.35006505  0.25144276  1
  Cl  Cl539  1  0.89280885  0.68425784  0.25488841  1
  Cl  Cl540  1  0.38821626  0.31325284  0.75655527  1
  Cl  Cl541  1  0.38811585  0.64804830  0.74487913  1
  Cl  Cl542  1  0.39317772  0.98061056  0.74612724  1
  Cl  Cl543  1  0.88838504  0.31370400  0.75154757  1
  Cl  Cl544  1  0.89283542  0.64821766  0.74262903  1
  Cl  Cl545  1  0.88570991  0.97697585  0.75337475  1
  Cl  Cl546  1  0.10804741  0.01925518  0.24866821  1
  Cl  Cl547  1  0.11476454  0.35522405  0.25875926  1
  Cl  Cl548  1  0.11304863  0.68736909  0.25347790  1
  Cl  Cl549  1  0.61103152  0.02077064  0.24841516  1
  Cl  Cl550  1  0.61042904  0.35288919  0.25200590  1
  Cl  Cl551  1  0.61321901  0.68836986  0.24808838  1
