# generated using pymatgen
data_H8PbC4(N3Cl2)2
_symmetry_space_group_name_H-M   'P 1'
_cell_length_a   16.62275974
_cell_length_b   22.51060984
_cell_length_c   21.58995203
_cell_angle_alpha   89.99995698
_cell_angle_beta   89.98686686
_cell_angle_gamma   90.00140118
_symmetry_Int_Tables_number   1
_chemical_formula_structural   H8PbC4(N3Cl2)2
_chemical_formula_sum   'H192 Pb24 C96 N144 Cl96'
_cell_volume   8078.71066181
_cell_formula_units_Z   24
loop_
 _symmetry_equiv_pos_site_id
 _symmetry_equiv_pos_as_xyz
  1  'x, y, z'
loop_
 _atom_site_type_symbol
 _atom_site_label
 _atom_site_symmetry_multiplicity
 _atom_site_fract_x
 _atom_site_fract_y
 _atom_site_fract_z
 _atom_site_occupancy
  H  H0  1  0.00197996  0.02855890  0.67741593  1
  H  H1  1  -0.00064277  0.36353761  0.67861567  1
  H  H2  1  -0.00102918  0.69660443  0.67728719  1
  H  H3  1  0.48640000  0.03021817  0.67495778  1
  H  H4  1  0.50845046  0.36458537  0.67901264  1
  H  H5  1  0.51172991  0.69615460  0.67341703  1
  H  H6  1  -0.01085525  0.30552434  0.18057703  1
  H  H7  1  0.01600984  0.63840046  0.17257627  1
  H  H8  1  -0.00608657  0.96848501  0.17943262  1
  H  H9  1  0.49623825  0.30517576  0.17550432  1
  H  H10  1  0.48364666  0.63541077  0.17530098  1
  H  H11  1  0.49981883  0.96810973  0.17797526  1
  H  H12  1  0.00667267  0.03205310  0.82067471  1
  H  H13  1  0.00483075  0.36201112  0.81946529  1
  H  H14  1  0.00346199  0.69811157  0.82592826  1
  H  H15  1  0.49999272  0.03330909  0.81516079  1
  H  H16  1  0.48571250  0.36121093  0.82385134  1
  H  H17  1  0.49012570  0.69870750  0.82227924  1
  H  H18  1  -0.00147400  0.30195097  0.32414803  1
  H  H19  1  0.00482296  0.63534215  0.32013168  1
  H  H20  1  0.00253127  0.97054820  0.32481453  1
  H  H21  1  0.50795788  0.30391953  0.32063785  1
  H  H22  1  0.48797681  0.63537927  0.32541965  1
  H  H23  1  0.50071045  0.96953825  0.32198963  1
  H  H24  1  0.25804355  0.19622421  0.67612351  1
  H  H25  1  0.24114863  0.53282642  0.67790210  1
  H  H26  1  0.24036814  0.86422640  0.68223763  1
  H  H27  1  0.73847149  0.19609217  0.67649738  1
  H  H28  1  0.76238218  0.53261909  0.68130244  1
  H  H29  1  0.75083968  0.86486524  0.67293089  1
  H  H30  1  0.26704794  0.13925391  0.17927657  1
  H  H31  1  0.24082973  0.46883021  0.17731749  1
  H  H32  1  0.25336281  0.80271492  0.18110263  1
  H  H33  1  0.73873094  0.13310423  0.17990644  1
  H  H34  1  0.75623668  0.46889836  0.17652418  1
  H  H35  1  0.75433050  0.80142894  0.17766651  1
  H  H36  1  0.25828923  0.20104253  0.82133179  1
  H  H37  1  0.24700006  0.52668835  0.81761761  1
  H  H38  1  0.25099307  0.86373655  0.82179604  1
  H  H39  1  0.75616984  0.19856865  0.82389899  1
  H  H40  1  0.75131843  0.53240763  0.82797620  1
  H  H41  1  0.75495628  0.86405689  0.81894278  1
  H  H42  1  0.25540869  0.13438525  0.32013136  1
  H  H43  1  0.25229044  0.47137582  0.32343887  1
  H  H44  1  0.24992983  0.80382031  0.32250855  1
  H  H45  1  0.75345435  0.13820112  0.31872481  1
  H  H46  1  0.74029167  0.46896234  0.31949130  1
  H  H47  1  0.74799876  0.80573502  0.32042126  1
  H  H48  1  0.13052757  0.05264457  0.61129936  1
  H  H49  1  0.12172159  0.38817236  0.60774266  1
  H  H50  1  0.12511426  0.72061832  0.60861694  1
  H  H51  1  0.62702475  0.04508858  0.62534538  1
  H  H52  1  0.61926589  0.38976422  0.59635296  1
  H  H53  1  0.61739400  0.72536959  0.59062373  1
  H  H54  1  0.38196972  0.27808915  0.09844572  1
  H  H55  1  0.39282135  0.59851132  0.08565356  1
  H  H56  1  0.38239515  0.94250943  0.10284352  1
  H  H57  1  0.88386961  0.27699671  0.09522317  1
  H  H58  1  0.86972630  0.62359646  0.12770699  1
  H  H59  1  0.88491148  0.94117172  0.09858639  1
  H  H60  1  0.37490226  0.05446342  0.88402849  1
  H  H61  1  0.37783522  0.38945361  0.90611244  1
  H  H62  1  0.38531407  0.72750681  0.90681257  1
  H  H63  1  0.87444136  0.05268578  0.88508223  1
  H  H64  1  0.87753473  0.38750050  0.88673441  1
  H  H65  1  0.87707180  0.71909020  0.89203739  1
  H  H66  1  0.11738674  0.27703904  0.39805030  1
  H  H67  1  0.12790412  0.61087687  0.39044972  1
  H  H68  1  0.11638784  0.94114895  0.40268932  1
  H  H69  1  0.61492018  0.27606115  0.40362695  1
  H  H70  1  0.62416252  0.61760783  0.38193604  1
  H  H71  1  0.62544206  0.94791381  0.39175258  1
  H  H72  1  0.38029462  0.22319537  0.60538384  1
  H  H73  1  0.37817813  0.55078157  0.62113766  1
  H  H74  1  0.37835087  0.88341818  0.62375548  1
  H  H75  1  0.88043294  0.21558700  0.62795029  1
  H  H76  1  0.86742061  0.55647557  0.59653871  1
  H  H77  1  0.87699853  0.88846273  0.60778879  1
  H  H78  1  0.12646447  0.11757462  0.12721377  1
  H  H79  1  0.12025626  0.44256185  0.10490843  1
  H  H80  1  0.11866971  0.78061285  0.11915259  1
  H  H81  1  0.63099704  0.10985722  0.09674850  1
  H  H82  1  0.62071265  0.45083197  0.12015319  1
  H  H83  1  0.62468060  0.78109854  0.11487752  1
  H  H84  1  0.12317019  0.21712243  0.87795184  1
  H  H85  1  0.12396467  0.55724664  0.88820533  1
  H  H86  1  0.12106676  0.88458512  0.88788161  1
  H  H87  1  0.61393750  0.21832290  0.87345196  1
  H  H88  1  0.62729818  0.55182452  0.89832974  1
  H  H89  1  0.61811131  0.88381423  0.87783749  1
  H  H90  1  0.36819110  0.10773492  0.40032929  1
  H  H91  1  0.37958744  0.44907105  0.39218022  1
  H  H92  1  0.37999256  0.77892279  0.38570241  1
  H  H93  1  0.86856201  0.10947745  0.39772128  1
  H  H94  1  0.87657296  0.44761628  0.38024727  1
  H  H95  1  0.87533331  0.78260373  0.38871315  1
  H  H96  1  0.36927033  0.28336923  0.37615265  1
  H  H97  1  0.37800056  0.60829966  0.40384931  1
  H  H98  1  0.37633376  0.94700223  0.39021121  1
  H  H99  1  0.86879604  0.27740824  0.38919575  1
  H  H100  1  0.87931439  0.61491780  0.39029464  1
  H  H101  1  0.86858149  0.94584179  0.38325497  1
  H  H102  1  0.12273786  0.05898291  0.89737079  1
  H  H103  1  0.12715409  0.38698675  0.89284345  1
  H  H104  1  0.12557235  0.72192235  0.89534897  1
  H  H105  1  0.62447049  0.05223378  0.88560401  1
  H  H106  1  0.62433184  0.38448737  0.87925743  1
  H  H107  1  0.63097775  0.71636393  0.87529071  1
  H  H108  1  0.12854272  0.28468888  0.12552959  1
  H  H109  1  0.10912334  0.60462817  0.08319469  1
  H  H110  1  0.13201562  0.94892790  0.12197427  1
  H  H111  1  0.62951430  0.28191412  0.11437333  1
  H  H112  1  0.63038486  0.62212476  0.13009473  1
  H  H113  1  0.63071331  0.94573835  0.11260793  1
  H  H114  1  0.38344170  0.05836732  0.59058655  1
  H  H115  1  0.37243498  0.38720683  0.61810626  1
  H  H116  1  0.37218914  0.71482349  0.61910103  1
  H  H117  1  0.88187250  0.05572891  0.60468119  1
  H  H118  1  0.87184117  0.38646608  0.60980954  1
  H  H119  1  0.87563052  0.72454146  0.60788814  1
  H  H120  1  0.12136346  0.11424638  0.38428724  1
  H  H121  1  0.13044839  0.44348600  0.39356432  1
  H  H122  1  0.13164966  0.77742992  0.39852720  1
  H  H123  1  0.62034000  0.11228885  0.38257855  1
  H  H124  1  0.63024785  0.44489579  0.40307184  1
  H  H125  1  0.62638204  0.77990994  0.39474590  1
  H  H126  1  0.36923030  0.22543207  0.90152043  1
  H  H127  1  0.37298886  0.55016179  0.88537617  1
  H  H128  1  0.36899464  0.88855798  0.89887539  1
  H  H129  1  0.85810585  0.23036071  0.90927681  1
  H  H130  1  0.87576668  0.55538680  0.89645076  1
  H  H131  1  0.86566082  0.88564580  0.90051987  1
  H  H132  1  0.37009076  0.11177566  0.09214216  1
  H  H133  1  0.36928689  0.44558347  0.10972915  1
  H  H134  1  0.36710094  0.77709805  0.10226036  1
  H  H135  1  0.87774243  0.11566915  0.12358291  1
  H  H136  1  0.86759229  0.44384443  0.09719850  1
  H  H137  1  0.87295187  0.77825107  0.10346364  1
  H  H138  1  0.13210629  0.21831812  0.60701940  1
  H  H139  1  0.13097728  0.55812220  0.59885969  1
  H  H140  1  0.13139021  0.88917338  0.59988433  1
  H  H141  1  0.63721397  0.22665879  0.59050927  1
  H  H142  1  0.62232263  0.54869753  0.62994395  1
  H  H143  1  0.62872049  0.88725908  0.60303513  1
  H  H144  1  0.42008994  0.91903734  0.50259067  1
  H  H145  1  0.95268095  0.90924520  -0.00596790  1
  H  H146  1  0.18103222  0.26017513  0.50834876  1
  H  H147  1  0.64495174  0.91066034  0.98599745  1
  H  H148  1  0.94025883  0.07225602  0.49988290  1
  H  H149  1  0.90637866  0.25000567  0.49741268  1
  H  H150  1  0.54246978  0.24633064  0.50622920  1
  H  H151  1  0.83197536  0.75605841  0.49892639  1
  H  H152  1  0.71595990  0.25115736  0.49240100  1
  H  H153  1  0.62933520  0.58353175  0.02331599  1
  H  H154  1  0.85389780  0.08660327  0.01468400  1
  H  H155  1  0.91539354  0.41572863  0.50501691  1
  H  H156  1  0.04941336  0.91423075  0.50552350  1
  H  H157  1  0.06966559  0.56387112  0.48531986  1
  H  H158  1  0.14613487  0.24623565  -0.00657919  1
  H  H159  1  0.01937563  0.59470116  -0.01253547  1
  H  H160  1  0.41890646  0.07977329  0.99666035  1
  H  H161  1  0.39165216  0.74394186  0.50944658  1
  H  H162  1  0.87090842  0.58649032  0.02043043  1
  H  H163  1  0.63340845  0.57723108  0.51432954  1
  H  H164  1  0.48226633  0.58136735  -0.00958188  1
  H  H165  1  0.07456064  0.41733943  0.49840409  1
  H  H166  1  0.65774214  0.74946071  0.00133935  1
  H  H167  1  0.30743508  0.91897841  1.00078599  1
  H  H168  1  0.33214171  0.24313308  0.50046997  1
  H  H169  1  0.33505430  0.41993506  0.49715655  1
  H  H170  1  0.92287437  0.42076436  0.99505051  1
  H  H171  1  0.28825650  0.08941493  -0.00617093  1
  H  H172  1  0.07741111  0.75199423  0.50354536  1
  H  H173  1  0.64452474  0.42073384  1.00572427  1
  H  H174  1  0.32956085  0.57731077  0.99663116  1
  H  H175  1  0.79935558  0.91052706  1.00764118  1
  H  H176  1  0.61473364  0.07591335  0.51008371  1
  H  H177  1  0.06350015  0.08749355  1.00328089  1
  H  H178  1  0.46184933  0.75370036  1.00621014  1
  H  H179  1  0.10674719  0.91702829  0.01502036  1
  H  H180  1  0.96202826  0.25307507  -0.00429666  1
  H  H181  1  0.20260589  0.91626193  0.49507262  1
  H  H182  1  0.08896248  0.09046658  0.50942867  1
  H  H183  1  0.17653512  0.57381044  0.99580230  1
  H  H184  1  0.30162968  0.74887933  -0.00379660  1
  H  H185  1  0.19753374  0.58861006  0.49115605  1
  H  H186  1  0.57866705  0.07629301  0.99839408  1
  H  H187  1  0.70069231  0.08386111  -0.00909549  1
  H  H188  1  0.77946973  0.25470443  1.00813705  1
  H  H189  1  0.79490730  0.57933067  0.49108874  1
  H  H190  1  0.93338826  0.60833746  0.49734645  1
  H  H191  1  0.59848124  0.25294438  0.00502186  1
  Pb  Pb192  1  0.25297866  0.04946624  0.75139623  1
  Pb  Pb193  1  0.25391063  0.38329083  0.75135830  1
  Pb  Pb194  1  0.25165771  0.71328029  0.75632959  1
  Pb  Pb195  1  0.75278088  0.04781619  0.75258110  1
  Pb  Pb196  1  0.74952264  0.38003396  0.74680601  1
  Pb  Pb197  1  0.75306554  0.71646016  0.74304555  1
  Pb  Pb198  1  0.24934259  0.28769450  0.25416424  1
  Pb  Pb199  1  0.24440749  0.61611315  0.24047005  1
  Pb  Pb200  1  0.24960871  0.95295030  0.25161026  1
  Pb  Pb201  1  0.74435816  0.28376858  0.25025780  1
  Pb  Pb202  1  0.75071698  0.62047210  0.25649317  1
  Pb  Pb203  1  0.74760519  0.95152220  0.24286777  1
  Pb  Pb204  1  0.00079703  0.21648326  0.75561644  1
  Pb  Pb205  1  -0.00097940  0.54877245  0.74233536  1
  Pb  Pb206  1  0.00423714  0.88173230  0.74934033  1
  Pb  Pb207  1  0.50076508  0.21371273  0.74675021  1
  Pb  Pb208  1  0.50424917  0.54837534  0.76196070  1
  Pb  Pb209  1  0.50028060  0.88101427  0.75090379  1
  Pb  Pb210  1  -0.00103607  0.11906196  0.25878644  1
  Pb  Pb211  1  -0.00498786  0.45070810  0.24848341  1
  Pb  Pb212  1  -0.00038099  0.78710648  0.25765450  1
  Pb  Pb213  1  0.49418107  0.11808266  0.24257785  1
  Pb  Pb214  1  0.49954659  0.45329496  0.25158280  1
  Pb  Pb215  1  0.49476064  0.78297637  0.24657539  1
  C  C216  1  0.00477657  0.04542448  0.63023675  1
  C  C217  1  -0.00290969  0.37995903  0.63122837  1
  C  C218  1  0.00038424  0.71339438  0.63029935  1
  C  C219  1  0.49999961  0.04493387  0.62834826  1
  C  C220  1  0.50008864  0.38022197  0.63185054  1
  C  C221  1  0.49993840  0.71123977  0.62656980  1
  C  C222  1  0.00030655  0.29050479  0.13362351  1
  C  C223  1  -0.00190525  0.62281237  0.12684608  1
  C  C224  1  0.00437647  0.95337764  0.13225346  1
  C  C225  1  0.50320885  0.28901427  0.12859360  1
  C  C226  1  0.50211627  0.61993871  0.12962496  1
  C  C227  1  0.50475793  0.95234562  0.13088122  1
  C  C228  1  0.00097589  0.04760720  0.86812122  1
  C  C229  1  0.00327944  0.37906680  0.86644897  1
  C  C230  1  0.00211592  0.71324515  0.87346380  1
  C  C231  1  0.49981107  0.04656526  0.86357863  1
  C  C232  1  0.49627095  0.37833265  0.86988307  1
  C  C233  1  0.50189045  0.71327661  0.86934283  1
  C  C234  1  -0.00564691  0.28587564  0.37133205  1
  C  C235  1  0.00392295  0.62031427  0.36800517  1
  C  C236  1  -0.00384234  0.95388646  0.37162057  1
  C  C237  1  0.49695862  0.28806103  0.36732868  1
  C  C238  1  0.49699761  0.62027024  0.37246040  1
  C  C239  1  0.50031473  0.95495735  0.36977946  1
  C  C240  1  0.25680641  0.21214933  0.62862673  1
  C  C241  1  0.24997591  0.54706464  0.63047204  1
  C  C242  1  0.25039915  0.87885146  0.63493533  1
  C  C243  1  0.75182195  0.21171704  0.63008292  1
  C  C244  1  0.75020861  0.54584464  0.63379988  1
  C  C245  1  0.75227797  0.88061636  0.62560130  1
  C  C246  1  0.25489467  0.12373586  0.13262886  1
  C  C247  1  0.24361320  0.45259366  0.13027303  1
  C  C248  1  0.24608747  0.78685762  0.13400717  1
  C  C249  1  0.74975831  0.11903096  0.13244288  1
  C  C250  1  0.74735200  0.45420246  0.12930716  1
  C  C251  1  0.74994008  0.78687840  0.12994459  1
  C  C252  1  0.24927766  0.21408081  0.86909364  1
  C  C253  1  0.24727025  0.54295103  0.86502540  1
  C  C254  1  0.24723664  0.87961455  0.86919602  1
  C  C255  1  0.74286812  0.21395562  0.87045936  1
  C  C256  1  0.75146632  0.54563201  0.87604095  1
  C  C257  1  0.74553283  0.87871648  0.86643960  1
  C  C258  1  0.24815972  0.11968029  0.36768669  1
  C  C259  1  0.25457869  0.45496190  0.37055258  1
  C  C260  1  0.25361984  0.78714354  0.36940612  1
  C  C261  1  0.74764243  0.12111522  0.36553973  1
  C  C262  1  0.74903976  0.45379443  0.36678598  1
  C  C263  1  0.74985700  0.78993408  0.36789652  1
  C  C264  1  0.02837085  0.07545972  0.96267846  1
  C  C265  1  0.78386241  0.75874907  0.03556975  1
  C  C266  1  0.68558959  0.56806142  0.54702495  1
  C  C267  1  0.95946011  0.74544220  0.53803006  1
  C  C268  1  0.47472134  0.92281169  0.03682136  1
  C  C269  1  0.77264103  0.42630831  0.03314126  1
  C  C270  1  0.22809879  0.57512383  0.53335360  1
  C  C271  1  0.56639968  0.73970689  0.95486110  1
  C  C272  1  0.54171553  0.92991235  0.46322389  1
  C  C273  1  0.29096155  0.57010085  0.95679401  1
  C  C274  1  0.76638538  0.56998563  0.53532127  1
  C  C275  1  0.45816794  0.06950729  0.95789587  1
  C  C276  1  0.29981785  0.75777249  0.45948959  1
  C  C277  1  0.21522565  0.42423010  0.46389167  1
  C  C278  1  0.51907573  0.74134954  0.52948327  1
  C  C279  1  0.71500914  0.90991083  0.53360012  1
  C  C280  1  0.26986778  0.75912946  0.03901534  1
  C  C281  1  0.46028289  0.92914136  0.46430675  1
  C  C282  1  0.70232069  0.75955898  0.03781797  1
  C  C283  1  0.23184957  0.90608470  0.53899736  1
  C  C284  1  0.79605758  0.91021248  0.53519036  1
  C  C285  1  0.48428683  0.07387041  0.53142296  1
  C  C286  1  0.71113601  0.56906362  0.97012638  1
  C  C287  1  0.19299282  0.23721417  0.95922398  1
  C  C288  1  0.72912875  0.09355679  0.03513241  1
  C  C289  1  0.67608337  0.24105884  0.95446346  1
  C  C290  1  0.55421126  0.59328764  0.45984385  1
  C  C291  1  0.96333338  0.40921649  0.95716253  1
  C  C292  1  0.21075274  0.42061043  0.03835755  1
  C  C293  1  0.79253577  0.57007542  0.96979236  1
  C  C294  1  0.76932215  0.90266827  0.96359665  1
  C  C295  1  0.02941899  0.25654330  0.46606774  1
  C  C296  1  0.27400932  0.23953953  0.96586509  1
  C  C297  1  0.79060266  0.76477417  0.46029429  1
  C  C298  1  0.95920635  0.73929478  0.96501178  1
  C  C299  1  0.54016525  0.06835220  0.95856606  1
  C  C300  1  0.69167177  0.42877532  0.03981151  1
  C  C301  1  0.47760850  0.41077049  0.96441459  1
  C  C302  1  0.56442598  0.06907995  0.54188797  1
  C  C303  1  0.47425213  0.58994931  0.46746378  1
  C  C304  1  0.03570849  0.40739006  0.53790187  1
  C  C305  1  0.30894089  0.57176551  0.54255222  1
  C  C306  1  0.51345881  0.25778427  0.46253498  1
  C  C307  1  0.94025761  0.92188116  0.45926609  1
  C  C308  1  0.98204556  0.92297465  0.03669059  1
  C  C309  1  0.47410493  0.25788543  0.03351960  1
  C  C310  1  0.81952335  0.23849785  0.54631340  1
  C  C311  1  0.03989354  0.74030321  0.96595882  1
  N  N312  1  0.69067241  0.90394035  0.95404031  1
  N  N313  1  0.52278057  0.41030417  0.53630428  1
  N  N314  1  0.03876042  0.74352438  0.53928445  1
  N  N315  1  0.29451290  0.24496736  0.53871042  1
  N  N316  1  0.80756453  0.09566023  0.04535628  1
  N  N317  1  0.06277281  0.26225690  0.04902226  1
  N  N318  1  0.18930722  0.09643138  0.04871779  1
  N  N319  1  0.71144018  0.76360332  0.46264608  1
  N  N320  1  0.96174074  0.59198435  0.45870627  1
  N  N321  1  0.31027292  0.90574074  0.54739127  1
  N  N322  1  0.98592767  0.25948051  0.03987052  1
  N  N323  1  0.04323877  0.59802529  0.46131833  1
  N  N324  1  0.44691431  0.40976233  0.54362735  1
  N  N325  1  0.57462121  0.59736331  0.04950382  1
  N  N326  1  0.55430928  0.40941080  0.95628634  1
  N  N327  1  0.55253377  0.26030155  0.03981389  1
  N  N328  1  0.80311766  0.42740365  0.45599934  1
  N  N329  1  0.21595698  0.23320477  0.53577013  1
  N  N330  1  0.00149324  0.58783268  0.03286217  1
  N  N331  1  0.95595625  0.40768601  0.54004677  1
  N  N332  1  0.77493765  0.08888521  0.45949226  1
  N  N333  1  0.95058135  0.25801396  0.46202759  1
  N  N334  1  0.97061992  0.08065029  0.54034945  1
  N  N335  1  0.04954562  0.07039534  0.53980602  1
  N  N336  1  0.27546802  0.90520477  0.96278664  1
  N  N337  1  0.69921081  0.09012017  0.45427595  1
  N  N338  1  0.75375839  0.24536780  0.96542557  1
  N  N339  1  0.22209736  0.75679146  0.46488313  1
  N  N340  1  0.49976806  0.58201471  0.03698247  1
  N  N341  1  0.72720555  0.42647289  0.46341755  1
  N  N342  1  0.55224503  0.92414017  0.03911993  1
  N  N343  1  0.44146012  0.73659127  0.54010445  1
  N  N344  1  0.43505692  0.25820728  0.45321754  1
  N  N345  1  0.29435879  0.42702809  0.46210427  1
  N  N346  1  0.19724835  0.90500831  0.95997636  1
  N  N347  1  0.06065739  0.92669699  0.04563475  1
  N  N348  1  0.48860931  0.74330514  0.96453160  1
  N  N349  1  0.27366602  0.09290014  0.46396000  1
  N  N350  1  0.92584539  0.60123630  0.04638701  1
  N  N351  1  0.19751096  0.09603619  0.45887489  1
  N  N352  1  0.28796313  0.42201065  0.03839771  1
  N  N353  1  0.21136056  0.57325829  0.95667756  1
  N  N354  1  0.26625070  0.09373598  0.03832906  1
  N  N355  1  0.01906387  0.92173872  0.46484504  1
  N  N356  1  0.94908606  0.07293647  0.95949442  1
  N  N357  1  0.74196742  0.24217270  0.53469910  1
  N  N358  1  0.04260318  0.40914677  0.95971700  1
  N  N359  1  0.19091693  0.75940975  0.04478306  1
  N  N360  1  0.07057070  0.05775885  0.59821436  1
  N  N361  1  0.06135907  0.39086714  0.59481664  1
  N  N362  1  0.06463485  0.72297203  0.59580620  1
  N  N363  1  0.57260785  0.05143316  0.60323269  1
  N  N364  1  0.55716015  0.39179349  0.59057951  1
  N  N365  1  0.55574817  0.72570233  0.58303063  1
  N  N366  1  0.44316175  0.27551246  0.08835149  1
  N  N367  1  0.45385816  0.60568835  0.08285433  1
  N  N368  1  0.44343112  0.93986398  0.09207067  1
  N  N369  1  0.94629505  0.27951460  0.09004717  1
  N  N370  1  0.92411212  0.61435187  0.10637605  1
  N  N371  1  0.94678631  0.93980371  0.09031206  1
  N  N372  1  0.43442796  0.05607173  0.89854404  1
  N  N373  1  0.43971541  0.39191179  0.91253100  1
  N  N374  1  0.44775294  0.72507122  0.91239136  1
  N  N375  1  0.93386091  0.05575988  0.89983046  1
  N  N376  1  0.93760185  0.39172827  0.89997489  1
  N  N377  1  0.93599940  0.72312271  0.90843738  1
  N  N378  1  0.05671425  0.27363085  0.40989461  1
  N  N379  1  0.06700435  0.60519033  0.40173382  1
  N  N380  1  0.05458436  0.94339012  0.41169868  1
  N  N381  1  0.55274788  0.27570741  0.41031297  1
  N  N382  1  0.56800078  0.61169217  0.40145990  1
  N  N383  1  0.56562580  0.94515491  0.40619344  1
  N  N384  1  0.32016856  0.22149793  0.59268118  1
  N  N385  1  0.32131908  0.55527621  0.60124802  1
  N  N386  1  0.32003044  0.88879929  0.60721371  1
  N  N387  1  0.82587174  0.22088818  0.60577321  1
  N  N388  1  0.80548964  0.55628195  0.58982353  1
  N  N389  1  0.81863386  0.89255487  0.59152541  1
  N  N390  1  0.18316535  0.11261267  0.10807459  1
  N  N391  1  0.18049071  0.43920136  0.09342949  1
  N  N392  1  0.17799818  0.77653545  0.10393046  1
  N  N393  1  0.69272388  0.10813843  0.08916716  1
  N  N394  1  0.67726777  0.44585543  0.10060780  1
  N  N395  1  0.68254966  0.77725869  0.09801883  1
  N  N396  1  0.17896807  0.22123902  0.89792706  1
  N  N397  1  0.18438165  0.55267680  0.90106945  1
  N  N398  1  0.18041113  0.88832235  0.90174954  1
  N  N399  1  0.66911743  0.22264909  0.89523637  1
  N  N400  1  0.68685959  0.55416073  0.91205741  1
  N  N401  1  0.67634763  0.88958026  0.89419514  1
  N  N402  1  0.30637757  0.10751249  0.40782447  1
  N  N403  1  0.31915919  0.44661828  0.40487302  1
  N  N404  1  0.32114943  0.77568202  0.40135630  1
  N  N405  1  0.80655110  0.10836462  0.40470765  1
  N  N406  1  0.81781218  0.44351029  0.39569878  1
  N  N407  1  0.81572715  0.78000707  0.40217507  1
  N  N408  1  0.42664957  0.27724192  0.39351639  1
  N  N409  1  0.43909655  0.60646112  0.41385949  1
  N  N410  1  0.43550595  0.94471852  0.40477992  1
  N  N411  1  0.92819583  0.27662358  0.40372540  1
  N  N412  1  0.93969786  0.61602411  0.40389554  1
  N  N413  1  0.92613157  0.94103322  0.40123943  1
  N  N414  1  0.06141103  0.06014987  0.90712102  1
  N  N415  1  0.06584786  0.39020867  0.90278994  1
  N  N416  1  0.06645354  0.72483236  0.91010934  1
  N  N417  1  0.56471967  0.05427756  0.89961494  1
  N  N418  1  0.56624260  0.38947334  0.89636563  1
  N  N419  1  0.57490363  0.72183763  0.89567325  1
  N  N420  1  0.07132495  0.27983596  0.10765387  1
  N  N421  1  0.04687221  0.61045787  0.07998931  1
  N  N422  1  0.07417524  0.94567497  0.10431925  1
  N  N423  1  0.57110114  0.28005132  0.09841783  1
  N  N424  1  0.57613422  0.61293500  0.10886562  1
  N  N425  1  0.57114241  0.94269150  0.09893617  1
  N  N426  1  0.44524008  0.05928383  0.58343554  1
  N  N427  1  0.43155728  0.39146646  0.60306038  1
  N  N428  1  0.42925193  0.71743432  0.59979022  1
  N  N429  1  0.94296246  0.05500257  0.59299442  1
  N  N430  1  0.93237702  0.39069460  0.59753924  1
  N  N431  1  0.93562093  0.72727730  0.59449921  1
  N  N432  1  0.18047858  0.11261269  0.39899951  1
  N  N433  1  0.19048944  0.44118065  0.40702690  1
  N  N434  1  0.19344892  0.77549083  0.40734593  1
  N  N435  1  0.68041021  0.11005613  0.39647398  1
  N  N436  1  0.69242400  0.44292552  0.40857667  1
  N  N437  1  0.68786288  0.77979072  0.40504328  1
  N  N438  1  0.30773125  0.22566679  0.91157980  1
  N  N439  1  0.31347448  0.55339717  0.89946814  1
  N  N440  1  0.30728749  0.89180028  0.90725567  1
  N  N441  1  0.79556632  0.22606914  0.91432632  1
  N  N442  1  0.81628583  0.55553953  0.91135125  1
  N  N443  1  0.80392052  0.88774488  0.90902882  1
  N  N444  1  0.30770376  0.11338626  0.08803531  1
  N  N445  1  0.30873566  0.44211092  0.09698904  1
  N  N446  1  0.30531961  0.77552470  0.09344081  1
  N  N447  1  0.82003314  0.11062199  0.10541746  1
  N  N448  1  0.80610433  0.44164615  0.08726373  1
  N  N449  1  0.81235752  0.77527632  0.09088699  1
  N  N450  1  0.19240340  0.22439368  0.59512460  1
  N  N451  1  0.19208190  0.55913821  0.58935868  1
  N  N452  1  0.19358851  0.88984709  0.59237233  1
  N  N453  1  0.69939566  0.22352652  0.58594459  1
  N  N454  1  0.67762705  0.55327020  0.60819729  1
  N  N455  1  0.68836535  0.89192905  0.58875995  1
  Cl  Cl456  1  0.25456233  0.05559391  0.61977147  1
  Cl  Cl457  1  0.24722072  0.38702707  0.61426326  1
  Cl  Cl458  1  0.24723746  0.71715273  0.62443632  1
  Cl  Cl459  1  0.76120101  0.05388530  0.62283659  1
  Cl  Cl460  1  0.74600814  0.38249251  0.61389308  1
  Cl  Cl461  1  0.74871929  0.72470281  0.61116334  1
  Cl  Cl462  1  0.25835087  0.28123767  0.12246725  1
  Cl  Cl463  1  0.23793270  0.60039170  0.09776159  1
  Cl  Cl464  1  0.26018821  0.94518522  0.11239007  1
  Cl  Cl465  1  0.76295005  0.27260508  0.10515053  1
  Cl  Cl466  1  0.75066948  0.62097101  0.12534677  1
  Cl  Cl467  1  0.75954745  0.94453038  0.10631080  1
  Cl  Cl468  1  0.24996413  0.05922901  0.89200363  1
  Cl  Cl469  1  0.25422695  0.38662001  0.88337687  1
  Cl  Cl470  1  0.26299817  0.72406607  0.89199404  1
  Cl  Cl471  1  0.74954586  0.05534916  0.88915549  1
  Cl  Cl472  1  0.75418184  0.38284175  0.87904352  1
  Cl  Cl473  1  0.75473192  0.71917002  0.87494710  1
  Cl  Cl474  1  0.23928626  0.28115721  0.39203707  1
  Cl  Cl475  1  0.24923754  0.61248421  0.37689312  1
  Cl  Cl476  1  0.23909873  0.94020001  0.38604091  1
  Cl  Cl477  1  0.73996145  0.27286840  0.39226875  1
  Cl  Cl478  1  0.75838652  0.61230713  0.38891710  1
  Cl  Cl479  1  0.74655831  0.94938827  0.37089306  1
  Cl  Cl480  1  0.00964541  0.21817581  0.62030413  1
  Cl  Cl481  1  -0.00259182  0.56027563  0.60410384  1
  Cl  Cl482  1  0.00943650  0.89101001  0.60883142  1
  Cl  Cl483  1  0.51057263  0.22512425  0.61029501  1
  Cl  Cl484  1  0.49852794  0.54975102  0.63498388  1
  Cl  Cl485  1  0.50407682  0.88232652  0.61893765  1
  Cl  Cl486  1  0.00095110  0.11749687  0.12615230  1
  Cl  Cl487  1  -0.01025623  0.44691531  0.11554069  1
  Cl  Cl488  1  -0.00582390  0.78325372  0.12605804  1
  Cl  Cl489  1  0.49764570  0.11120665  0.10553695  1
  Cl  Cl490  1  0.49180043  0.44709925  0.11897796  1
  Cl  Cl491  1  0.48946344  0.77412054  0.10626803  1
  Cl  Cl492  1  -0.02147128  0.23134457  0.89904451  1
  Cl  Cl493  1  0.00250410  0.56684324  0.88549897  1
  Cl  Cl494  1  -0.00773499  0.88689399  0.88680034  1
  Cl  Cl495  1  0.48923989  0.22545773  0.87983439  1
  Cl  Cl496  1  0.49509159  0.56008537  0.89917735  1
  Cl  Cl497  1  0.49064244  0.88422212  0.88617422  1
  Cl  Cl498  1  -0.00765346  0.10781623  0.39752012  1
  Cl  Cl499  1  0.00452403  0.44622721  0.38845448  1
  Cl  Cl500  1  0.00669595  0.77678055  0.39476057  1
  Cl  Cl501  1  0.49432724  0.11096803  0.37664918  1
  Cl  Cl502  1  0.50456847  0.44849524  0.38394315  1
  Cl  Cl503  1  0.50332155  0.77565258  0.37988968  1
  Cl  Cl504  1  0.35392266  0.14925139  0.75272503  1
  Cl  Cl505  1  0.35410104  0.48129091  0.74881772  1
  Cl  Cl506  1  0.36313841  0.81387642  0.74607480  1
  Cl  Cl507  1  0.86180043  0.14879761  0.74864998  1
  Cl  Cl508  1  0.86211310  0.48123131  0.74959752  1
  Cl  Cl509  1  0.85184822  0.81648829  0.74438551  1
  Cl  Cl510  1  0.13435778  0.18838426  0.24964647  1
  Cl  Cl511  1  0.14299560  0.52087910  0.25380921  1
  Cl  Cl512  1  0.13826506  0.85261993  0.24545253  1
  Cl  Cl513  1  0.64326393  0.18820739  0.24591541  1
  Cl  Cl514  1  0.63883109  0.52050977  0.24304467  1
  Cl  Cl515  1  0.64080964  0.85461163  0.24243349  1
  Cl  Cl516  1  0.13241455  0.14503665  0.75385676  1
  Cl  Cl517  1  0.13256632  0.47885528  0.74805686  1
  Cl  Cl518  1  0.14175634  0.81600666  0.75588875  1
  Cl  Cl519  1  0.63740328  0.14680856  0.75558335  1
  Cl  Cl520  1  0.63935963  0.48146601  0.75388476  1
  Cl  Cl521  1  0.63337749  0.81145156  0.75530695  1
  Cl  Cl522  1  0.35792205  0.18495599  0.25426053  1
  Cl  Cl523  1  0.36190487  0.51902121  0.24493698  1
  Cl  Cl524  1  0.35920825  0.85049662  0.25078031  1
  Cl  Cl525  1  0.86194598  0.18629116  0.25131132  1
  Cl  Cl526  1  0.86133965  0.51890191  0.25180118  1
  Cl  Cl527  1  0.86101150  0.85263718  0.25189728  1
  Cl  Cl528  1  0.10577412  0.31362836  0.75052246  1
  Cl  Cl529  1  0.11141745  0.64836729  0.75341892  1
  Cl  Cl530  1  0.10496453  0.97913704  0.74981516  1
  Cl  Cl531  1  0.61208505  0.31272853  0.75930929  1
  Cl  Cl532  1  0.60673823  0.64550188  0.75355154  1
  Cl  Cl533  1  0.61417910  0.98044885  0.75080111  1
  Cl  Cl534  1  0.39256907  0.01827064  0.24696277  1
  Cl  Cl535  1  0.39117016  0.35064044  0.25776205  1
  Cl  Cl536  1  0.39511607  0.68416218  0.24789559  1
  Cl  Cl537  1  0.89230131  0.01827593  0.24859430  1
  Cl  Cl538  1  0.89402663  0.35231812  0.25590122  1
  Cl  Cl539  1  0.88993976  0.68504079  0.24950053  1
  Cl  Cl540  1  0.38955552  0.31517515  0.74328969  1
  Cl  Cl541  1  0.38827582  0.64638461  0.75196108  1
  Cl  Cl542  1  0.39123268  0.98380298  0.74895630  1
  Cl  Cl543  1  0.88749930  0.31437005  0.74037591  1
  Cl  Cl544  1  0.89144934  0.65143514  0.74599056  1
  Cl  Cl545  1  0.88946060  0.98093667  0.75420399  1
  Cl  Cl546  1  0.11328750  0.02053086  0.24624900  1
  Cl  Cl547  1  0.11292030  0.35408550  0.25075847  1
  Cl  Cl548  1  0.10833890  0.68422132  0.24888945  1
  Cl  Cl549  1  0.61297421  0.02120660  0.24511969  1
  Cl  Cl550  1  0.61259050  0.35136624  0.24150970  1
  Cl  Cl551  1  0.61501530  0.68749586  0.24852351  1
