# generated using pymatgen
data_H8PbC4(N3Cl2)2
_symmetry_space_group_name_H-M   'P 1'
_cell_length_a   16.63026840
_cell_length_b   22.51388729
_cell_length_c   21.59292898
_cell_angle_alpha   89.99937074
_cell_angle_beta   90.00007541
_cell_angle_gamma   90.00058832
_symmetry_Int_Tables_number   1
_chemical_formula_structural   H8PbC4(N3Cl2)2
_chemical_formula_sum   'H192 Pb24 C96 N144 Cl96'
_cell_volume   8084.65147375
_cell_formula_units_Z   24
loop_
 _symmetry_equiv_pos_site_id
 _symmetry_equiv_pos_as_xyz
  1  'x, y, z'
loop_
 _atom_site_type_symbol
 _atom_site_label
 _atom_site_symmetry_multiplicity
 _atom_site_fract_x
 _atom_site_fract_y
 _atom_site_fract_z
 _atom_site_occupancy
  H  H0  1  0.01553382  0.03171336  0.67997422  1
  H  H1  1  -0.00327257  0.36666370  0.67765867  1
  H  H2  1  -0.00585531  0.69337378  0.67571312  1
  H  H3  1  0.48460731  0.03052129  0.67752272  1
  H  H4  1  0.50518083  0.36426497  0.67791844  1
  H  H5  1  0.49120380  0.69635838  0.67838002  1
  H  H6  1  -0.00217304  0.30408659  0.17669065  1
  H  H7  1  -0.00176353  0.63649078  0.17863110  1
  H  H8  1  0.00402107  0.97466252  0.17438410  1
  H  H9  1  0.50607242  0.30655629  0.17919125  1
  H  H10  1  0.50284521  0.63856218  0.17967744  1
  H  H11  1  0.49419593  0.97299436  0.17729046  1
  H  H12  1  -0.01092436  0.02757439  0.82587677  1
  H  H13  1  0.01124259  0.35910410  0.82235536  1
  H  H14  1  -0.00543143  0.69752994  0.82091766  1
  H  H15  1  0.50342711  0.03164829  0.82676737  1
  H  H16  1  0.49424756  0.36243390  0.82440194  1
  H  H17  1  0.51323530  0.69814946  0.81891562  1
  H  H18  1  0.00028241  0.29996481  0.31414929  1
  H  H19  1  -0.00192218  0.64012892  0.32331280  1
  H  H20  1  -0.01372102  0.96777815  0.31907764  1
  H  H21  1  0.49538206  0.29854321  0.31489464  1
  H  H22  1  0.49529792  0.63519090  0.31737242  1
  H  H23  1  0.49898202  0.97031452  0.32265222  1
  H  H24  1  0.25253570  0.19891058  0.68337834  1
  H  H25  1  0.25035772  0.52604753  0.67602627  1
  H  H26  1  0.24907481  0.86409037  0.67869331  1
  H  H27  1  0.75357461  0.19886584  0.68175627  1
  H  H28  1  0.75863500  0.53079935  0.67889301  1
  H  H29  1  0.76221199  0.86206107  0.68024807  1
  H  H30  1  0.25548755  0.13957030  0.17189039  1
  H  H31  1  0.24235728  0.46992148  0.18025769  1
  H  H32  1  0.25098748  0.80335062  0.17956457  1
  H  H33  1  0.74488447  0.13889793  0.17524760  1
  H  H34  1  0.74679509  0.46972300  0.18057630  1
  H  H35  1  0.75346788  0.80504218  0.18096337  1
  H  H36  1  0.24703230  0.19022250  0.82203597  1
  H  H37  1  0.25237402  0.53051329  0.82409725  1
  H  H38  1  0.25072473  0.86671322  0.81965657  1
  H  H39  1  0.74779108  0.19237638  0.82475947  1
  H  H40  1  0.75077539  0.52828688  0.81975422  1
  H  H41  1  0.73955419  0.86464464  0.82366960  1
  H  H42  1  0.24253396  0.13407865  0.32086661  1
  H  H43  1  0.25412397  0.46831752  0.32972230  1
  H  H44  1  0.25633190  0.80195978  0.32120494  1
  H  H45  1  0.75886548  0.13511517  0.32192392  1
  H  H46  1  0.75627534  0.47138626  0.32190981  1
  H  H47  1  0.74347789  0.80299908  0.32003149  1
  H  H48  1  0.11819205  0.05725067  0.59171739  1
  H  H49  1  0.13658491  0.38400632  0.62451692  1
  H  H50  1  0.12818627  0.71731490  0.61494600  1
  H  H51  1  0.62269588  0.05088076  0.62004782  1
  H  H52  1  0.63177665  0.38774467  0.60778503  1
  H  H53  1  0.63209627  0.71615386  0.62634511  1
  H  H54  1  0.37179146  0.28287667  0.12212034  1
  H  H55  1  0.37364597  0.61599714  0.11594737  1
  H  H56  1  0.38430141  0.94587551  0.09428003  1
  H  H57  1  0.87252175  0.27800479  0.10681282  1
  H  H58  1  0.87185239  0.61162305  0.11177409  1
  H  H59  1  0.87829944  0.94760012  0.10651109  1
  H  H60  1  0.37816482  0.05467249  0.89274350  1
  H  H61  1  0.36946519  0.38847704  0.89420633  1
  H  H62  1  0.38087081  0.71840355  0.88387025  1
  H  H63  1  0.88179419  0.05795037  0.90785477  1
  H  H64  1  0.87036800  0.38015934  0.87188351  1
  H  H65  1  0.88401741  0.72390537  0.90115629  1
  H  H66  1  0.12463001  0.28692502  0.38666419  1
  H  H67  1  0.13283531  0.61269610  0.38111103  1
  H  H68  1  0.12670227  0.94868261  0.37266640  1
  H  H69  1  0.62478682  0.28114436  0.38001926  1
  H  H70  1  0.62994065  0.61542332  0.37514973  1
  H  H71  1  0.62208925  0.94655538  0.39154204  1
  H  H72  1  0.37485765  0.22061189  0.61185386  1
  H  H73  1  0.36389286  0.55370224  0.59626939  1
  H  H74  1  0.37594514  0.88574121  0.61140319  1
  H  H75  1  0.87229847  0.22476890  0.60834387  1
  H  H76  1  0.86361337  0.56136597  0.59507089  1
  H  H77  1  0.86576437  0.88940244  0.59297911  1
  H  H78  1  0.12136559  0.11508072  0.11288773  1
  H  H79  1  0.13653137  0.44016817  0.09727666  1
  H  H80  1  0.12085595  0.78140671  0.11278167  1
  H  H81  1  0.62393728  0.10934203  0.10370342  1
  H  H82  1  0.63128897  0.44474978  0.10498875  1
  H  H83  1  0.61880998  0.78238262  0.12019983  1
  H  H84  1  0.12891754  0.22202506  0.89432169  1
  H  H85  1  0.12630915  0.55504118  0.89244071  1
  H  H86  1  0.11616109  0.88561602  0.87983374  1
  H  H87  1  0.63248229  0.22085039  0.90191761  1
  H  H88  1  0.63281253  0.55306070  0.89618902  1
  H  H89  1  0.62283097  0.89273879  0.89960728  1
  H  H90  1  0.38003333  0.11521234  0.37888868  1
  H  H91  1  0.36074325  0.43992456  0.41124262  1
  H  H92  1  0.36166197  0.77824733  0.40583364  1
  H  H93  1  0.87437722  0.10829319  0.39826884  1
  H  H94  1  0.86037035  0.44110897  0.40616736  1
  H  H95  1  0.86496624  0.77703026  0.39337373  1
  H  H96  1  0.37583562  0.28190964  0.39044832  1
  H  H97  1  0.38266850  0.60873655  0.39494784  1
  H  H98  1  0.37349497  0.94767593  0.39070194  1
  H  H99  1  0.87579640  0.27444537  0.38199519  1
  H  H100  1  0.88708541  0.60965305  0.40433284  1
  H  H101  1  0.88285379  0.93993009  0.40642120  1
  H  H102  1  0.12771756  0.05017965  0.88047621  1
  H  H103  1  0.11463440  0.39110863  0.90746801  1
  H  H104  1  0.13162705  0.71872690  0.87890072  1
  H  H105  1  0.62661811  0.05355386  0.89609566  1
  H  H106  1  0.61827748  0.38691575  0.89342158  1
  H  H107  1  0.62839335  0.72395117  0.89886794  1
  H  H108  1  0.12130664  0.27530497  0.10839648  1
  H  H109  1  0.12055165  0.61014290  0.10686416  1
  H  H110  1  0.12720952  0.94688165  0.10440268  1
  H  H111  1  0.61991989  0.27697911  0.10320595  1
  H  H112  1  0.62247876  0.61264250  0.10722467  1
  H  H113  1  0.63082799  0.95067283  0.11895274  1
  H  H114  1  0.37783066  0.05610694  0.59135603  1
  H  H115  1  0.38369521  0.38826432  0.60473266  1
  H  H116  1  0.38704147  0.72688751  0.59431507  1
  H  H117  1  0.87484870  0.05100763  0.62697728  1
  H  H118  1  0.89018056  0.39195221  0.59491545  1
  H  H119  1  0.88040319  0.72462123  0.59936943  1
  H  H120  1  0.13417200  0.10552247  0.40482359  1
  H  H121  1  0.11626473  0.45105608  0.38141446  1
  H  H122  1  0.11640405  0.78428700  0.37256756  1
  H  H123  1  0.62590262  0.11265857  0.38402672  1
  H  H124  1  0.61627184  0.44938837  0.37507597  1
  H  H125  1  0.61611465  0.78101518  0.38865230  1
  H  H126  1  0.37735469  0.21568289  0.88667212  1
  H  H127  1  0.37525319  0.55532504  0.89434388  1
  H  H128  1  0.36437349  0.89083498  0.89691556  1
  H  H129  1  0.88076493  0.21795444  0.88464856  1
  H  H130  1  0.88032064  0.55292514  0.88503639  1
  H  H131  1  0.87120053  0.88617876  0.88745579  1
  H  H132  1  0.36916848  0.10843836  0.09508496  1
  H  H133  1  0.38225655  0.44990155  0.12533503  1
  H  H134  1  0.36965659  0.77798756  0.10550920  1
  H  H135  1  0.87280436  0.11363641  0.10867608  1
  H  H136  1  0.88001998  0.44723180  0.11916674  1
  H  H137  1  0.86647093  0.78017011  0.10121008  1
  H  H138  1  0.12555440  0.22135442  0.61347994  1
  H  H139  1  0.11757167  0.55382036  0.61549447  1
  H  H140  1  0.12705754  0.88608956  0.60776226  1
  H  H141  1  0.62512157  0.21549342  0.61375556  1
  H  H142  1  0.61852492  0.55205918  0.62657900  1
  H  H143  1  0.62199297  0.88322276  0.62713818  1
  H  H144  1  0.66013135  0.08083067  0.49036188  1
  H  H145  1  0.13074438  0.75671618  0.48673575  1
  H  H146  1  0.42897500  0.27366221  0.50403934  1
  H  H147  1  0.95012029  0.75492729  1.00641367  1
  H  H148  1  0.92076821  0.24678054  0.49369905  1
  H  H149  1  0.17445816  0.91683378  0.49726149  1
  H  H150  1  0.40757732  0.58760854  0.00357347  1
  H  H151  1  0.88315048  0.41392700  0.98559391  1
  H  H152  1  0.95927806  0.58425386  0.50500088  1
  H  H153  1  0.79981292  0.75304451  -0.00480363  1
  H  H154  1  0.60592934  0.58816584  0.48967106  1
  H  H155  1  0.03786694  0.41406147  1.00593018  1
  H  H156  1  0.68146216  0.20951917  0.50629275  1
  H  H157  1  0.12908611  0.41746335  0.50098220  1
  H  H158  1  0.32488096  0.23395615  0.49771755  1
  H  H159  1  0.29060662  0.75115304  0.51001310  1
  H  H160  1  0.58857889  0.27188863  0.49681194  1
  H  H161  1  0.17310419  0.22749683  0.50447850  1
  H  H162  1  0.84126474  0.57884592  0.99134413  1
  H  H163  1  0.78596175  0.91538687  0.49550338  1
  H  H164  1  0.57123653  0.58398850  -0.00219569  1
  H  H165  1  0.58558102  0.41676675  0.50368718  1
  H  H166  1  0.46374765  0.75526373  0.49557249  1
  H  H167  1  0.07569745  0.27805334  0.50113850  1
  H  H168  1  0.96041877  0.42078843  0.48986677  1
  H  H169  1  0.68886962  0.41570591  -0.00400662  1
  H  H170  1  0.41635308  0.41767039  0.99869811  1
  H  H171  1  0.44491013  0.58147336  0.50327036  1
  H  H172  1  0.55876574  0.24348871  -0.00314240  1
  H  H173  1  0.96257481  0.91424928  0.50384591  1
  H  H174  1  0.78217235  0.41567900  0.50542772  1
  H  H175  1  0.57671410  0.91667726  0.50301075  1
  H  H176  1  0.39832592  0.24986402  0.00990909  1
  H  H177  1  0.30382346  0.91927799  1.00569864  1
  H  H178  1  0.81774053  0.07897865  0.50502137  1
  H  H179  1  0.21004693  0.41067297  -0.00493881  1
  H  H180  1  0.15348184  0.08359848  0.00545894  1
  H  H181  1  0.65851054  0.75122091  0.49801793  1
  H  H182  1  0.03729634  0.08129101  0.49383576  1
  H  H183  1  0.17285741  0.58391510  0.99791682  1
  H  H184  1  0.20940315  0.07768970  0.50368742  1
  H  H185  1  0.10455226  0.74924021  0.98631128  1
  H  H186  1  0.29431783  0.57793953  0.49404794  1
  H  H187  1  0.80393450  0.27829729  0.52088104  1
  H  H188  1  0.69789988  0.25005530  1.00444160  1
  H  H189  1  0.78668851  0.58461791  0.49430235  1
  H  H190  1  0.31366629  0.74886296  -0.00225194  1
  H  H191  1  0.45834075  0.92092178  -0.00629720  1
  Pb  Pb192  1  0.25016893  0.04592203  0.74195570  1
  Pb  Pb193  1  0.25106372  0.37890579  0.75687560  1
  Pb  Pb194  1  0.25252379  0.71940079  0.74745352  1
  Pb  Pb195  1  0.75002466  0.04704470  0.75351122  1
  Pb  Pb196  1  0.74770377  0.38263620  0.74344639  1
  Pb  Pb197  1  0.75252390  0.71269678  0.75295527  1
  Pb  Pb198  1  0.24988734  0.28661477  0.25621064  1
  Pb  Pb199  1  0.25014867  0.61975528  0.25060251  1
  Pb  Pb200  1  0.25453224  0.95096416  0.24434989  1
  Pb  Pb201  1  0.75210006  0.28334439  0.24887114  1
  Pb  Pb202  1  0.75218533  0.61998798  0.25275316  1
  Pb  Pb203  1  0.75067342  0.95372530  0.25849938  1
  Pb  Pb204  1  -0.00029093  0.21390369  0.74580877  1
  Pb  Pb205  1  0.00413039  0.54907028  0.74457091  1
  Pb  Pb206  1  -0.00541341  0.88173691  0.73824257  1
  Pb  Pb207  1  0.50126595  0.21328817  0.75191165  1
  Pb  Pb208  1  0.49401482  0.54916331  0.75079322  1
  Pb  Pb209  1  0.50418945  0.88212854  0.75979281  1
  Pb  Pb210  1  0.00572133  0.11744605  0.25701716  1
  Pb  Pb211  1  0.00014867  0.45345968  0.24593145  1
  Pb  Pb212  1  -0.00327867  0.78694188  0.24605781  1
  Pb  Pb213  1  0.49977481  0.11973855  0.24366305  1
  Pb  Pb214  1  0.49916311  0.45270716  0.25193227  1
  Pb  Pb215  1  0.49852003  0.78678290  0.25963778  1
  C  C216  1  0.00313702  0.04581234  0.63288446  1
  C  C217  1  0.00787087  0.38145075  0.63058413  1
  C  C218  1  0.00126364  0.71139230  0.62972842  1
  C  C219  1  0.49476180  0.04534165  0.63026459  1
  C  C220  1  0.50746964  0.38040903  0.63059389  1
  C  C221  1  0.50323133  0.71233927  0.63186710  1
  C  C222  1  -0.00315183  0.28646474  0.13013585  1
  C  C223  1  -0.00293104  0.61975966  0.13174716  1
  C  C224  1  0.00308295  0.95657114  0.12806537  1
  C  C225  1  0.49886935  0.28921499  0.13257567  1
  C  C226  1  0.49955219  0.62258050  0.13226188  1
  C  C227  1  0.50258676  0.95731214  0.13021453  1
  C  C228  1  -0.00014747  0.04448013  0.87194980  1
  C  C229  1  -0.00121917  0.37583045  0.86868092  1
  C  C230  1  0.00407987  0.71315599  0.86802437  1
  C  C231  1  0.50270431  0.04664025  0.87436590  1
  C  C232  1  0.49347254  0.37886145  0.87151673  1
  C  C233  1  0.50762976  0.71320321  0.86649386  1
  C  C234  1  0.00046910  0.28708712  0.36265916  1
  C  C235  1  0.00574094  0.62281405  0.36978993  1
  C  C236  1  -0.00172097  0.95303484  0.36598779  1
  C  C237  1  0.49894035  0.28753338  0.36373385  1
  C  C238  1  0.50322667  0.62080801  0.36500352  1
  C  C239  1  0.49875165  0.95476253  0.37008814  1
  C  C240  1  0.25013677  0.21293538  0.63523061  1
  C  C241  1  0.24411628  0.54301587  0.62924650  1
  C  C242  1  0.25011758  0.87921100  0.63109208  1
  C  C243  1  0.75002210  0.21306027  0.63381030  1
  C  C244  1  0.74710976  0.54591807  0.63201614  1
  C  C245  1  0.75030644  0.87741360  0.63354168  1
  C  C246  1  0.24822946  0.12183736  0.12558126  1
  C  C247  1  0.25421907  0.45454636  0.13346682  1
  C  C248  1  0.24681966  0.78782932  0.13202621  1
  C  C249  1  0.74739104  0.12127124  0.12877360  1
  C  C250  1  0.75238315  0.45449768  0.13315004  1
  C  C251  1  0.74613136  0.78947647  0.13379967  1
  C  C252  1  0.25148305  0.20888608  0.86799326  1
  C  C253  1  0.25085568  0.54669302  0.87132630  1
  C  C254  1  0.24391553  0.88077992  0.86729682  1
  C  C255  1  0.75328265  0.20941203  0.87142254  1
  C  C256  1  0.75476267  0.54460220  0.86698762  1
  C  C257  1  0.74466166  0.88074147  0.87062374  1
  C  C258  1  0.25178789  0.11914809  0.36807131  1
  C  C259  1  0.24295614  0.45277745  0.37648269  1
  C  C260  1  0.24432010  0.78781523  0.36835638  1
  C  C261  1  0.75263184  0.11891110  0.36914303  1
  C  C262  1  0.74430189  0.45483759  0.36817593  1
  C  C263  1  0.74138711  0.78673373  0.36729162  1
  C  C264  1  0.03885078  0.92252800  0.03745531  1
  C  C265  1  0.03987148  0.27272411  0.45947088  1
  C  C266  1  0.98028609  0.74286536  0.96352409  1
  C  C267  1  0.56796741  0.74066099  0.54724005  1
  C  C268  1  0.95568924  0.59066084  0.04013773  1
  C  C269  1  0.76880898  0.76250230  0.03849669  1
  C  C270  1  0.95885301  0.26349911  0.45676504  1
  C  C271  1  0.80716804  0.24260832  0.95899059  1
  C  C272  1  0.71685569  0.91186660  0.96385601  1
  C  C273  1  0.68335277  0.57483587  0.54734583  1
  C  C274  1  0.21341814  0.90659293  0.53624195  1
  C  C275  1  0.27646047  0.08761209  0.03145823  1
  C  C276  1  0.52571880  0.25771422  0.03771246  1
  C  C277  1  0.54668021  0.27369576  0.45827320  1
  C  C278  1  0.18910880  0.90545370  0.95676240  1
  C  C279  1  0.53393944  0.59522167  0.03740585  1
  C  C280  1  0.72438226  0.42705339  0.03670357  1
  C  C281  1  0.44407458  0.25987410  0.04436330  1
  C  C282  1  0.23881890  0.42427247  0.03824556  1
  C  C283  1  0.22086357  0.24502734  0.95916808  1
  C  C284  1  0.46467279  0.27448257  0.46182875  1
  C  C285  1  0.70079379  0.76054448  0.45952163  1
  C  C286  1  0.29149089  0.57703392  0.96427809  1
  C  C287  1  0.80542556  0.42863015  0.04342468  1
  C  C288  1  0.07081920  0.40610401  0.54412025  1
  C  C289  1  0.28946560  0.23270115  0.54006110  1
  C  C290  1  0.26109746  0.76208310  0.46641019  1
  C  C291  1  0.27746496  0.76011123  0.03811743  1
  C  C292  1  0.26235725  0.42303890  0.47242543  1
  C  C293  1  0.45180491  0.59682026  0.04030548  1
  C  C294  1  0.71458687  0.08637762  0.03794122  1
  C  C295  1  0.99028102  0.40925403  0.53316744  1
  C  C296  1  0.97578840  0.74704023  0.53756417  1
  C  C297  1  0.18159604  0.42717949  0.46364041  1
  C  C298  1  0.29491683  0.90635068  0.53902457  1
  C  C299  1  0.03381332  0.25291993  0.03955089  1
  C  C300  1  0.47737629  0.59371755  0.46137636  1
  C  C301  1  0.53720029  0.92714842  0.46443493  1
  C  C302  1  0.27015563  0.90762914  0.96417526  1
  C  C303  1  0.93360716  0.40496524  0.95208936  1
  C  C304  1  0.55900313  0.59649622  0.45457922  1
  C  C305  1  0.45560219  0.92774025  0.46260724  1
  C  C306  1  0.18056169  0.76447792  0.45471704  1
  C  C307  1  0.53517813  0.40938338  0.96422417  1
  C  C308  1  0.46058078  0.07426343  0.96571753  1
  C  C309  1  0.98216302  0.07771197  0.96637134  1
  C  C310  1  0.78294034  0.08997993  0.46396523  1
  C  C311  1  0.54153443  0.07385753  0.96671073  1
  N  N312  1  0.01190714  0.40910956  0.96277902  1
  N  N313  1  0.76110174  0.57744322  0.53748071  1
  N  N314  1  0.55220844  0.07097520  0.54216790  1
  N  N315  1  0.68062225  0.42690045  0.45272729  1
  N  N316  1  0.79891627  0.57141948  0.95650757  1
  N  N317  1  0.96152404  0.92237108  0.03682592  1
  N  N318  1  0.01410869  0.07377619  0.53794075  1
  N  N319  1  0.56132091  0.92883196  0.04389262  1
  N  N320  1  0.31711625  0.42806550  0.04707515  1
  N  N321  1  0.19813082  0.09084977  0.03829084  1
  N  N322  1  0.69010500  0.76177639  0.04490062  1
  N  N323  1  0.21228172  0.57614982  0.96253203  1
  N  N324  1  0.68568006  0.90560673  0.54951232  1
  N  N325  1  0.46838181  0.40711488  0.53688042  1
  N  N326  1  0.05897026  0.74180024  0.95448338  1
  N  N327  1  0.45618661  0.40905774  0.96295303  1
  N  N328  1  0.45860298  0.73886701  0.95753307  1
  N  N329  1  0.49024068  0.74424662  0.53732465  1
  N  N330  1  0.70361884  0.09160179  0.45813612  1
  N  N331  1  0.18900788  0.57328585  0.54184835  1
  N  N332  1  0.93733271  0.07094490  0.54822312  1
  N  N333  1  0.26652056  0.57346105  0.53637408  1
  N  N334  1  0.75778000  0.42314678  0.46168632  1
  N  N335  1  0.79398529  0.90967451  0.96143434  1
  N  N336  1  0.03371214  0.58987544  0.03734110  1
  N  N337  1  0.53477417  0.74081885  0.96218062  1
  N  N338  1  0.78665754  0.23799444  0.53909131  1
  N  N339  1  0.31239483  0.09391960  0.45497080  1
  N  N340  1  0.29821618  0.24231421  0.95806023  1
  N  N341  1  0.98603597  0.59042061  0.46221972  1
  N  N342  1  0.20970290  0.23425022  0.54187749  1
  N  N343  1  0.98650196  0.92384943  0.46044112  1
  N  N344  1  0.23521125  0.09073952  0.46216645  1
  N  N345  1  0.72867954  0.24259557  0.96397643  1
  N  N346  1  0.48396785  0.92697132  0.03695515  1
  N  N347  1  0.77996205  0.75872592  0.46145213  1
  N  N348  1  0.47673905  0.07329115  0.53331053  1
  N  N349  1  0.76248508  0.90801665  0.53954714  1
  N  N350  1  0.06348698  0.59170639  0.45582394  1
  N  N351  1  0.95659400  0.25450901  0.03745826  1
  N  N352  1  0.54639480  0.40723826  0.53975449  1
  N  N353  1  0.72070875  0.57102334  0.96194928  1
  N  N354  1  0.06326514  0.92739900  0.45074029  1
  N  N355  1  0.05885846  0.07467439  0.95864326  1
  N  N356  1  0.70254104  0.23608215  0.54159174  1
  N  N357  1  0.05297753  0.74438381  0.54189176  1
  N  N358  1  0.79180200  0.08806997  0.03795200  1
  N  N359  1  0.19816805  0.76127333  0.04025501  1
  N  N360  1  0.05568762  0.05600568  0.58819850  1
  N  N361  1  0.08053026  0.38921321  0.60399618  1
  N  N362  1  0.06942421  0.72215633  0.60020120  1
  N  N363  1  0.56464275  0.05432646  0.60259910  1
  N  N364  1  0.57170893  0.39139727  0.59643590  1
  N  N365  1  0.57630952  0.72185577  0.60608516  1
  N  N366  1  0.42897231  0.27900733  0.10342209  1
  N  N367  1  0.43211911  0.61346887  0.09969421  1
  N  N368  1  0.44649917  0.94651091  0.08818465  1
  N  N369  1  0.93319098  0.27571796  0.09534196  1
  N  N370  1  0.93130727  0.60839453  0.09738080  1
  N  N371  1  0.93894296  0.94405129  0.09442659  1
  N  N372  1  0.43688181  0.05792515  0.90927713  1
  N  N373  1  0.42973277  0.38961173  0.90611350  1
  N  N374  1  0.44051221  0.72224696  0.89808498  1
  N  N375  1  0.94369838  0.05946514  0.91439460  1
  N  N376  1  0.92560659  0.38632419  0.89306035  1
  N  N377  1  0.94574941  0.72543215  0.90979884  1
  N  N378  1  0.06477083  0.28630508  0.40023532  1
  N  N379  1  0.07506379  0.61010617  0.39762236  1
  N  N380  1  0.06991724  0.94373089  0.39150269  1
  N  N381  1  0.56645389  0.28120588  0.39701109  1
  N  N382  1  0.57344434  0.61324200  0.39445457  1
  N  N383  1  0.56290817  0.94388790  0.40545188  1
  N  N384  1  0.31478417  0.22185185  0.59825493  1
  N  N385  1  0.30181662  0.55271870  0.58832239  1
  N  N386  1  0.31663541  0.88992517  0.59618276  1
  N  N387  1  0.81120990  0.22988500  0.59902759  1
  N  N388  1  0.80151889  0.55624340  0.58873956  1
  N  N389  1  0.80325141  0.88814760  0.58925551  1
  N  N390  1  0.17998439  0.11245172  0.09609853  1
  N  N391  1  0.19892854  0.44061264  0.09067294  1
  N  N392  1  0.18071828  0.77866154  0.09935589  1
  N  N393  1  0.68436956  0.10654267  0.09247250  1
  N  N394  1  0.69243558  0.44348880  0.09398776  1
  N  N395  1  0.67772366  0.77877939  0.10432043  1
  N  N396  1  0.18981777  0.22491141  0.90507108  1
  N  N397  1  0.18659884  0.55668067  0.90551203  1
  N  N398  1  0.17390569  0.88958748  0.89818337  1
  N  N399  1  0.69422384  0.22024290  0.91081189  1
  N  N400  1  0.69407474  0.55520198  0.90560268  1
  N  N401  1  0.68362843  0.89441834  0.90933897  1
  N  N402  1  0.32219278  0.11115644  0.39621136  1
  N  N403  1  0.29905509  0.43857150  0.41963333  1
  N  N404  1  0.29955448  0.77672904  0.41205279  1
  N  N405  1  0.81360626  0.10685723  0.40861234  1
  N  N406  1  0.79785351  0.44267294  0.41159509  1
  N  N407  1  0.80346057  0.77488265  0.40377719  1
  N  N408  1  0.43631234  0.28274525  0.40271059  1
  N  N409  1  0.44400863  0.60927198  0.40546931  1
  N  N410  1  0.43289261  0.94414701  0.40574418  1
  N  N411  1  0.93552132  0.27305424  0.39647387  1
  N  N412  1  0.94931780  0.61184290  0.41131653  1
  N  N413  1  0.94540345  0.94180589  0.41015004  1
  N  N414  1  0.06999467  0.05368183  0.89868760  1
  N  N415  1  0.05214725  0.38797888  0.91235380  1
  N  N416  1  0.07336510  0.72296535  0.89592498  1
  N  N417  1  0.56724520  0.05733561  0.91083593  1
  N  N418  1  0.55849972  0.39079928  0.90753337  1
  N  N419  1  0.56658791  0.72470739  0.90601119  1
  N  N420  1  0.06135021  0.27225068  0.09517143  1
  N  N421  1  0.05933460  0.60819321  0.09591740  1
  N  N422  1  0.06733161  0.94288735  0.09256836  1
  N  N423  1  0.55853359  0.27619176  0.09302057  1
  N  N424  1  0.56209644  0.61108932  0.09487908  1
  N  N425  1  0.57242299  0.94616122  0.10243667  1
  N  N426  1  0.43978177  0.05701689  0.58744128  1
  N  N427  1  0.44473139  0.39083516  0.59376278  1
  N  N428  1  0.44943388  0.72490927  0.58890528  1
  N  N429  1  0.93124653  0.05551402  0.60779750  1
  N  N430  1  0.95205557  0.39387154  0.58812222  1
  N  N431  1  0.94181256  0.72711533  0.59040880  1
  N  N432  1  0.19641171  0.10674551  0.41010112  1
  N  N433  1  0.17103434  0.44519041  0.40296750  1
  N  N434  1  0.17174949  0.78009489  0.39397811  1
  N  N435  1  0.68524479  0.10930319  0.39974211  1
  N  N436  1  0.67298772  0.44441356  0.39372128  1
  N  N437  1  0.67567515  0.77718609  0.40171503  1
  N  N438  1  0.31761241  0.21960489  0.89990071  1
  N  N439  1  0.31558406  0.55905569  0.90774562  1
  N  N440  1  0.30336239  0.89190107  0.90725786  1
  N  N441  1  0.82269266  0.22284346  0.90150745  1
  N  N442  1  0.82074267  0.55494744  0.89936986  1
  N  N443  1  0.81155906  0.89015304  0.90215462  1
  N  N444  1  0.30786321  0.10662470  0.08557348  1
  N  N445  1  0.32484929  0.44686604  0.10668066  1
  N  N446  1  0.30860608  0.77612709  0.09402376  1
  N  N447  1  0.81256332  0.11010163  0.09576121  1
  N  N448  1  0.82214474  0.44475044  0.10195711  1
  N  N449  1  0.80489530  0.77870849  0.09273132  1
  N  N450  1  0.18557454  0.21843457  0.60012106  1
  N  N451  1  0.17578877  0.55607211  0.60011914  1
  N  N452  1  0.18655881  0.88969924  0.59494125  1
  N  N453  1  0.68479130  0.21418200  0.59908724  1
  N  N454  1  0.67417991  0.55654264  0.60618653  1
  N  N455  1  0.67883764  0.88854578  0.60853036  1
  Cl  Cl456  1  0.24117602  0.05717871  0.59928248  1
  Cl  Cl457  1  0.26380493  0.38242372  0.62563574  1
  Cl  Cl458  1  0.26465042  0.72048991  0.61308734  1
  Cl  Cl459  1  0.74715345  0.05395880  0.61661332  1
  Cl  Cl460  1  0.76308678  0.38692792  0.59781657  1
  Cl  Cl461  1  0.75962731  0.71750165  0.62097321  1
  Cl  Cl462  1  0.24374781  0.27973818  0.12605177  1
  Cl  Cl463  1  0.24414944  0.61087884  0.11670244  1
  Cl  Cl464  1  0.26068347  0.94709651  0.10890545  1
  Cl  Cl465  1  0.74321963  0.27242653  0.11038282  1
  Cl  Cl466  1  0.74900961  0.61112593  0.12118676  1
  Cl  Cl467  1  0.75498837  0.95095089  0.12795756  1
  Cl  Cl468  1  0.25241863  0.05616002  0.87374562  1
  Cl  Cl469  1  0.23837649  0.39148871  0.89365834  1
  Cl  Cl470  1  0.25654046  0.71742004  0.88239124  1
  Cl  Cl471  1  0.75587021  0.05495101  0.88345684  1
  Cl  Cl472  1  0.74033658  0.38176174  0.87548342  1
  Cl  Cl473  1  0.75764904  0.72284594  0.88921829  1
  Cl  Cl474  1  0.25025447  0.27162887  0.39197548  1
  Cl  Cl475  1  0.26197689  0.60317466  0.38754568  1
  Cl  Cl476  1  0.25095942  0.94908912  0.37694837  1
  Cl  Cl477  1  0.75192827  0.27443957  0.38522396  1
  Cl  Cl478  1  0.76813567  0.60258041  0.39656303  1
  Cl  Cl479  1  0.76207315  0.94019408  0.40136272  1
  Cl  Cl480  1  -0.00252138  0.22351512  0.60936058  1
  Cl  Cl481  1  -0.01531775  0.56489415  0.60533787  1
  Cl  Cl482  1  -0.01308070  0.89093871  0.59804397  1
  Cl  Cl483  1  0.50131759  0.22523850  0.61722470  1
  Cl  Cl484  1  0.48451451  0.55519189  0.61495261  1
  Cl  Cl485  1  0.49768273  0.87987638  0.62756377  1
  Cl  Cl486  1  -0.00151598  0.11382753  0.12503316  1
  Cl  Cl487  1  0.01352493  0.43855426  0.10734833  1
  Cl  Cl488  1  -0.00718723  0.77672073  0.10971714  1
  Cl  Cl489  1  0.49554790  0.10919231  0.11058977  1
  Cl  Cl490  1  0.50829187  0.44283980  0.11720072  1
  Cl  Cl491  1  0.49130068  0.78280713  0.12869245  1
  Cl  Cl492  1  0.00553111  0.21777053  0.87658360  1
  Cl  Cl493  1  0.00319987  0.55198892  0.87715121  1
  Cl  Cl494  1  -0.00716845  0.88207864  0.86889611  1
  Cl  Cl495  1  0.50915095  0.22093538  0.88661092  1
  Cl  Cl496  1  0.50523907  0.55108434  0.88520260  1
  Cl  Cl497  1  0.49161259  0.89586462  0.89611692  1
  Cl  Cl498  1  0.01090640  0.10448255  0.39987660  1
  Cl  Cl499  1  -0.02143384  0.44625724  0.37983358  1
  Cl  Cl500  1  -0.01304553  0.78053879  0.37754785  1
  Cl  Cl501  1  0.50381770  0.11468683  0.37558829  1
  Cl  Cl502  1  0.48611272  0.44565927  0.38306282  1
  Cl  Cl503  1  0.48478718  0.77722192  0.39894887  1
  Cl  Cl504  1  0.35936201  0.14854240  0.74742940  1
  Cl  Cl505  1  0.35719002  0.48295868  0.75789005  1
  Cl  Cl506  1  0.35504293  0.81553035  0.75241758  1
  Cl  Cl507  1  0.86075292  0.14817986  0.74347756  1
  Cl  Cl508  1  0.85729374  0.48191063  0.74931469  1
  Cl  Cl509  1  0.85755181  0.81718248  0.75147326  1
  Cl  Cl510  1  0.14061943  0.18435180  0.25139772  1
  Cl  Cl511  1  0.13945692  0.51835233  0.25859116  1
  Cl  Cl512  1  0.13398846  0.85503214  0.25259812  1
  Cl  Cl513  1  0.63599942  0.18704133  0.25459369  1
  Cl  Cl514  1  0.63564090  0.52248423  0.25939650  1
  Cl  Cl515  1  0.63648166  0.85380680  0.25016653  1
  Cl  Cl516  1  0.13806957  0.14662132  0.74372155  1
  Cl  Cl517  1  0.13908709  0.47969409  0.74396672  1
  Cl  Cl518  1  0.13879516  0.80959124  0.75043663  1
  Cl  Cl519  1  0.64163005  0.14938274  0.74517677  1
  Cl  Cl520  1  0.64050429  0.47785518  0.74267070  1
  Cl  Cl521  1  0.63645953  0.81107463  0.74652141  1
  Cl  Cl522  1  0.36102695  0.18548673  0.25122478  1
  Cl  Cl523  1  0.36090505  0.51825166  0.24521087  1
  Cl  Cl524  1  0.35322035  0.84898813  0.25343490  1
  Cl  Cl525  1  0.85625241  0.18627707  0.25431699  1
  Cl  Cl526  1  0.85836321  0.51671138  0.24424805  1
  Cl  Cl527  1  0.85548008  0.84916238  0.25355524  1
  Cl  Cl528  1  0.11249052  0.31384378  0.74395296  1
  Cl  Cl529  1  0.11219480  0.64393313  0.74501473  1
  Cl  Cl530  1  0.11219241  0.97891227  0.75356570  1
  Cl  Cl531  1  0.61106418  0.31529391  0.74353238  1
  Cl  Cl532  1  0.61696311  0.64301575  0.74123941  1
  Cl  Cl533  1  0.61040135  0.98017487  0.74674146  1
  Cl  Cl534  1  0.39171528  0.01671558  0.25307200  1
  Cl  Cl535  1  0.38970193  0.35187619  0.24247358  1
  Cl  Cl536  1  0.39219439  0.68269395  0.24911316  1
  Cl  Cl537  1  0.88918242  0.01935364  0.25415523  1
  Cl  Cl538  1  0.88739862  0.35277384  0.24160309  1
  Cl  Cl539  1  0.89293619  0.68145334  0.24899265  1
  Cl  Cl540  1  0.39245549  0.31603100  0.75478592  1
  Cl  Cl541  1  0.39706925  0.64859126  0.75465522  1
  Cl  Cl542  1  0.38990448  0.98166834  0.75128123  1
  Cl  Cl543  1  0.89073151  0.31594834  0.74875720  1
  Cl  Cl544  1  0.89367719  0.65026716  0.75307911  1
  Cl  Cl545  1  0.89146995  0.98193030  0.74176384  1
  Cl  Cl546  1  0.10806807  0.02154405  0.25235283  1
  Cl  Cl547  1  0.10968994  0.35171134  0.25485705  1
  Cl  Cl548  1  0.11221721  0.68766806  0.25329281  1
  Cl  Cl549  1  0.61218388  0.01932164  0.25190234  1
  Cl  Cl550  1  0.61418607  0.35475602  0.25685071  1
  Cl  Cl551  1  0.61514021  0.68877343  0.25558585  1
