# generated using pymatgen
data_H8PbC4(N3Cl2)2
_symmetry_space_group_name_H-M   'P 1'
_cell_length_a   16.62963961
_cell_length_b   22.51605236
_cell_length_c   21.59638706
_cell_angle_alpha   90.00057888
_cell_angle_beta   89.98183295
_cell_angle_gamma   90.00274289
_symmetry_Int_Tables_number   1
_chemical_formula_structural   H8PbC4(N3Cl2)2
_chemical_formula_sum   'H192 Pb24 C96 N144 Cl96'
_cell_volume   8086.41763808
_cell_formula_units_Z   24
loop_
 _symmetry_equiv_pos_site_id
 _symmetry_equiv_pos_as_xyz
  1  'x, y, z'
loop_
 _atom_site_type_symbol
 _atom_site_label
 _atom_site_symmetry_multiplicity
 _atom_site_fract_x
 _atom_site_fract_y
 _atom_site_fract_z
 _atom_site_occupancy
  H  H0  1  -0.01147176  0.02537870  0.67853208  1
  H  H1  1  0.01563076  0.36190921  0.67747543  1
  H  H2  1  -0.00259871  0.69842440  0.68111791  1
  H  H3  1  0.50521213  0.03017499  0.67934021  1
  H  H4  1  0.48522969  0.36580090  0.68205586  1
  H  H5  1  0.50331854  0.69164157  0.67814728  1
  H  H6  1  -0.00143816  0.30629676  0.17339501  1
  H  H7  1  -0.01173151  0.64039089  0.17605618  1
  H  H8  1  0.00131748  0.97022030  0.18223083  1
  H  H9  1  0.49127634  0.30383212  0.17610931  1
  H  H10  1  0.50199541  0.63578139  0.18177573  1
  H  H11  1  0.48964273  0.97160045  0.17264344  1
  H  H12  1  -0.00519103  0.02886430  0.82088982  1
  H  H13  1  0.00185899  0.36464520  0.82433295  1
  H  H14  1  0.00151382  0.69616497  0.82211290  1
  H  H15  1  0.49656536  0.02858045  0.82375602  1
  H  H16  1  0.49157362  0.36447668  0.81944630  1
  H  H17  1  0.50574600  0.69417085  0.82330395  1
  H  H18  1  0.01272463  0.30108361  0.31778753  1
  H  H19  1  0.00049890  0.63421667  0.31936787  1
  H  H20  1  0.00917072  0.96960391  0.32253413  1
  H  H21  1  0.48878646  0.30099064  0.31683556  1
  H  H22  1  0.49505225  0.64186323  0.32240789  1
  H  H23  1  0.49542348  0.96874423  0.31642471  1
  H  H24  1  0.24379894  0.20055690  0.68535536  1
  H  H25  1  0.24280515  0.53344090  0.67892000  1
  H  H26  1  0.26157517  0.86465868  0.67884117  1
  H  H27  1  0.76531089  0.19942750  0.68204708  1
  H  H28  1  0.75529819  0.52717126  0.67467242  1
  H  H29  1  0.73512622  0.86138971  0.67956131  1
  H  H30  1  0.25018647  0.13839163  0.17727659  1
  H  H31  1  0.25824164  0.46981077  0.17628417  1
  H  H32  1  0.25641183  0.80646346  0.17491458  1
  H  H33  1  0.75044358  0.13847974  0.18072835  1
  H  H34  1  0.74872230  0.47035722  0.18121072  1
  H  H35  1  0.73879337  0.80503862  0.18160531  1
  H  H36  1  0.25843779  0.19515975  0.82462050  1
  H  H37  1  0.24904569  0.52874635  0.82258187  1
  H  H38  1  0.25120956  0.85979457  0.82051360  1
  H  H39  1  0.74278810  0.19414887  0.82310331  1
  H  H40  1  0.75495666  0.52869582  0.82329290  1
  H  H41  1  0.75278512  0.86429157  0.82071969  1
  H  H42  1  0.25119653  0.13394425  0.31779759  1
  H  H43  1  0.24745199  0.46893690  0.31989963  1
  H  H44  1  0.23755160  0.80233451  0.32216367  1
  H  H45  1  0.75646458  0.13806441  0.32248642  1
  H  H46  1  0.75711374  0.47578369  0.32114078  1
  H  H47  1  0.75844604  0.80164161  0.32042897  1
  H  H48  1  0.12943734  0.04540638  0.62626630  1
  H  H49  1  0.12046533  0.39502866  0.59426972  1
  H  H50  1  0.13083322  0.72003177  0.61712141  1
  H  H51  1  0.63085653  0.05646241  0.60989721  1
  H  H52  1  0.62326339  0.38453874  0.62831427  1
  H  H53  1  0.63199427  0.71623724  0.61305187  1
  H  H54  1  0.38310517  0.27470341  0.09496957  1
  H  H55  1  0.37768566  0.61343763  0.10925799  1
  H  H56  1  0.38394961  0.93987642  0.09147816  1
  H  H57  1  0.88227255  0.27575866  0.09844267  1
  H  H58  1  0.87849144  0.60863079  0.09646516  1
  H  H59  1  0.87774543  0.94696350  0.11269013  1
  H  H60  1  0.37819317  0.05601445  0.89886371  1
  H  H61  1  0.38931903  0.38888873  0.90486109  1
  H  H62  1  0.37073636  0.71880637  0.88030713  1
  H  H63  1  0.87374176  0.05584387  0.89426547  1
  H  H64  1  0.88894467  0.39039309  0.90240641  1
  H  H65  1  0.87565735  0.71817259  0.88878985  1
  H  H66  1  0.12681660  0.27739510  0.39592182  1
  H  H67  1  0.11438712  0.61335502  0.39727386  1
  H  H68  1  0.12524970  0.94214989  0.39850421  1
  H  H69  1  0.62566681  0.28207271  0.37159830  1
  H  H70  1  0.62073450  0.61248087  0.39073764  1
  H  H71  1  0.62145505  0.94636714  0.38401989  1
  H  H72  1  0.37218020  0.21682170  0.61880109  1
  H  H73  1  0.37916050  0.55155651  0.61874473  1
  H  H74  1  0.36859477  0.88870976  0.59721878  1
  H  H75  1  0.86971176  0.22624671  0.59731702  1
  H  H76  1  0.87876836  0.55409786  0.60482335  1
  H  H77  1  0.87439094  0.88353875  0.62778280  1
  H  H78  1  0.12452784  0.11139358  0.10764515  1
  H  H79  1  0.11733139  0.45218303  0.12330429  1
  H  H80  1  0.12806804  0.77829121  0.11001263  1
  H  H81  1  0.62450980  0.11287241  0.11103846  1
  H  H82  1  0.61994044  0.44724802  0.11731621  1
  H  H83  1  0.63189608  0.77830828  0.09806667  1
  H  H84  1  0.12036468  0.21852074  0.87966587  1
  H  H85  1  0.12431849  0.55391626  0.89105288  1
  H  H86  1  0.12108297  0.88362995  0.88802324  1
  H  H87  1  0.61660333  0.22115858  0.89265463  1
  H  H88  1  0.62288340  0.55168792  0.88661573  1
  H  H89  1  0.61700222  0.88443016  0.87935905  1
  H  H90  1  0.36838351  0.11170418  0.39408172  1
  H  H91  1  0.37578950  0.45133389  0.38771209  1
  H  H92  1  0.36930753  0.78168754  0.38186550  1
  H  H93  1  0.85863080  0.10510846  0.40859242  1
  H  H94  1  0.87372889  0.44730730  0.39889690  1
  H  H95  1  0.86589812  0.77536547  0.40183784  1
  H  H96  1  0.37926519  0.27928306  0.39889446  1
  H  H97  1  0.37226850  0.61302783  0.39484910  1
  H  H98  1  0.37181030  0.94799660  0.38686798  1
  H  H99  1  0.87828778  0.27941212  0.37932582  1
  H  H100  1  0.86601739  0.61417450  0.37955768  1
  H  H101  1  0.87710913  0.94678882  0.38626044  1
  H  H102  1  0.12195556  0.05504150  0.88819385  1
  H  H103  1  0.13621750  0.38357603  0.88185648  1
  H  H104  1  0.12458999  0.71944008  0.89286278  1
  H  H105  1  0.62633795  0.05406493  0.88919739  1
  H  H106  1  0.63411833  0.38135771  0.86951109  1
  H  H107  1  0.61801451  0.72340195  0.90250356  1
  H  H108  1  0.13012520  0.28307552  0.11016685  1
  H  H109  1  0.12505860  0.61799651  0.11821201  1
  H  H110  1  0.12714383  0.94642147  0.11481801  1
  H  H111  1  0.62901322  0.28269075  0.11950389  1
  H  H112  1  0.62605002  0.61131414  0.10878603  1
  H  H113  1  0.62907183  0.95057775  0.11946848  1
  H  H114  1  0.38152966  0.05319065  0.60924784  1
  H  H115  1  0.37693338  0.38901741  0.59929280  1
  H  H116  1  0.38332952  0.72117995  0.60487976  1
  H  H117  1  0.88638586  0.05784729  0.59226140  1
  H  H118  1  0.87552897  0.38494739  0.62659676  1
  H  H119  1  0.88244735  0.72102231  0.60260882  1
  H  H120  1  0.12063154  0.11358127  0.37913496  1
  H  H121  1  0.12832876  0.44386471  0.39375687  1
  H  H122  1  0.12120854  0.77859202  0.39973792  1
  H  H123  1  0.61575046  0.11666972  0.37382879  1
  H  H124  1  0.62638705  0.44821699  0.38516022  1
  H  H125  1  0.61954502  0.78300319  0.37313799  1
  H  H126  1  0.36618438  0.22546029  0.90616154  1
  H  H127  1  0.37422141  0.55506336  0.89218335  1
  H  H128  1  0.36924251  0.88863636  0.89634961  1
  H  H129  1  0.86514554  0.22248654  0.89385808  1
  H  H130  1  0.87160301  0.55611983  0.89843863  1
  H  H131  1  0.86414970  0.89063562  0.90193273  1
  H  H132  1  0.37277070  0.11293025  0.10555262  1
  H  H133  1  0.36301402  0.43853028  0.09287552  1
  H  H134  1  0.37660747  0.77902337  0.10205595  1
  H  H135  1  0.87287033  0.11222437  0.10758629  1
  H  H136  1  0.86870938  0.44717421  0.10853760  1
  H  H137  1  0.87801062  0.78196930  0.12632528  1
  H  H138  1  0.12272879  0.21977797  0.61165799  1
  H  H139  1  0.13254483  0.55828851  0.59606975  1
  H  H140  1  0.12253623  0.88047217  0.62406428  1
  H  H141  1  0.62432699  0.21732375  0.62748190  1
  H  H142  1  0.62994749  0.55527718  0.60671027  1
  H  H143  1  0.62897377  0.89050081  0.59557851  1
  H  H144  1  0.79302663  0.25315008  0.49408838  1
  H  H145  1  0.15233624  0.08377820  0.49300227  1
  H  H146  1  0.44646550  0.25640038  0.50671851  1
  H  H147  1  0.77764661  0.08134753  0.50640592  1
  H  H148  1  0.85613347  0.91432722  0.51433082  1
  H  H149  1  0.94514552  0.26156667  -0.00563996  1
  H  H150  1  0.91340061  0.26504758  0.48990498  1
  H  H151  1  0.63572482  0.75199942  0.48711869  1
  H  H152  1  0.32175373  0.45483303  0.49567303  1
  H  H153  1  0.33849933  0.75088836  0.49612072  1
  H  H154  1  0.60485421  0.41409371  0.51467890  1
  H  H155  1  0.70389796  0.90970713  0.49466855  1
  H  H156  1  0.04317726  0.42492927  0.49645582  1
  H  H157  1  0.46484196  0.41612252  1.00929802  1
  H  H158  1  0.91644324  0.74934138  1.00051953  1
  H  H159  1  0.29854827  0.91568996  0.48974355  1
  H  H160  1  0.16836102  0.58801594  0.99941028  1
  H  H161  1  0.57833905  0.91914675  0.49653936  1
  H  H162  1  0.96755665  0.08161595  0.49415305  1
  H  H163  1  0.08662652  0.91494510  0.00512344  1
  H  H164  1  0.66411405  0.24917868  0.99617041  1
  H  H165  1  0.11181844  0.41498433  -0.00352803  1
  H  H166  1  0.66034362  0.58218283  0.99250153  1
  H  H167  1  0.93066331  0.08164933  0.99820556  1
  H  H168  1  0.94579611  0.74831538  0.49562329  1
  H  H169  1  0.60891563  0.91910616  0.00946903  1
  H  H170  1  0.54863785  0.75350985  1.00358885  1
  H  H171  1  0.33304613  0.23307718  0.50297860  1
  H  H172  1  0.58596978  0.08235833  0.50428227  1
  H  H173  1  0.17369469  0.23196562  0.49792736  1
  H  H174  1  0.70473200  0.74753190  -0.00407637  1
  H  H175  1  0.06406925  0.25730906  0.50611186  1
  H  H176  1  0.65244943  0.41641783  0.00521883  1
  H  H177  1  0.20550958  0.58869814  0.49680243  1
  H  H178  1  0.42826559  0.08452108  0.49952253  1
  H  H179  1  0.17598530  0.08315705  0.00301741  1
  H  H180  1  0.81732580  0.41588152  -0.00050964  1
  H  H181  1  0.09445735  0.24873578  0.00588276  1
  H  H182  1  0.44547898  0.41172785  0.49229026  1
  H  H183  1  0.19244799  0.39710554  0.48641094  1
  H  H184  1  0.32682182  0.58918146  0.99460720  1
  H  H185  1  0.05347630  0.58652514  0.50696793  1
  H  H186  1  0.58212745  0.08328661  0.99479404  1
  H  H187  1  0.60531705  0.25643783  0.48681206  1
  H  H188  1  0.41884284  0.92141205  0.49881032  1
  H  H189  1  0.92284395  0.91561610  0.00297119  1
  H  H190  1  0.28705146  0.41071928  -0.00628104  1
  H  H191  1  0.79704112  0.74343998  0.50642432  1
  Pb  Pb192  1  0.25165449  0.04630492  0.75581081  1
  Pb  Pb193  1  0.25670957  0.38407277  0.74611611  1
  Pb  Pb194  1  0.25138118  0.71253175  0.74571769  1
  Pb  Pb195  1  0.75192636  0.04658787  0.74499328  1
  Pb  Pb196  1  0.75357938  0.37965819  0.75442771  1
  Pb  Pb197  1  0.75121867  0.71346764  0.75292564  1
  Pb  Pb198  1  0.24844562  0.28543629  0.25192164  1
  Pb  Pb199  1  0.24936677  0.61991225  0.25271801  1
  Pb  Pb200  1  0.25137736  0.95342038  0.24750775  1
  Pb  Pb201  1  0.75170779  0.28724991  0.24720302  1
  Pb  Pb202  1  0.74805405  0.62084986  0.24037232  1
  Pb  Pb203  1  0.74901329  0.95168452  0.25753421  1
  Pb  Pb204  1  -0.00012187  0.21458235  0.74790548  1
  Pb  Pb205  1  0.00040312  0.54652279  0.74812934  1
  Pb  Pb206  1  0.00028332  0.87891808  0.75790646  1
  Pb  Pb207  1  0.49935293  0.21239775  0.75624271  1
  Pb  Pb208  1  0.50500278  0.54728297  0.75229987  1
  Pb  Pb209  1  0.49915647  0.88054224  0.74420846  1
  Pb  Pb210  1  -0.00404984  0.11776428  0.25229110  1
  Pb  Pb211  1  -0.00138473  0.45455484  0.25901429  1
  Pb  Pb212  1  0.00148005  0.78616757  0.25578041  1
  Pb  Pb213  1  0.49811356  0.12070206  0.24851761  1
  Pb  Pb214  1  0.49755132  0.45233197  0.24723935  1
  Pb  Pb215  1  0.49758902  0.78741461  0.23808127  1
  C  C216  1  0.00111672  0.04203870  0.63242863  1
  C  C217  1  0.00408426  0.37899618  0.63147757  1
  C  C218  1  0.00382755  0.71314849  0.63352318  1
  C  C219  1  0.50654536  0.04624165  0.63180826  1
  C  C220  1  0.49555999  0.37973683  0.63454950  1
  C  C221  1  0.50593468  0.70954619  0.63178478  1
  C  C222  1  0.00357036  0.28893097  0.12655477  1
  C  C223  1  -0.00235664  0.62304626  0.12998028  1
  C  C224  1  0.00208437  0.95460098  0.13463285  1
  C  C225  1  0.50155059  0.28764158  0.12972715  1
  C  C226  1  0.50204233  0.62090704  0.13391967  1
  C  C227  1  0.50143683  0.95490963  0.12647268  1
  C  C228  1  -0.00347667  0.04572684  0.86789113  1
  C  C229  1  0.00973331  0.37941255  0.87165590  1
  C  C230  1  0.00004721  0.71159603  0.86959930  1
  C  C231  1  0.50068368  0.04553314  0.87057876  1
  C  C232  1  0.50501297  0.37802175  0.86649335  1
  C  C233  1  0.49835350  0.71097829  0.86987891  1
  C  C234  1  0.00516800  0.28688054  0.36557155  1
  C  C235  1  -0.00617485  0.62051399  0.36716225  1
  C  C236  1  0.00340330  0.95337790  0.36939275  1
  C  C237  1  0.49842991  0.28746372  0.36457090  1
  C  C238  1  0.49582151  0.62337944  0.36878442  1
  C  C239  1  0.49647447  0.95444500  0.36445720  1
  C  C240  1  0.24625860  0.21256670  0.63666748  1
  C  C241  1  0.25128187  0.54796214  0.63147336  1
  C  C242  1  0.25088328  0.87778247  0.63127975  1
  C  C243  1  0.75268212  0.21373423  0.63496183  1
  C  C244  1  0.75453922  0.54526835  0.62834432  1
  C  C245  1  0.74599012  0.87735042  0.63266773  1
  C  C246  1  0.24864014  0.12184982  0.13022353  1
  C  C247  1  0.24647706  0.45432487  0.12958303  1
  C  C248  1  0.25355153  0.78843254  0.12861446  1
  C  C249  1  0.74940526  0.12213336  0.13353899  1
  C  C250  1  0.74555444  0.45459690  0.13369365  1
  C  C251  1  0.74990144  0.78880743  0.13502466  1
  C  C252  1  0.24787450  0.21208552  0.87065594  1
  C  C253  1  0.24960189  0.54587508  0.86966614  1
  C  C254  1  0.24703122  0.87659173  0.86749882  1
  C  C255  1  0.74116019  0.21153019  0.86990979  1
  C  C256  1  0.74932390  0.54508115  0.87024647  1
  C  C257  1  0.74477750  0.87976725  0.86772178  1
  C  C258  1  0.24587622  0.12006998  0.36564458  1
  C  C259  1  0.25074248  0.45456605  0.36783495  1
  C  C260  1  0.24339869  0.78752502  0.36967109  1
  C  C261  1  0.74375430  0.12138319  0.36857334  1
  C  C262  1  0.75260010  0.45795299  0.36766390  1
  C  C263  1  0.74736457  0.78670385  0.36755360  1
  C  C264  1  0.28596813  0.75432759  0.03727464  1
  C  C265  1  0.76699220  0.75705950  0.46403045  1
  C  C266  1  0.45695781  0.93046961  0.45900180  1
  C  C267  1  0.48239365  0.25545523  0.03492561  1
  C  C268  1  0.04478114  0.92650177  0.04200167  1
  C  C269  1  0.03921796  0.73939892  0.96264003  1
  C  C270  1  0.48202384  0.92079574  0.03100260  1
  C  C271  1  0.29417411  0.76085583  0.46066103  1
  C  C272  1  0.21037426  0.22883172  0.53946891  1
  C  C273  1  0.21283470  0.76024056  0.46499605  1
  C  C274  1  0.47532853  0.40414268  0.53642740  1
  C  C275  1  0.46666731  0.07384378  0.53895999  1
  C  C276  1  0.80833503  0.90579626  0.54787747  1
  C  C277  1  0.97855504  0.73850262  0.53812567  1
  C  C278  1  0.69800768  0.42706649  0.04225720  1
  C  C279  1  0.68577468  0.76044484  0.45427543  1
  C  C280  1  0.44121833  0.74478882  0.95595811  1
  C  C281  1  0.55787644  0.26528010  0.45323605  1
  C  C282  1  0.78166673  0.57667506  0.96466706  1
  C  C283  1  0.79101394  0.57848466  0.53758626  1
  C  C284  1  0.95784112  0.73910132  0.96298614  1
  C  C285  1  0.20816215  0.57612871  0.96134826  1
  C  C286  1  0.26929257  0.90403247  0.53320027  1
  C  C287  1  0.57209448  0.40143963  0.95114715  1
  C  C288  1  0.93908794  0.59613652  0.45677539  1
  C  C289  1  0.73352836  0.75948930  0.03954069  1
  C  C290  1  0.97680535  0.58842837  0.03653460  1
  C  C291  1  0.49266153  0.40450358  0.96516987  1
  C  C292  1  0.54988848  0.74007873  0.54164049  1
  C  C293  1  0.55628706  0.40434341  0.54705589  1
  C  C294  1  0.47684446  0.26439808  0.46288690  1
  C  C295  1  0.27789233  0.09446890  0.46109685  1
  C  C296  1  0.18924957  0.90059869  0.54428326  1
  C  C297  1  0.98286593  0.40774926  0.96716907  1
  C  C298  1  0.02014974  0.59596946  0.46469440  1
  C  C299  1  0.96261688  0.92686132  0.04108442  1
  C  C300  1  0.93954023  0.41218240  0.54818912  1
  C  C301  1  0.18233118  0.42725705  0.04429111  1
  C  C302  1  0.19669190  0.09438964  0.45745720  1
  C  C303  1  0.06396195  0.40556160  0.96148558  1
  C  C304  1  0.29212431  0.22862187  0.54194034  1
  C  C305  1  0.78006686  0.42687282  0.03920962  1
  C  C306  1  0.03375189  0.26258465  0.46184936  1
  C  C307  1  0.26645864  0.24445012  0.96530241  1
  C  C308  1  0.76641382  0.24157631  0.53870519  1
  C  C309  1  0.53889310  0.92956154  0.45792914  1
  C  C310  1  0.03169485  0.92204156  0.46298067  1
  C  C311  1  0.69201135  0.90644292  0.95616714  1
  N  N312  1  0.51964615  0.74489043  0.96253321  1
  N  N313  1  0.20187171  0.90565125  0.95858979  1
  N  N314  1  0.21194608  0.09151238  0.04040063  1
  N  N315  1  0.68848722  0.23901503  0.54894188  1
  N  N316  1  0.30966441  0.57046722  0.54277801  1
  N  N317  1  0.46315477  0.59473125  0.04023821  1
  N  N318  1  0.45978425  0.58977952  0.46058218  1
  N  N319  1  0.71356512  0.57920550  0.53691750  1
  N  N320  1  0.78162228  0.42556489  0.46137630  1
  N  N321  1  0.01725084  0.41387531  0.53818372  1
  N  N322  1  0.54298670  0.07518838  0.95917325  1
  N  N323  1  0.05370094  0.59161690  0.04216571  1
  N  N324  1  0.28785826  0.57558205  0.96078410  1
  N  N325  1  0.97414897  0.25381179  0.03557919  1
  N  N326  1  0.67765523  0.09410467  0.45227795  1
  N  N327  1  0.29731879  0.43124979  0.45943983  1
  N  N328  1  0.54625287  0.07454579  0.54042902  1
  N  N329  1  0.76893962  0.90909821  0.96469930  1
  N  N330  1  0.26027057  0.42258344  0.03505724  1
  N  N331  1  0.28989479  0.09227999  0.03812348  1
  N  N332  1  0.55959514  0.92601201  0.04110556  1
  N  N333  1  0.47226856  0.74289145  0.53791427  1
  N  N334  1  0.78129988  0.24131677  0.96233506  1
  N  N335  1  0.21449272  0.43305420  0.46240581  1
  N  N336  1  0.04318383  0.07454159  0.95862378  1
  N  N337  1  0.95442312  0.92414364  0.46042555  1
  N  N338  1  0.55926745  0.25841256  0.04183585  1
  N  N339  1  0.95457790  0.26243761  0.45488559  1
  N  N340  1  0.05229602  0.26601608  0.03682703  1
  N  N341  1  0.78531693  0.09285750  0.04017262  1
  N  N342  1  0.18953871  0.24129852  0.95813201  1
  N  N343  1  0.72974513  0.90815736  0.53790339  1
  N  N344  1  0.75431906  0.08964208  0.46234176  1
  N  N345  1  0.70309067  0.24113292  0.95987138  1
  N  N346  1  0.81171101  0.76060181  0.04880747  1
  N  N347  1  0.05740030  0.73853405  0.54315824  1
  N  N348  1  0.70838310  0.09292742  0.04141433  1
  N  N349  1  0.70578917  0.42649434  0.45723469  1
  N  N350  1  0.23214308  0.57318089  0.53676024  1
  N  N351  1  0.46512486  0.07545840  0.96401129  1
  N  N352  1  0.27791856  0.90784520  0.96125437  1
  N  N353  1  0.96471814  0.07641273  0.95908245  1
  N  N354  1  0.20857438  0.75408106  0.03840356  1
  N  N355  1  0.99022463  0.07388228  0.53871084  1
  N  N356  1  0.06664197  0.06958495  0.54892087  1
  N  N357  1  0.54021498  0.59384014  0.04031473  1
  N  N358  1  0.53596801  0.58953371  0.45943320  1
  N  N359  1  0.70300104  0.57426401  0.95930990  1
  N  N360  1  0.07304756  0.05141142  0.60753697  1
  N  N361  1  0.05835558  0.39153825  0.58857156  1
  N  N362  1  0.07139911  0.72301127  0.60258306  1
  N  N363  1  0.57070935  0.05631902  0.59728048  1
  N  N364  1  0.56715400  0.38915648  0.60797539  1
  N  N365  1  0.57288638  0.72072401  0.59860815  1
  N  N366  1  0.44476517  0.27315445  0.08753307  1
  N  N367  1  0.43868415  0.61156105  0.09792817  1
  N  N368  1  0.44553072  0.93874073  0.08361465  1
  N  N369  1  0.94339457  0.27857314  0.08786600  1
  N  N370  1  0.94008256  0.60726951  0.08903122  1
  N  N371  1  0.93762489  0.94425463  0.09894203  1
  N  N372  1  0.43923360  0.05779875  0.90815555  1
  N  N373  1  0.45171748  0.38942858  0.91098625  1
  N  N374  1  0.42794603  0.72442154  0.89835637  1
  N  N375  1  0.93484492  0.05636994  0.90497333  1
  N  N376  1  0.95041090  0.39206685  0.91294551  1
  N  N377  1  0.93453607  0.72181776  0.90367530  1
  N  N378  1  0.06548299  0.27571480  0.40601910  1
  N  N379  1  0.05332240  0.61118142  0.40754245  1
  N  N380  1  0.06412136  0.93977565  0.40845798  1
  N  N381  1  0.56969989  0.27941376  0.39218518  1
  N  N382  1  0.55992365  0.61016959  0.40254199  1
  N  N383  1  0.56218767  0.94447274  0.39882636  1
  N  N384  1  0.31313995  0.21894147  0.60268065  1
  N  N385  1  0.32098166  0.55487581  0.60200505  1
  N  N386  1  0.30722364  0.88934122  0.58873545  1
  N  N387  1  0.80744753  0.22593592  0.59106911  1
  N  N388  1  0.81894286  0.55829616  0.59279362  1
  N  N389  1  0.81825886  0.88865765  0.60715510  1
  N  N390  1  0.18487227  0.11086744  0.09557474  1
  N  N391  1  0.17342234  0.44623762  0.10308772  1
  N  N392  1  0.18822500  0.77573146  0.09650181  1
  N  N393  1  0.68514484  0.11082134  0.09926068  1
  N  N394  1  0.67831953  0.44408148  0.10133185  1
  N  N395  1  0.69413247  0.77644174  0.09210709  1
  N  N396  1  0.17791689  0.22142464  0.89764452  1
  N  N397  1  0.18417932  0.55732146  0.90479956  1
  N  N398  1  0.18123846  0.88603924  0.90056687  1
  N  N399  1  0.67721281  0.22203766  0.90457078  1
  N  N400  1  0.68227612  0.55447394  0.90140384  1
  N  N401  1  0.67461337  0.88910597  0.89706373  1
  N  N402  1  0.30734439  0.10992333  0.40568564  1
  N  N403  1  0.31605153  0.45293257  0.40250072  1
  N  N404  1  0.31180574  0.77793846  0.40026424  1
  N  N405  1  0.79594650  0.10861769  0.41275615  1
  N  N406  1  0.81224758  0.44489871  0.40606499  1
  N  N407  1  0.80406390  0.77365886  0.40978850  1
  N  N408  1  0.44093041  0.27813640  0.40710095  1
  N  N409  1  0.43328611  0.61092628  0.40451598  1
  N  N410  1  0.43185314  0.94583339  0.40062847  1
  N  N411  1  0.93715934  0.28097233  0.39636259  1
  N  N412  1  0.92381692  0.61078793  0.39786224  1
  N  N413  1  0.93646396  0.94350154  0.40059206  1
  N  N414  1  0.06188083  0.05765849  0.90102948  1
  N  N415  1  0.07936246  0.38781928  0.90078591  1
  N  N416  1  0.06453379  0.72292791  0.90646200  1
  N  N417  1  0.56645486  0.05589233  0.90315761  1
  N  N418  1  0.57938950  0.38586600  0.89147863  1
  N  N419  1  0.55597736  0.72228721  0.91039919  1
  N  N420  1  0.07078917  0.27775822  0.09581187  1
  N  N421  1  0.06679611  0.61351440  0.10174724  1
  N  N422  1  0.06773504  0.94373667  0.10043081  1
  N  N423  1  0.57122291  0.27877615  0.10210342  1
  N  N424  1  0.56506984  0.60983604  0.09826458  1
  N  N425  1  0.57210190  0.94761145  0.09992562  1
  N  N426  1  0.44173680  0.05688090  0.59584670  1
  N  N427  1  0.43859203  0.38872709  0.59143419  1
  N  N428  1  0.44498160  0.72347585  0.59566258  1
  N  N429  1  0.94873631  0.05503621  0.58839894  1
  N  N430  1  0.93122274  0.39105126  0.60607241  1
  N  N431  1  0.94394048  0.72313784  0.59325601  1
  N  N432  1  0.17786232  0.11064715  0.39691681  1
  N  N433  1  0.18946872  0.43810002  0.40285192  1
  N  N434  1  0.18221961  0.77613447  0.41011808  1
  N  N435  1  0.67172755  0.11198212  0.39338240  1
  N  N436  1  0.68608472  0.44660264  0.39920383  1
  N  N437  1  0.67548215  0.77863671  0.39408068  1
  N  N438  1  0.30435114  0.22683216  0.91296695  1
  N  N439  1  0.31331236  0.55750170  0.90410282  1
  N  N440  1  0.30752041  0.89012476  0.90497042  1
  N  N441  1  0.80436030  0.22378464  0.90556557  1
  N  N442  1  0.81070730  0.55866987  0.90945001  1
  N  N443  1  0.80188718  0.89197770  0.90812167  1
  N  N444  1  0.31224542  0.11034266  0.09463035  1
  N  N445  1  0.30058581  0.44073762  0.08725716  1
  N  N446  1  0.31633399  0.77488050  0.09159865  1
  N  N447  1  0.81179320  0.11101002  0.09715145  1
  N  N448  1  0.80828117  0.44392104  0.09623939  1
  N  N449  1  0.82015140  0.77870358  0.10839157  1
  N  N450  1  0.18292684  0.21929408  0.59888843  1
  N  N451  1  0.19481838  0.56065465  0.59044800  1
  N  N452  1  0.17871610  0.88506893  0.60343487  1
  N  N453  1  0.68158741  0.22186682  0.60895478  1
  N  N454  1  0.69063996  0.55816427  0.59467478  1
  N  N455  1  0.69131186  0.88705128  0.58930136  1
  Cl  Cl456  1  0.25820601  0.04918254  0.62510246  1
  Cl  Cl457  1  0.24657216  0.39624548  0.60389898  1
  Cl  Cl458  1  0.25900275  0.72011053  0.61105481  1
  Cl  Cl459  1  0.76364036  0.05980841  0.60009853  1
  Cl  Cl460  1  0.75048886  0.38314325  0.62764863  1
  Cl  Cl461  1  0.75914674  0.72020110  0.61872761  1
  Cl  Cl462  1  0.25468220  0.28072446  0.11766656  1
  Cl  Cl463  1  0.25453740  0.61041144  0.11623776  1
  Cl  Cl464  1  0.25803650  0.94572347  0.11931213  1
  Cl  Cl465  1  0.75939650  0.27519487  0.11548901  1
  Cl  Cl466  1  0.75022557  0.60869769  0.10417543  1
  Cl  Cl467  1  0.75274924  0.94819477  0.12818337  1
  Cl  Cl468  1  0.24717371  0.05875448  0.89098230  1
  Cl  Cl469  1  0.26755578  0.39042648  0.88986789  1
  Cl  Cl470  1  0.24678575  0.71419676  0.87612524  1
  Cl  Cl471  1  0.75009803  0.05430593  0.87672131  1
  Cl  Cl472  1  0.76782281  0.38860011  0.88771349  1
  Cl  Cl473  1  0.74044301  0.72119505  0.88866189  1
  Cl  Cl474  1  0.25205625  0.28098009  0.38842138  1
  Cl  Cl475  1  0.24149016  0.60943328  0.39165945  1
  Cl  Cl476  1  0.24872778  0.94556203  0.38308543  1
  Cl  Cl477  1  0.75640097  0.27375967  0.38301180  1
  Cl  Cl478  1  0.74198764  0.61520300  0.37085042  1
  Cl  Cl479  1  0.74777797  0.94090172  0.39479354  1
  Cl  Cl480  1  -0.00533771  0.22676760  0.60802319  1
  Cl  Cl481  1  0.01003841  0.55221176  0.61168729  1
  Cl  Cl482  1  -0.00211238  0.88393401  0.62747893  1
  Cl  Cl483  1  0.49563277  0.21837490  0.62367156  1
  Cl  Cl484  1  0.50537727  0.55299033  0.62250830  1
  Cl  Cl485  1  0.50324873  0.89308736  0.60891135  1
  Cl  Cl486  1  -0.00280755  0.11158225  0.11604596  1
  Cl  Cl487  1  -0.00826930  0.45030039  0.12844290  1
  Cl  Cl488  1  0.00470608  0.77709902  0.12408329  1
  Cl  Cl489  1  0.50043848  0.11156958  0.11491700  1
  Cl  Cl490  1  0.48448997  0.44161316  0.11315405  1
  Cl  Cl491  1  0.50838600  0.77960659  0.10014286  1
  Cl  Cl492  1  -0.01111569  0.22655557  0.88636392  1
  Cl  Cl493  1  -0.00304258  0.55361829  0.87970389  1
  Cl  Cl494  1  -0.00804858  0.88893442  0.89276509  1
  Cl  Cl495  1  0.49266066  0.22329811  0.89063335  1
  Cl  Cl496  1  0.49771783  0.55346863  0.88511060  1
  Cl  Cl497  1  0.49166673  0.88575258  0.88000067  1
  Cl  Cl498  1  -0.02244859  0.10306462  0.39991036  1
  Cl  Cl499  1  0.00534287  0.44405809  0.39957875  1
  Cl  Cl500  1  -0.00790411  0.77729832  0.39056385  1
  Cl  Cl501  1  0.48902393  0.10998512  0.38391947  1
  Cl  Cl502  1  0.49840382  0.44199151  0.38115305  1
  Cl  Cl503  1  0.49474638  0.78208833  0.36508178  1
  Cl  Cl504  1  0.35617409  0.15143161  0.75101273  1
  Cl  Cl505  1  0.35821310  0.47792847  0.74262229  1
  Cl  Cl506  1  0.35898893  0.81558225  0.74959168  1
  Cl  Cl507  1  0.85875320  0.14982087  0.75506856  1
  Cl  Cl508  1  0.85889945  0.48305096  0.74770841  1
  Cl  Cl509  1  0.85791383  0.81714231  0.75148218  1
  Cl  Cl510  1  0.13000510  0.18802215  0.25579791  1
  Cl  Cl511  1  0.13919693  0.51759282  0.24982334  1
  Cl  Cl512  1  0.14003842  0.85206262  0.24849391  1
  Cl  Cl513  1  0.63659706  0.18843808  0.25624722  1
  Cl  Cl514  1  0.63626716  0.51968373  0.24261879  1
  Cl  Cl515  1  0.63684203  0.85278097  0.25281251  1
  Cl  Cl516  1  0.13403846  0.14473165  0.75656630  1
  Cl  Cl517  1  0.14224898  0.48175749  0.75492609  1
  Cl  Cl518  1  0.13700400  0.81175478  0.74518607  1
  Cl  Cl519  1  0.63672178  0.14462412  0.74077736  1
  Cl  Cl520  1  0.64053135  0.47944460  0.75489069  1
  Cl  Cl521  1  0.63810495  0.81411731  0.75129315  1
  Cl  Cl522  1  0.35335127  0.18074792  0.24945639  1
  Cl  Cl523  1  0.35637011  0.51578701  0.25305560  1
  Cl  Cl524  1  0.35863534  0.85053850  0.25053421  1
  Cl  Cl525  1  0.86146198  0.18542335  0.25463017  1
  Cl  Cl526  1  0.85973415  0.52065712  0.25427950  1
  Cl  Cl527  1  0.86097594  0.85148558  0.25023626  1
  Cl  Cl528  1  0.11086949  0.31256262  0.75111229  1
  Cl  Cl529  1  0.11321233  0.64671999  0.74489390  1
  Cl  Cl530  1  0.11273556  0.97928384  0.74979078  1
  Cl  Cl531  1  0.61544125  0.31096706  0.75344847  1
  Cl  Cl532  1  0.60924976  0.64894325  0.75191821  1
  Cl  Cl533  1  0.61425200  0.98000038  0.74773214  1
  Cl  Cl534  1  0.39395742  0.01571138  0.24565358  1
  Cl  Cl535  1  0.38923386  0.34928007  0.24984351  1
  Cl  Cl536  1  0.38965231  0.68449098  0.24457448  1
  Cl  Cl537  1  0.88741517  0.01761459  0.25672836  1
  Cl  Cl538  1  0.89224331  0.35076946  0.25263399  1
  Cl  Cl539  1  0.88692209  0.68657014  0.25042580  1
  Cl  Cl540  1  0.39053378  0.31518122  0.74869093  1
  Cl  Cl541  1  0.38813496  0.64514713  0.75330467  1
  Cl  Cl542  1  0.39550739  0.98582146  0.75360822  1
  Cl  Cl543  1  0.89130015  0.31584144  0.74705816  1
  Cl  Cl544  1  0.89318263  0.65041797  0.75182045  1
  Cl  Cl545  1  0.89173871  0.98195993  0.74789140  1
  Cl  Cl546  1  0.10924651  0.01919804  0.25011041  1
  Cl  Cl547  1  0.11087946  0.35400475  0.24936552  1
  Cl  Cl548  1  0.10902037  0.68291322  0.24884295  1
  Cl  Cl549  1  0.61459160  0.02246798  0.25269390  1
  Cl  Cl550  1  0.61248358  0.35298112  0.24525385  1
  Cl  Cl551  1  0.61046956  0.68760516  0.24489261  1
