# generated using pymatgen
data_H8PbC4(N3Cl2)2
_symmetry_space_group_name_H-M   'P 1'
_cell_length_a   16.62740792
_cell_length_b   22.52668191
_cell_length_c   21.60050489
_cell_angle_alpha   89.99726920
_cell_angle_beta   90.00276959
_cell_angle_gamma   90.01012810
_symmetry_Int_Tables_number   1
_chemical_formula_structural   H8PbC4(N3Cl2)2
_chemical_formula_sum   'H192 Pb24 C96 N144 Cl96'
_cell_volume   8090.69208104
_cell_formula_units_Z   24
loop_
 _symmetry_equiv_pos_site_id
 _symmetry_equiv_pos_as_xyz
  1  'x, y, z'
loop_
 _atom_site_type_symbol
 _atom_site_label
 _atom_site_symmetry_multiplicity
 _atom_site_fract_x
 _atom_site_fract_y
 _atom_site_fract_z
 _atom_site_occupancy
  H  H0  1  0.00472446  0.03241863  0.67896581  1
  H  H1  1  0.01408598  0.35616906  0.67598829  1
  H  H2  1  0.00344208  0.69836624  0.68244425  1
  H  H3  1  0.50044659  0.02817098  0.67988982  1
  H  H4  1  0.50454555  0.36092522  0.67467484  1
  H  H5  1  0.49755627  0.69417514  0.67520623  1
  H  H6  1  -0.01319987  0.30441855  0.18446271  1
  H  H7  1  -0.01769244  0.64192646  0.17509730  1
  H  H8  1  0.00856442  0.97227244  0.17514717  1
  H  H9  1  0.51061951  0.30686169  0.18024166  1
  H  H10  1  0.52096436  0.63570320  0.17411317  1
  H  H11  1  0.48392836  0.97643499  0.17698078  1
  H  H12  1  0.00574964  0.02526881  0.82233523  1
  H  H13  1  -0.00782099  0.35904463  0.82604874  1
  H  H14  1  -0.00085302  0.69631250  0.81986274  1
  H  H15  1  0.48809774  0.02986254  0.83020724  1
  H  H16  1  0.49368315  0.36466583  0.81961487  1
  H  H17  1  0.50926472  0.69364937  0.82066514  1
  H  H18  1  -0.00714370  0.30921009  0.32097291  1
  H  H19  1  -0.02984939  0.62821709  0.34035555  1
  H  H20  1  -0.01856653  0.97422289  0.32008557  1
  H  H21  1  0.51233329  0.30482596  0.32497449  1
  H  H22  1  0.49678390  0.63669524  0.32216629  1
  H  H23  1  0.51862201  0.97064212  0.32000296  1
  H  H24  1  0.25251511  0.19184503  0.67382640  1
  H  H25  1  0.24135902  0.52232954  0.67586539  1
  H  H26  1  0.25819078  0.86457656  0.67960494  1
  H  H27  1  0.74051964  0.18851261  0.67601172  1
  H  H28  1  0.77643669  0.53203852  0.65745439  1
  H  H29  1  0.75374094  0.86574664  0.68511602  1
  H  H30  1  0.26107578  0.13843223  0.17250263  1
  H  H31  1  0.24743597  0.47466827  0.17893696  1
  H  H32  1  0.25750999  0.80696947  0.17696575  1
  H  H33  1  0.75461550  0.13879166  0.17503384  1
  H  H34  1  0.75568844  0.47333887  0.17933146  1
  H  H35  1  0.74819762  0.80778278  0.18228094  1
  H  H36  1  0.24053394  0.19472953  0.82178325  1
  H  H37  1  0.23845661  0.53169951  0.82133753  1
  H  H38  1  0.25431283  0.85852567  0.82190480  1
  H  H39  1  0.74459231  0.19603687  0.81606657  1
  H  H40  1  0.74977904  0.52643998  0.82257200  1
  H  H41  1  0.74218336  0.86093245  0.82548326  1
  H  H42  1  0.26515364  0.13830164  0.32101751  1
  H  H43  1  0.25274132  0.47096056  0.32050441  1
  H  H44  1  0.23083098  0.80714440  0.32518474  1
  H  H45  1  0.74358327  0.13781595  0.32297101  1
  H  H46  1  0.73508439  0.46866728  0.32335076  1
  H  H47  1  0.76936491  0.79947240  0.32071268  1
  H  H48  1  0.12322149  0.05786723  0.60606721  1
  H  H49  1  0.12261291  0.38954764  0.59570596  1
  H  H50  1  0.12192383  0.72545096  0.60871702  1
  H  H51  1  0.62486473  0.05570187  0.60910261  1
  H  H52  1  0.61872407  0.39321204  0.59949154  1
  H  H53  1  0.62330057  0.71743787  0.60437912  1
  H  H54  1  0.37092252  0.28597419  0.13030401  1
  H  H55  1  0.38099477  0.61848180  0.12508921  1
  H  H56  1  0.36850892  0.94783291  0.09819515  1
  H  H57  1  0.86156482  0.28107033  0.11320737  1
  H  H58  1  0.88222697  0.60591089  0.09026175  1
  H  H59  1  0.86878855  0.95088606  0.12330548  1
  H  H60  1  0.38726213  0.06037685  0.91478146  1
  H  H61  1  0.38059616  0.38772744  0.89901823  1
  H  H62  1  0.37150487  0.71708926  0.87716980  1
  H  H63  1  0.89131963  0.05589654  0.89971918  1
  H  H64  1  0.88412211  0.39281890  0.90706081  1
  H  H65  1  0.87172350  0.71808837  0.88659351  1
  H  H66  1  0.11678624  0.27704174  0.38741416  1
  H  H67  1  0.07994976  0.60168502  0.42084072  1
  H  H68  1  0.12294017  0.95335735  0.36960654  1
  H  H69  1  0.60815427  0.27131818  0.41328322  1
  H  H70  1  0.61168369  0.60940602  0.39708477  1
  H  H71  1  0.62066634  0.94535098  0.40700960  1
  H  H72  1  0.38100233  0.22207843  0.60944739  1
  H  H73  1  0.38310544  0.54587460  0.62677197  1
  H  H74  1  0.37715538  0.89164346  0.60591640  1
  H  H75  1  0.88013321  0.21505102  0.62683039  1
  H  H76  1  0.91042826  0.55454176  0.59936412  1
  H  H77  1  0.87501106  0.88539333  0.61204428  1
  H  H78  1  0.12058554  0.11625750  0.12077519  1
  H  H79  1  0.12094409  0.44552800  0.11170619  1
  H  H80  1  0.13345063  0.77860943  0.10815069  1
  H  H81  1  0.61943642  0.11397026  0.11676348  1
  H  H82  1  0.62132478  0.45123343  0.11809048  1
  H  H83  1  0.63227224  0.77744392  0.10485438  1
  H  H84  1  0.12948306  0.22322782  0.90321274  1
  H  H85  1  0.11981108  0.55821643  0.89599111  1
  H  H86  1  0.12829325  0.88874609  0.88999023  1
  H  H87  1  0.63131837  0.22108467  0.89374156  1
  H  H88  1  0.61665480  0.54800764  0.88397605  1
  H  H89  1  0.63293536  0.89033002  0.90545931  1
  H  H90  1  0.37668461  0.10807476  0.39968313  1
  H  H91  1  0.38537058  0.44848990  0.38549613  1
  H  H92  1  0.37578212  0.78821242  0.37043824  1
  H  H93  1  0.87730845  0.11638060  0.38380141  1
  H  H94  1  0.87383727  0.45083347  0.37383219  1
  H  H95  1  0.86836600  0.77421810  0.40894640  1
  H  H96  1  0.36759601  0.28376751  0.36755760  1
  H  H97  1  0.36473862  0.61690298  0.38183900  1
  H  H98  1  0.37647785  0.95141568  0.37181032  1
  H  H99  1  0.86869982  0.27992064  0.38977498  1
  H  H100  1  0.83273318  0.60927007  0.39425726  1
  H  H101  1  0.87844018  0.94309267  0.40523155  1
  H  H102  1  0.13943420  0.04908875  0.88291986  1
  H  H103  1  0.12903375  0.38267126  0.88160079  1
  H  H104  1  0.12116518  0.72218694  0.88953981  1
  H  H105  1  0.62906503  0.04506841  0.87741351  1
  H  H106  1  0.62771064  0.38492718  0.87697235  1
  H  H107  1  0.61816801  0.72039765  0.90233683  1
  H  H108  1  0.11017948  0.27801356  0.11142331  1
  H  H109  1  0.12500561  0.61902732  0.12877362  1
  H  H110  1  0.11377806  0.94177304  0.09100155  1
  H  H111  1  0.61560710  0.27773366  0.09845273  1
  H  H112  1  0.62473740  0.60610224  0.08948217  1
  H  H113  1  0.61622072  0.94929689  0.11498013  1
  H  H114  1  0.37595611  0.05704292  0.60953300  1
  H  H115  1  0.37093607  0.38689136  0.61561215  1
  H  H116  1  0.37545715  0.72129481  0.60214276  1
  H  H117  1  0.87439062  0.05289900  0.61564288  1
  H  H118  1  0.87748319  0.38477122  0.62105546  1
  H  H119  1  0.87473454  0.71310145  0.61333033  1
  H  H120  1  0.12923019  0.11698031  0.38057134  1
  H  H121  1  0.13760252  0.43990547  0.39824637  1
  H  H122  1  0.13500390  0.77043422  0.41207553  1
  H  H123  1  0.62949818  0.10999184  0.40152618  1
  H  H124  1  0.62998060  0.44212665  0.40742970  1
  H  H125  1  0.62504557  0.78324066  0.36973283  1
  H  H126  1  0.37592303  0.21584511  0.88147700  1
  H  H127  1  0.36842781  0.55108472  0.88842162  1
  H  H128  1  0.37681384  0.88909135  0.89371353  1
  H  H129  1  0.87935916  0.21466590  0.87501352  1
  H  H130  1  0.86531065  0.55478995  0.89655893  1
  H  H131  1  0.88006883  0.88546622  0.88080201  1
  H  H132  1  0.36505678  0.10354416  0.09142262  1
  H  H133  1  0.37034537  0.44757720  0.10971177  1
  H  H134  1  0.38159872  0.78070284  0.10517472  1
  H  H135  1  0.86759985  0.10797919  0.09702828  1
  H  H136  1  0.86909918  0.44374176  0.10186010  1
  H  H137  1  0.87978679  0.77994799  0.11933895  1
  H  H138  1  0.13217935  0.22245247  0.60319191  1
  H  H139  1  0.13920980  0.55672870  0.59287640  1
  H  H140  1  0.12857018  0.88731368  0.61282756  1
  H  H141  1  0.63522967  0.22521275  0.59443811  1
  H  H142  1  0.66246938  0.55752659  0.58064970  1
  H  H143  1  0.62547723  0.88659340  0.61918722  1
  H  H144  1  0.90671756  0.08320797  0.50347822  1
  H  H145  1  0.04930059  0.41654862  0.49603979  1
  H  H146  1  0.86252784  0.24961806  0.51484828  1
  H  H147  1  0.13837596  0.08294813  0.01149030  1
  H  H148  1  0.34347713  0.24711824  0.50081956  1
  H  H149  1  0.22175241  0.75123962  0.50794653  1
  H  H150  1  0.66463688  0.91728589  0.50754738  1
  H  H151  1  0.82516012  0.91521515  0.50229039  1
  H  H152  1  0.01651932  0.57359501  0.52718518  1
  H  H153  1  0.80055626  0.08131853  -0.00535799  1
  H  H154  1  0.39426699  0.58381783  1.01068748  1
  H  H155  1  0.96331585  0.58050183  -0.00689762  1
  H  H156  1  0.52210245  0.24835042  0.50969405  1
  H  H157  1  0.21732372  0.58374808  0.49324854  1
  H  H158  1  0.39328561  0.58528366  0.49632190  1
  H  H159  1  0.63831412  0.75136164  0.47764528  1
  H  H160  1  0.32290303  0.41390719  0.00128922  1
  H  H161  1  0.85390854  0.24713975  0.98648517  1
  H  H162  1  0.60205633  0.41482172  -0.00870941  1
  H  H163  1  0.05703213  0.76907954  0.51504852  1
  H  H164  1  0.85735814  0.91261522  0.99135349  1
  H  H165  1  0.10817683  0.92096883  0.48250155  1
  H  H166  1  0.07221385  0.08778880  0.49735842  1
  H  H167  1  0.54370764  0.24654680  -0.00581656  1
  H  H168  1  0.07438099  0.75520486  0.99850932  1
  H  H169  1  0.32197346  0.92414456  0.49975891  1
  H  H170  1  0.71877192  0.58773494  0.47306164  1
  H  H171  1  0.95782812  0.41782306  1.00678907  1
  H  H172  1  0.20014240  0.25195630  1.00289775  1
  H  H173  1  0.62147173  0.07880367  -0.00657579  1
  H  H174  1  0.80773797  0.58973309  1.00376403  1
  H  H175  1  0.78948429  0.74891875  0.51087970  1
  H  H176  1  0.69284795  0.25263851  1.00079001  1
  H  H177  1  0.70046779  0.92148844  1.01007413  1
  H  H178  1  0.70937805  0.24931815  0.49491266  1
  H  H179  1  0.17306254  0.58649772  1.00316762  1
  H  H180  1  0.33136471  0.75190696  0.00260531  1
  H  H181  1  0.38552502  0.25292485  1.01701187  1
  H  H182  1  0.85912884  0.42112553  0.48988041  1
  H  H183  1  0.54866027  0.75078586  1.00553992  1
  H  H184  1  0.91083255  0.74951576  0.99670774  1
  H  H185  1  0.40430089  0.41993604  0.50899981  1
  H  H186  1  0.16485571  0.41785970  0.00659828  1
  H  H187  1  0.54099740  0.92080360  0.50945701  1
  H  H188  1  0.95603000  0.92140109  0.50423767  1
  H  H189  1  0.18409206  0.25322536  0.49455772  1
  H  H190  1  0.36477275  0.74681388  0.47485400  1
  H  H191  1  0.92870264  0.71157637  0.50591983  1
  Pb  Pb192  1  0.25475685  0.04861570  0.75425352  1
  Pb  Pb193  1  0.24878904  0.38430981  0.75332893  1
  Pb  Pb194  1  0.25187857  0.71379855  0.74428569  1
  Pb  Pb195  1  0.75455812  0.04871583  0.75709325  1
  Pb  Pb196  1  0.75404363  0.38222511  0.75086723  1
  Pb  Pb197  1  0.74607139  0.71689563  0.75064472  1
  Pb  Pb198  1  0.24087619  0.28412035  0.24516152  1
  Pb  Pb199  1  0.24323901  0.61991608  0.26286957  1
  Pb  Pb200  1  0.24629462  0.95264555  0.24218275  1
  Pb  Pb201  1  0.74002824  0.28217713  0.25427776  1
  Pb  Pb202  1  0.74614195  0.61778181  0.23708830  1
  Pb  Pb203  1  0.74596923  0.95075178  0.25953858  1
  Pb  Pb204  1  0.00678688  0.21478278  0.75225465  1
  Pb  Pb205  1  -0.00328227  0.55077415  0.75967890  1
  Pb  Pb206  1  0.00290462  0.88207586  0.74102398  1
  Pb  Pb207  1  0.50098951  0.21819774  0.74713785  1
  Pb  Pb208  1  0.50567752  0.54679681  0.74344973  1
  Pb  Pb209  1  0.50004975  0.88314766  0.75354308  1
  Pb  Pb210  1  -0.00454578  0.11727351  0.24754562  1
  Pb  Pb211  1  -0.00251279  0.45340671  0.25117991  1
  Pb  Pb212  1  0.00353962  0.78124491  0.26026662  1
  Pb  Pb213  1  0.49357311  0.11723632  0.25050599  1
  Pb  Pb214  1  0.49581237  0.45225286  0.25705704  1
  Pb  Pb215  1  0.49659741  0.78515974  0.24311005  1
  C  C216  1  0.00056151  0.04742119  0.63123164  1
  C  C217  1  0.00492327  0.37548138  0.63054574  1
  C  C218  1  -0.00024379  0.71220307  0.63433495  1
  C  C219  1  0.50043094  0.04582685  0.63312410  1
  C  C220  1  0.49754974  0.37926194  0.62864643  1
  C  C221  1  0.49869815  0.70972699  0.62760174  1
  C  C222  1  -0.01360895  0.28867303  0.13699469  1
  C  C223  1  -0.00373423  0.62381408  0.12981324  1
  C  C224  1  -0.00286077  0.95512460  0.12925431  1
  C  C225  1  0.49837359  0.29067716  0.13375858  1
  C  C226  1  0.50797339  0.62010082  0.12772840  1
  C  C227  1  0.48945364  0.95866852  0.13045604  1
  C  C228  1  0.01204426  0.04279152  0.86868258  1
  C  C229  1  0.00156301  0.37695044  0.87208407  1
  C  C230  1  -0.00275626  0.71231550  0.86728447  1
  C  C231  1  0.50258784  0.04502810  0.87648970  1
  C  C232  1  0.50154455  0.37875438  0.86719131  1
  C  C233  1  0.49932613  0.70979246  0.86740236  1
  C  C234  1  -0.00752954  0.29000358  0.36666307  1
  C  C235  1  -0.03936943  0.61318245  0.38763828  1
  C  C236  1  -0.00577072  0.95789472  0.36656537  1
  C  C237  1  0.49592800  0.28818470  0.37039017  1
  C  C238  1  0.49023562  0.62110523  0.36931688  1
  C  C239  1  0.50497020  0.95625793  0.36684149  1
  C  C240  1  0.25602904  0.21027220  0.62733355  1
  C  C241  1  0.25453156  0.53998129  0.63029410  1
  C  C242  1  0.25438151  0.88118188  0.63250853  1
  C  C243  1  0.75197636  0.20745534  0.63051601  1
  C  C244  1  0.78331320  0.54825608  0.61031259  1
  C  C245  1  0.75128821  0.87937554  0.63690756  1
  C  C246  1  0.24823580  0.12093631  0.12687998  1
  C  C247  1  0.24558509  0.45651519  0.13228756  1
  C  C248  1  0.25792150  0.79032138  0.12991197  1
  C  C249  1  0.74766571  0.12177134  0.12834150  1
  C  C250  1  0.74835316  0.45674729  0.13274005  1
  C  C251  1  0.75333683  0.78985670  0.13578558  1
  C  C252  1  0.24839270  0.21102199  0.86863339  1
  C  C253  1  0.24230830  0.54688203  0.86888654  1
  C  C254  1  0.25316122  0.87738434  0.86807369  1
  C  C255  1  0.75215036  0.21077291  0.86360789  1
  C  C256  1  0.74419801  0.54304587  0.86938899  1
  C  C257  1  0.75252053  0.87739439  0.87221087  1
  C  C258  1  0.25663841  0.12144503  0.36739812  1
  C  C259  1  0.25856798  0.45480720  0.36772323  1
  C  C260  1  0.24753557  0.78945686  0.37025964  1
  C  C261  1  0.75001531  0.12153948  0.36973864  1
  C  C262  1  0.74742334  0.45404261  0.37023430  1
  C  C263  1  0.75354734  0.78517767  0.36732625  1
  C  C264  1  0.06530867  0.59327309  0.04761747  1
  C  C265  1  0.77304745  0.57576343  0.96365805  1
  C  C266  1  0.48924313  0.07586671  0.97279287  1
  C  C267  1  0.28526695  0.91140865  0.53943343  1
  C  C268  1  0.78787432  0.90465032  0.54204851  1
  C  C269  1  0.83703630  0.57513725  0.51998112  1
  C  C270  1  0.73048488  0.90849653  0.96734279  1
  C  C271  1  0.93824499  0.92590817  0.04422899  1
  C  C272  1  0.42355037  0.25912454  0.45075666  1
  C  C273  1  0.80987187  0.42922336  0.45757585  1
  C  C274  1  0.51829815  0.73916233  0.96250889  1
  C  C275  1  0.43468067  0.26297562  0.04874686  1
  C  C276  1  0.72567440  0.23981820  0.95941973  1
  C  C277  1  0.56925298  0.07075589  0.96163126  1
  C  C278  1  0.52661109  0.41611985  0.53591568  1
  C  C279  1  0.51578642  0.93032606  0.46393165  1
  C  C280  1  0.75422629  0.57706788  0.51393165  1
  C  C281  1  0.03066509  0.25573375  0.45705497  1
  C  C282  1  0.22065763  0.24174474  0.53477828  1
  C  C283  1  0.43909399  0.59411325  0.46016608  1
  C  C284  1  0.81452742  0.24029520  0.54776974  1
  C  C285  1  0.80731627  0.23746821  0.95249607  1
  C  C286  1  0.31974857  0.57316977  0.54817210  1
  C  C287  1  0.52026874  0.59117627  0.46377913  1
  C  C288  1  0.06122000  0.07098386  0.95766301  1
  C  C289  1  0.72949285  0.42638228  0.46722450  1
  C  C290  1  0.90131793  0.58714906  0.47609827  1
  C  C291  1  0.47463132  0.40553345  0.96313815  1
  C  C292  1  0.55566159  0.40489910  0.95706448  1
  C  C293  1  0.69149594  0.09118745  0.04083875  1
  C  C294  1  0.28463856  0.42554035  0.04041429  1
  C  C295  1  0.44405782  0.59297047  0.04190778  1
  C  C296  1  0.70595006  0.90545646  0.54454313  1
  C  C297  1  0.76477341  0.75903610  0.46536819  1
  C  C298  1  0.95315017  0.73991664  0.95962515  1
  C  C299  1  0.95202547  0.07362273  0.53961722  1
  C  C300  1  0.51532298  0.25988265  0.03733888  1
  C  C301  1  0.69196365  0.57274707  0.95779561  1
  C  C302  1  0.21148078  0.57535641  0.96271207  1
  C  C303  1  0.05935743  0.92907824  0.44987883  1
  C  C304  1  0.03420919  0.07568561  0.53641167  1
  C  C305  1  0.80015012  0.09192413  0.45824276  1
  C  C306  1  -0.01623539  0.58474978  0.48490181  1
  C  C307  1  0.03529124  0.74202111  0.96060463  1
  C  C308  1  0.27899140  0.08731553  0.46059962  1
  C  C309  1  0.52427420  0.58916355  0.03147723  1
  C  C310  1  0.26574223  0.08375806  0.03254037  1
  C  C311  1  0.77324886  0.42373264  0.03934426  1
  N  N312  1  0.24219427  0.57607927  0.53736198  1
  N  N313  1  0.02279820  0.26035578  0.04359178  1
  N  N314  1  0.80123387  0.75861569  0.04650454  1
  N  N315  1  0.53908259  0.73606466  0.53446338  1
  N  N316  1  0.95319028  0.73429516  0.54264026  1
  N  N317  1  0.72303869  0.08929899  0.46514181  1
  N  N318  1  0.98110335  0.92525729  0.46088584  1
  N  N319  1  0.50033480  0.25492420  0.46482705  1
  N  N320  1  0.77019085  0.08902786  0.03544425  1
  N  N321  1  0.69618264  0.42646463  0.04363766  1
  N  N322  1  0.44801206  0.41243644  0.54210620  1
  N  N323  1  0.53836543  0.92702644  0.04161476  1
  N  N324  1  0.23137328  0.42355458  0.46203686  1
  N  N325  1  0.30028081  0.24145405  0.53791592  1
  N  N326  1  0.73610105  0.24417645  0.53798112  1
  N  N327  1  0.21285353  0.91125261  0.95856025  1
  N  N328  1  0.20489424  0.42441076  0.04249246  1
  N  N329  1  0.02319555  0.41110374  0.53906660  1
  N  N330  1  0.21489741  0.75994038  0.03847751  1
  N  N331  1  0.72519697  0.75738933  0.04200516  1
  N  N332  1  0.43966557  0.73825440  0.95454978  1
  N  N333  1  0.06220349  0.40701541  0.95728347  1
  N  N334  1  0.98774378  0.58900939  0.03615487  1
  N  N335  1  0.22828575  0.24102497  0.96193004  1
  N  N336  1  0.98399814  0.07443197  0.96406378  1
  N  N337  1  0.94579487  0.40890236  0.54641637  1
  N  N338  1  0.98460113  0.41110537  0.96429025  1
  N  N339  1  0.80917528  0.90597301  0.95809422  1
  N  N340  1  0.94650652  0.26206136  0.04403270  1
  N  N341  1  0.46237058  0.92636882  0.03649048  1
  N  N342  1  0.20602996  0.90961180  0.54124254  1
  N  N343  1  0.18845350  0.09036439  0.04283443  1
  N  N344  1  0.68760589  0.76148236  0.45057977  1
  N  N345  1  0.95302994  0.25755645  0.45900453  1
  N  N346  1  0.31641260  0.76476937  0.45116945  1
  N  N347  1  0.20178466  0.09089770  0.45605575  1
  N  N348  1  0.30562730  0.23798116  0.95597512  1
  N  N349  1  0.24037249  0.75050968  0.46196478  1
  N  N350  1  0.28902783  0.91176194  0.95950632  1
  N  N351  1  0.30759856  0.42691666  0.45768948  1
  N  N352  1  0.01451832  0.92148312  0.03315391  1
  N  N353  1  0.53842833  0.07785847  0.54130311  1
  N  N354  1  0.03564597  0.73331328  0.53963896  1
  N  N355  1  0.29338471  0.76091547  0.03928371  1
  N  N356  1  0.29069604  0.57263173  0.96090402  1
  N  N357  1  0.43807883  0.93139099  0.45210441  1
  N  N358  1  0.46254684  0.73676419  0.53365458  1
  N  N359  1  0.46220971  0.07827308  0.54156291  1
  N  N360  1  0.06286770  0.05927198  0.59363227  1
  N  N361  1  0.06058653  0.38816717  0.58890446  1
  N  N362  1  0.06068835  0.72921197  0.59919416  1
  N  N363  1  0.56374870  0.05779072  0.59804651  1
  N  N364  1  0.55757988  0.39542198  0.58929014  1
  N  N365  1  0.56280007  0.71862222  0.59237674  1
  N  N366  1  0.42568382  0.28187271  0.10859112  1
  N  N367  1  0.43548256  0.61219864  0.10279490  1
  N  N368  1  0.43051595  0.94612106  0.09130185  1
  N  N369  1  0.92238534  0.27982653  0.10163171  1
  N  N370  1  0.94427722  0.61047582  0.08573561  1
  N  N371  1  0.92483116  0.94553959  0.10321297  1
  N  N372  1  0.44933760  0.06027137  0.92152596  1
  N  N373  1  0.44206794  0.38973510  0.90890727  1
  N  N374  1  0.42963361  0.71993010  0.89486111  1
  N  N375  1  0.95370647  0.05650823  0.90742374  1
  N  N376  1  0.94632580  0.39007851  0.91387068  1
  N  N377  1  0.93104218  0.72167548  0.90125212  1
  N  N378  1  0.05682766  0.27506534  0.40117200  1
  N  N379  1  0.01813645  0.60097090  0.42956303  1
  N  N380  1  0.06748627  0.94742350  0.39083318  1
  N  N381  1  0.54571304  0.27618638  0.41630062  1
  N  N382  1  0.55063053  0.60733123  0.40915232  1
  N  N383  1  0.55840465  0.94508841  0.41194938  1
  N  N384  1  0.32174447  0.22014852  0.59448903  1
  N  N385  1  0.32791067  0.55237636  0.60637457  1
  N  N386  1  0.31621653  0.89388994  0.59501874  1
  N  N387  1  0.82449542  0.21942701  0.60581100  1
  N  N388  1  0.85266642  0.55727143  0.58089315  1
  N  N389  1  0.81474141  0.88827518  0.59974685  1
  N  N390  1  0.17708462  0.11417354  0.10090165  1
  N  N391  1  0.18112458  0.44490766  0.09869798  1
  N  N392  1  0.19370012  0.77780669  0.09541074  1
  N  N393  1  0.67718795  0.11022870  0.09907483  1
  N  N394  1  0.68032888  0.44730874  0.10270265  1
  N  N395  1  0.69406478  0.77692227  0.09707314  1
  N  N396  1  0.19175193  0.22388989  0.90940630  1
  N  N397  1  0.18062665  0.55989438  0.90641531  1
  N  N398  1  0.18896009  0.88955472  0.90215733  1
  N  N399  1  0.69258964  0.22305992  0.90364473  1
  N  N400  1  0.67493132  0.55322520  0.90086356  1
  N  N401  1  0.69470793  0.89138916  0.91386705  1
  N  N402  1  0.31512444  0.10583372  0.40772149  1
  N  N403  1  0.32567636  0.44683132  0.39959285  1
  N  N404  1  0.32087855  0.77951437  0.39124250  1
  N  N405  1  0.81918356  0.11118495  0.40033431  1
  N  N406  1  0.81954893  0.44654320  0.39608644  1
  N  N407  1  0.80627474  0.77379490  0.41360053  1
  N  N408  1  0.42064006  0.27804910  0.39153904  1
  N  N409  1  0.42144234  0.61271078  0.39987755  1
  N  N410  1  0.43322465  0.94746489  0.39164498  1
  N  N411  1  0.92891120  0.27919912  0.40163474  1
  N  N412  1  0.88956645  0.60521333  0.41479010  1
  N  N413  1  0.94087857  0.94631066  0.41043032  1
  N  N414  1  0.08109638  0.05256987  0.89934854  1
  N  N415  1  0.07174910  0.38812325  0.89895215  1
  N  N416  1  0.06115845  0.72468363  0.90293109  1
  N  N417  1  0.57579477  0.05185292  0.90043230  1
  N  N418  1  0.57111442  0.38811366  0.89633961  1
  N  N419  1  0.55620084  0.72202776  0.90957506  1
  N  N420  1  0.04890307  0.27654921  0.10121101  1
  N  N421  1  0.07042274  0.61300847  0.10633043  1
  N  N422  1  0.05116785  0.94025642  0.08735898  1
  N  N423  1  0.55371874  0.27729358  0.09070008  1
  N  N424  1  0.56282987  0.60555376  0.08316280  1
  N  N425  1  0.55663109  0.94671869  0.09993680  1
  N  N426  1  0.43700171  0.05840949  0.59832309  1
  N  N427  1  0.42942846  0.38897868  0.59897087  1
  N  N428  1  0.43623245  0.72113774  0.59145988  1
  N  N429  1  0.93286234  0.05611980  0.59893543  1
  N  N430  1  0.93517142  0.38910609  0.60409929  1
  N  N431  1  0.93463046  0.71195786  0.59924827  1
  N  N432  1  0.18793715  0.11238916  0.39647679  1
  N  N433  1  0.19974336  0.44060630  0.40636255  1
  N  N434  1  0.19715378  0.77568190  0.41572465  1
  N  N435  1  0.69157632  0.10802419  0.40863175  1
  N  N436  1  0.69204338  0.44134421  0.41470250  1
  N  N437  1  0.68097950  0.77647903  0.39017503  1
  N  N438  1  0.31775578  0.22026209  0.89770533  1
  N  N439  1  0.30825720  0.55469395  0.90210766  1
  N  N440  1  0.31562761  0.89126809  0.90335264  1
  N  N441  1  0.82202924  0.21964702  0.89289914  1
  N  N442  1  0.80457520  0.55691793  0.90746623  1
  N  N443  1  0.82248417  0.88530983  0.90001638  1
  N  N444  1  0.30315939  0.10308625  0.08416403  1
  N  N445  1  0.31006192  0.44444503  0.09644289  1
  N  N446  1  0.32087460  0.78035500  0.09408889  1
  N  N447  1  0.80563076  0.11023938  0.08838783  1
  N  N448  1  0.80760079  0.44199242  0.09299440  1
  N  N449  1  0.82023674  0.77866918  0.10457100  1
  N  N450  1  0.19299326  0.22347126  0.59047593  1
  N  N451  1  0.20133731  0.55242791  0.58681104  1
  N  N452  1  0.18844121  0.89132126  0.59986321  1
  N  N453  1  0.69740621  0.22053692  0.58795105  1
  N  N454  1  0.72335489  0.56034809  0.57035256  1
  N  N455  1  0.68459760  0.88959390  0.60375804  1
  Cl  Cl456  1  0.25189695  0.05923065  0.62224651  1
  Cl  Cl457  1  0.24297562  0.38892434  0.62030175  1
  Cl  Cl458  1  0.24547230  0.72617941  0.60216889  1
  Cl  Cl459  1  0.74735310  0.05390627  0.62666439  1
  Cl  Cl460  1  0.74515445  0.38865035  0.61703338  1
  Cl  Cl461  1  0.75058276  0.72055174  0.61170435  1
  Cl  Cl462  1  0.23298094  0.27596972  0.10745381  1
  Cl  Cl463  1  0.24918036  0.61745030  0.13158724  1
  Cl  Cl464  1  0.24165987  0.94853140  0.10996182  1
  Cl  Cl465  1  0.73767714  0.27812068  0.11956542  1
  Cl  Cl466  1  0.75554435  0.60515569  0.10440436  1
  Cl  Cl467  1  0.73997445  0.94587705  0.12228076  1
  Cl  Cl468  1  0.26473553  0.06193752  0.88983744  1
  Cl  Cl469  1  0.25668038  0.38771213  0.89051412  1
  Cl  Cl470  1  0.24645600  0.72155108  0.87546327  1
  Cl  Cl471  1  0.77032057  0.05604575  0.89450578  1
  Cl  Cl472  1  0.76490971  0.39460842  0.88318661  1
  Cl  Cl473  1  0.74341682  0.71855504  0.88088180  1
  Cl  Cl474  1  0.23822454  0.27410208  0.37905877  1
  Cl  Cl475  1  0.20739942  0.60594319  0.40248165  1
  Cl  Cl476  1  0.24917120  0.94712503  0.37565802  1
  Cl  Cl477  1  0.73090130  0.26875866  0.39735579  1
  Cl  Cl478  1  0.72191644  0.61736425  0.37068889  1
  Cl  Cl479  1  0.75147621  0.94107215  0.39519457  1
  Cl  Cl480  1  0.01018329  0.22634365  0.62055918  1
  Cl  Cl481  1  0.02802475  0.55399305  0.62574347  1
  Cl  Cl482  1  -0.00013755  0.88650716  0.60176210  1
  Cl  Cl483  1  0.51269507  0.23325615  0.60319340  1
  Cl  Cl484  1  0.52561433  0.55064723  0.61240642  1
  Cl  Cl485  1  0.50130095  0.88882838  0.61723237  1
  Cl  Cl486  1  -0.00969960  0.10744665  0.11653223  1
  Cl  Cl487  1  -0.00760061  0.44468615  0.10949861  1
  Cl  Cl488  1  0.00726804  0.77419062  0.12601837  1
  Cl  Cl489  1  0.48991865  0.10868464  0.11550854  1
  Cl  Cl490  1  0.49350158  0.44797521  0.12648019  1
  Cl  Cl491  1  0.50736992  0.77507513  0.10772506  1
  Cl  Cl492  1  0.00918336  0.22026679  0.88418908  1
  Cl  Cl493  1  -0.00836530  0.55873713  0.89706303  1
  Cl  Cl494  1  0.00499564  0.89109068  0.87113301  1
  Cl  Cl495  1  0.50535884  0.22050998  0.87989736  1
  Cl  Cl496  1  0.49180986  0.54984132  0.87787715  1
  Cl  Cl497  1  0.50565689  0.88693417  0.88402760  1
  Cl  Cl498  1  0.00215541  0.11429529  0.38065917  1
  Cl  Cl499  1  0.01731418  0.43710245  0.38934233  1
  Cl  Cl500  1  0.00546290  0.77124516  0.40301118  1
  Cl  Cl501  1  0.50344368  0.11643660  0.38245779  1
  Cl  Cl502  1  0.50802690  0.44092766  0.39301261  1
  Cl  Cl503  1  0.50029044  0.78169339  0.37491686  1
  Cl  Cl504  1  0.36761209  0.14995509  0.75041449  1
  Cl  Cl505  1  0.36812029  0.47981134  0.74412122  1
  Cl  Cl506  1  0.36163433  0.81559835  0.75099475  1
  Cl  Cl507  1  0.87054233  0.14625113  0.74689822  1
  Cl  Cl508  1  0.86563650  0.48279665  0.73861443  1
  Cl  Cl509  1  0.87152411  0.80933792  0.75239048  1
  Cl  Cl510  1  0.13673965  0.18029660  0.24476166  1
  Cl  Cl511  1  0.13769370  0.51675543  0.24427248  1
  Cl  Cl512  1  0.14135824  0.84769220  0.25143710  1
  Cl  Cl513  1  0.64653168  0.18200937  0.24639717  1
  Cl  Cl514  1  0.64202509  0.51246640  0.24730830  1
  Cl  Cl515  1  0.63871144  0.84760378  0.25397759  1
  Cl  Cl516  1  0.14780291  0.15220784  0.74832302  1
  Cl  Cl517  1  0.14650738  0.48184617  0.75511363  1
  Cl  Cl518  1  0.14072711  0.81506756  0.73732422  1
  Cl  Cl519  1  0.64566386  0.14811680  0.75034143  1
  Cl  Cl520  1  0.64463254  0.48421643  0.75483341  1
  Cl  Cl521  1  0.64960219  0.81678059  0.74953226  1
  Cl  Cl522  1  0.35934935  0.18831538  0.24377915  1
  Cl  Cl523  1  0.35978724  0.52197990  0.25494994  1
  Cl  Cl524  1  0.36164888  0.85402896  0.25485327  1
  Cl  Cl525  1  0.86455291  0.19022856  0.25455169  1
  Cl  Cl526  1  0.86395747  0.52339703  0.26351656  1
  Cl  Cl527  1  0.86159847  0.85320638  0.25237186  1
  Cl  Cl528  1  0.11003228  0.32040506  0.75816194  1
  Cl  Cl529  1  0.10961049  0.65164833  0.75211808  1
  Cl  Cl530  1  0.11100251  0.98478848  0.74481090  1
  Cl  Cl531  1  0.61580207  0.31684839  0.75504099  1
  Cl  Cl532  1  0.60722308  0.65332665  0.74639217  1
  Cl  Cl533  1  0.61694927  0.98160099  0.75964202  1
  Cl  Cl534  1  0.38766045  0.02110608  0.25737981  1
  Cl  Cl535  1  0.37715057  0.35481608  0.25394810  1
  Cl  Cl536  1  0.38227019  0.68609936  0.25060196  1
  Cl  Cl537  1  0.88160466  0.01862748  0.24597900  1
  Cl  Cl538  1  0.88440318  0.35640424  0.25608875  1
  Cl  Cl539  1  0.88073604  0.68731183  0.25970593  1
  Cl  Cl540  1  0.39601611  0.31344443  0.74381434  1
  Cl  Cl541  1  0.38633541  0.64452241  0.74936297  1
  Cl  Cl542  1  0.39611928  0.98434011  0.75271692  1
  Cl  Cl543  1  0.88885243  0.31211797  0.74622911  1
  Cl  Cl544  1  0.89185767  0.64419027  0.74201868  1
  Cl  Cl545  1  0.88804825  0.97847567  0.74475910  1
  Cl  Cl546  1  0.10545009  0.01519405  0.25068353  1
  Cl  Cl547  1  0.10667275  0.35224751  0.24165829  1
  Cl  Cl548  1  0.10043863  0.67996808  0.25369190  1
  Cl  Cl549  1  0.60961639  0.01857679  0.24416676  1
  Cl  Cl550  1  0.60224103  0.34789438  0.25298599  1
  Cl  Cl551  1  0.60356526  0.68153096  0.24863184  1
