# generated using pymatgen
data_H8PbC4(N3Cl2)2
_symmetry_space_group_name_H-M   'P 1'
_cell_length_a   16.63257098
_cell_length_b   22.51642841
_cell_length_c   21.59650977
_cell_angle_alpha   90.00080449
_cell_angle_beta   90.00512218
_cell_angle_gamma   90.00473327
_symmetry_Int_Tables_number   1
_chemical_formula_structural   H8PbC4(N3Cl2)2
_chemical_formula_sum   'H192 Pb24 C96 N144 Cl96'
_cell_volume   8088.02444740
_cell_formula_units_Z   24
loop_
 _symmetry_equiv_pos_site_id
 _symmetry_equiv_pos_as_xyz
  1  'x, y, z'
loop_
 _atom_site_type_symbol
 _atom_site_label
 _atom_site_symmetry_multiplicity
 _atom_site_fract_x
 _atom_site_fract_y
 _atom_site_fract_z
 _atom_site_occupancy
  H  H0  1  -0.00256725  0.02759298  0.68060987  1
  H  H1  1  -0.00087162  0.35924767  0.67916881  1
  H  H2  1  -0.00473117  0.69760068  0.68095688  1
  H  H3  1  0.49239774  0.02860614  0.67788913  1
  H  H4  1  0.49449876  0.35875876  0.67533470  1
  H  H5  1  0.50489598  0.69567397  0.68115725  1
  H  H6  1  0.00858092  0.30214427  0.18189081  1
  H  H7  1  -0.00878357  0.63526684  0.18080929  1
  H  H8  1  0.01626495  0.96610774  0.17995236  1
  H  H9  1  0.50022364  0.30341100  0.17947144  1
  H  H10  1  0.50209389  0.63695613  0.17896453  1
  H  H11  1  0.48735394  0.96763766  0.17910113  1
  H  H12  1  0.00942850  0.02684769  0.82019382  1
  H  H13  1  -0.00569048  0.36383924  0.82196880  1
  H  H14  1  -0.00654386  0.69762930  0.82143657  1
  H  H15  1  0.49991376  0.03065807  0.82117467  1
  H  H16  1  0.51007261  0.36461246  0.81670848  1
  H  H17  1  0.50238895  0.69554216  0.81952078  1
  H  H18  1  -0.00938927  0.29996903  0.32360281  1
  H  H19  1  -0.00069475  0.63943629  0.32235958  1
  H  H20  1  0.00570705  0.97268687  0.32382577  1
  H  H21  1  0.50321286  0.30795894  0.32513582  1
  H  H22  1  0.51043423  0.63424784  0.32072969  1
  H  H23  1  0.49147399  0.97021000  0.32159757  1
  H  H24  1  0.25658858  0.19777204  0.67886563  1
  H  H25  1  0.23680025  0.52899006  0.67905178  1
  H  H26  1  0.26271024  0.86366579  0.68095916  1
  H  H27  1  0.74855473  0.19474770  0.67835910  1
  H  H28  1  0.75546005  0.52792562  0.67920181  1
  H  H29  1  0.73301831  0.86355404  0.67370864  1
  H  H30  1  0.23542044  0.13690547  0.17922533  1
  H  H31  1  0.24862257  0.46982282  0.17894834  1
  H  H32  1  0.25635568  0.80290504  0.18120822  1
  H  H33  1  0.74830992  0.13564419  0.18296854  1
  H  H34  1  0.74295827  0.47327492  0.17662900  1
  H  H35  1  0.75026520  0.80727505  0.18100448  1
  H  H36  1  0.24464189  0.19597489  0.81962673  1
  H  H37  1  0.24750456  0.52650301  0.82241328  1
  H  H38  1  0.25590665  0.86256023  0.81827533  1
  H  H39  1  0.74402869  0.19212315  0.82278826  1
  H  H40  1  0.73754848  0.53208892  0.82221129  1
  H  H41  1  0.74357459  0.86318736  0.82157369  1
  H  H42  1  0.25609166  0.13795703  0.31740946  1
  H  H43  1  0.23771969  0.46960352  0.31849904  1
  H  H44  1  0.24514149  0.80435914  0.32075205  1
  H  H45  1  0.75642812  0.14196274  0.32193239  1
  H  H46  1  0.76127333  0.47085847  0.32021552  1
  H  H47  1  0.73749480  0.80257154  0.31877467  1
  H  H48  1  0.12814796  0.05489951  0.61637530  1
  H  H49  1  0.12280756  0.38686496  0.60887538  1
  H  H50  1  0.12084798  0.71988695  0.61010239  1
  H  H51  1  0.62874989  0.04873189  0.62124786  1
  H  H52  1  0.62308785  0.38592365  0.61041991  1
  H  H53  1  0.62001277  0.72040215  0.60449590  1
  H  H54  1  0.36465962  0.28152973  0.11980749  1
  H  H55  1  0.37375731  0.61147736  0.11147931  1
  H  H56  1  0.37759566  0.94347413  0.09888760  1
  H  H57  1  0.86896431  0.28264753  0.13002860  1
  H  H58  1  0.87489877  0.61159609  0.10306087  1
  H  H59  1  0.87189757  0.95267536  0.13197449  1
  H  H60  1  0.37607361  0.05396155  0.88938397  1
  H  H61  1  0.37038279  0.38391854  0.87301089  1
  H  H62  1  0.38693133  0.72211215  0.89668640  1
  H  H63  1  0.87141964  0.04906152  0.87423099  1
  H  H64  1  0.86853296  0.39084851  0.89104462  1
  H  H65  1  0.88592485  0.72283591  0.90288967  1
  H  H66  1  0.12464996  0.28103479  0.38107956  1
  H  H67  1  0.11244394  0.61140338  0.40168285  1
  H  H68  1  0.12346027  0.94279197  0.39672551  1
  H  H69  1  0.62512879  0.27843395  0.39522997  1
  H  H70  1  0.62151851  0.61023989  0.40083645  1
  H  H71  1  0.62600808  0.95128635  0.38404127  1
  H  H72  1  0.36992037  0.22480940  0.59926425  1
  H  H73  1  0.37775695  0.54823330  0.62647982  1
  H  H74  1  0.37030697  0.88981757  0.59768613  1
  H  H75  1  0.87240679  0.22097356  0.60637964  1
  H  H76  1  0.87767842  0.55636278  0.60595745  1
  H  H77  1  0.87317266  0.88377213  0.62061009  1
  H  H78  1  0.13411997  0.10755599  0.09128257  1
  H  H79  1  0.13209641  0.44272167  0.10459063  1
  H  H80  1  0.11919991  0.78228480  0.12239563  1
  H  H81  1  0.62849676  0.10991697  0.10768076  1
  H  H82  1  0.64087307  0.44293454  0.09007914  1
  H  H83  1  0.61719541  0.78285598  0.11823322  1
  H  H84  1  0.13525026  0.22496171  0.90003632  1
  H  H85  1  0.12483911  0.55401965  0.89428932  1
  H  H86  1  0.12787303  0.88588112  0.88444803  1
  H  H87  1  0.63629872  0.22204766  0.90555767  1
  H  H88  1  0.62832700  0.55915750  0.90383179  1
  H  H89  1  0.63006062  0.89261268  0.90082312  1
  H  H90  1  0.36796107  0.11458103  0.39756013  1
  H  H91  1  0.37621098  0.45084996  0.37614526  1
  H  H92  1  0.37743323  0.77944234  0.38335463  1
  H  H93  1  0.87225333  0.11132310  0.39631340  1
  H  H94  1  0.87148845  0.44329995  0.40113999  1
  H  H95  1  0.87664512  0.78220118  0.37475351  1
  H  H96  1  0.37612648  0.28030575  0.39145031  1
  H  H97  1  0.37572458  0.61802751  0.37723786  1
  H  H98  1  0.37909010  0.93961938  0.40118061  1
  H  H99  1  0.87757447  0.27517424  0.40174442  1
  H  H100  1  0.86509734  0.61312285  0.37981504  1
  H  H101  1  0.87464002  0.94974877  0.38891151  1
  H  H102  1  0.11785176  0.05833065  0.90227258  1
  H  H103  1  0.11779371  0.38769612  0.89182457  1
  H  H104  1  0.13186606  0.71502914  0.87504315  1
  H  H105  1  0.62483710  0.05236018  0.89063787  1
  H  H106  1  0.61647389  0.39234660  0.90011718  1
  H  H107  1  0.63532265  0.71787067  0.88295282  1
  H  H108  1  0.11412823  0.27797412  0.09860106  1
  H  H109  1  0.12288839  0.61124532  0.11786208  1
  H  H110  1  0.11524836  0.94030439  0.09322114  1
  H  H111  1  0.61272681  0.27512808  0.10122292  1
  H  H112  1  0.62242373  0.61156496  0.10480657  1
  H  H113  1  0.62456651  0.95263429  0.12184004  1
  H  H114  1  0.38177304  0.06132970  0.59869886  1
  H  H115  1  0.37456095  0.38667611  0.60246225  1
  H  H116  1  0.37165965  0.71537801  0.62092812  1
  H  H117  1  0.88029695  0.05545438  0.60289989  1
  H  H118  1  0.87321792  0.38540076  0.61202901  1
  H  H119  1  0.87165852  0.72208017  0.60990778  1
  H  H120  1  0.12030222  0.11833680  0.37419235  1
  H  H121  1  0.12949670  0.44179098  0.40096716  1
  H  H122  1  0.12913160  0.77553414  0.39641717  1
  H  H123  1  0.62430875  0.11706207  0.38486375  1
  H  H124  1  0.62441913  0.44994610  0.37891567  1
  H  H125  1  0.63086858  0.77698840  0.40198320  1
  H  H126  1  0.38198232  0.21653596  0.87741360  1
  H  H127  1  0.37304226  0.55239341  0.89110294  1
  H  H128  1  0.37751351  0.89121599  0.89010363  1
  H  H129  1  0.88164519  0.21673733  0.87461226  1
  H  H130  1  0.87477514  0.55245424  0.87947834  1
  H  H131  1  0.87704093  0.88446408  0.88204969  1
  H  H132  1  0.37677173  0.11478483  0.12835654  1
  H  H133  1  0.37979382  0.45066980  0.11745527  1
  H  H134  1  0.36649691  0.77535518  0.10093962  1
  H  H135  1  0.87654173  0.11225139  0.11329930  1
  H  H136  1  0.88356991  0.44788837  0.12658148  1
  H  H137  1  0.86553294  0.77883434  0.10442604  1
  H  H138  1  0.12265663  0.21923813  0.61837867  1
  H  H139  1  0.13434409  0.56028946  0.59239937  1
  H  H140  1  0.12420436  0.88393959  0.62430956  1
  H  H141  1  0.62380443  0.22216110  0.60766189  1
  H  H142  1  0.62923222  0.55254295  0.60917461  1
  H  H143  1  0.62843428  0.89462924  0.59008969  1
  H  H144  1  0.86429548  0.24897990  0.98973192  1
  H  H145  1  0.16988032  0.91328551  0.99652745  1
  H  H146  1  0.56122885  0.74543650  0.49527703  1
  H  H147  1  0.21659439  0.08304580  -0.00577854  1
  H  H148  1  0.41992453  0.08188805  1.00168300  1
  H  H149  1  0.45039646  0.08572548  0.49680598  1
  H  H150  1  0.10089561  0.24909278  0.49553646  1
  H  H151  1  0.39416565  0.25297952  0.01179784  1
  H  H152  1  0.42089783  0.58307093  0.00614918  1
  H  H153  1  0.29722602  0.91564727  0.49337912  1
  H  H154  1  0.80183104  0.74680978  -0.00110217  1
  H  H155  1  0.60483632  0.08383837  0.51017235  1
  H  H156  1  0.34858169  0.41970433  1.00433725  1
  H  H157  1  0.32257913  0.90988883  0.99711421  1
  H  H158  1  0.91308433  0.41471820  0.99686803  1
  H  H159  1  0.14369496  0.09102174  0.48804949  1
  H  H160  1  0.84807811  0.91725748  0.99377431  1
  H  H161  1  0.54857823  0.24364641  -0.00455840  1
  H  H162  1  0.04697234  0.08075853  1.00308062  1
  H  H163  1  0.17846817  0.58007760  0.99836119  1
  H  H164  1  0.93436842  0.58329406  -0.00269659  1
  H  H165  1  0.80060803  0.41539732  0.50615380  1
  H  H166  1  0.07084517  0.41755448  1.00207657  1
  H  H167  1  0.54409853  0.42205806  1.00238691  1
  H  H168  1  0.11352381  0.74541032  -0.01128718  1
  H  H169  1  0.04230130  0.24943528  -0.00682637  1
  H  H170  1  0.70418137  0.74760222  0.50549416  1
  H  H171  1  0.92153196  0.75008307  0.50116358  1
  H  H172  1  0.03518441  0.91443056  -0.01056413  1
  H  H173  1  0.95381148  0.75171792  1.00852843  1
  H  H174  1  0.91200828  0.92089197  0.49477707  1
  H  H175  1  0.44473450  0.91955129  -0.01012314  1
  H  H176  1  0.39893553  0.58609152  0.49226032  1
  H  H177  1  0.70903554  0.24458324  1.00606727  1
  H  H178  1  0.30403208  0.09021511  0.50549079  1
  H  H179  1  0.44947895  0.91351227  0.50252481  1
  H  H180  1  0.29755600  0.74554510  -0.00376652  1
  H  H181  1  0.04438939  0.58469724  0.50384251  1
  H  H182  1  0.45079902  0.75304809  1.00274213  1
  H  H183  1  0.72191687  0.41660545  -0.00704011  1
  H  H184  1  0.20266155  0.41167068  0.50426723  1
  H  H185  1  0.91843878  0.41314580  0.50019240  1
  H  H186  1  0.20488886  0.25732358  1.00339110  1
  H  H187  1  0.07145543  0.40683504  0.50193822  1
  H  H188  1  0.06979013  0.91222118  0.50434719  1
  H  H189  1  0.40008683  0.74414535  0.50806568  1
  H  H190  1  0.21559365  0.58516618  0.49473990  1
  H  H191  1  0.89299518  0.08138643  0.98653288  1
  Pb  Pb192  1  0.25449783  0.05001939  0.75228811  1
  Pb  Pb193  1  0.25450707  0.38065118  0.74520100  1
  Pb  Pb194  1  0.25740377  0.71561080  0.75212208  1
  Pb  Pb195  1  0.75702424  0.04757797  0.74527481  1
  Pb  Pb196  1  0.75568789  0.38359453  0.75530719  1
  Pb  Pb197  1  0.75363071  0.71433486  0.75127755  1
  Pb  Pb198  1  0.24941806  0.28753583  0.24611272  1
  Pb  Pb199  1  0.24638495  0.61891562  0.25485688  1
  Pb  Pb200  1  0.25300500  0.94979941  0.24627896  1
  Pb  Pb201  1  0.74343698  0.28533072  0.24668552  1
  Pb  Pb202  1  0.75067259  0.61955905  0.24559889  1
  Pb  Pb203  1  0.74825947  0.95461608  0.25581618  1
  Pb  Pb204  1  0.00566217  0.21614005  0.75102639  1
  Pb  Pb205  1  0.00776397  0.55047727  0.74402756  1
  Pb  Pb206  1  0.00223907  0.87924264  0.74882504  1
  Pb  Pb207  1  0.50826475  0.21636215  0.75187748  1
  Pb  Pb208  1  0.50511925  0.54682162  0.75627282  1
  Pb  Pb209  1  0.50692226  0.88374836  0.74471489  1
  Pb  Pb210  1  0.00052207  0.11958167  0.24033879  1
  Pb  Pb211  1  -0.00003504  0.45089352  0.25625755  1
  Pb  Pb212  1  -0.00152145  0.78633565  0.25131548  1
  Pb  Pb213  1  0.49880087  0.12044152  0.25759953  1
  Pb  Pb214  1  0.50184199  0.45440535  0.24137656  1
  Pb  Pb215  1  0.50159802  0.78322096  0.25035164  1
  C  C216  1  0.00202246  0.04511280  0.63388818  1
  C  C217  1  -0.00112153  0.37639065  0.63207985  1
  C  C218  1  -0.00408411  0.71305560  0.63339197  1
  C  C219  1  0.50069446  0.04517533  0.63099417  1
  C  C220  1  0.49756616  0.37649671  0.62894253  1
  C  C221  1  0.49855233  0.71074985  0.63359396  1
  C  C222  1  -0.00297963  0.28808161  0.13462526  1
  C  C223  1  -0.00340657  0.61954640  0.13354529  1
  C  C224  1  0.00114705  0.95321320  0.13292466  1
  C  C225  1  0.49172999  0.28762793  0.13227950  1
  C  C226  1  0.49894992  0.62062531  0.13184234  1
  C  C227  1  0.49649237  0.95492105  0.13125469  1
  C  C228  1  -0.00032976  0.04337669  0.86701869  1
  C  C229  1  -0.00717693  0.37998588  0.86945281  1
  C  C230  1  0.00434274  0.71202351  0.86870069  1
  C  C231  1  0.49968705  0.04545225  0.86887851  1
  C  C232  1  0.49860580  0.37945406  0.86369656  1
  C  C233  1  0.50838330  0.71152454  0.86664758  1
  C  C234  1  -0.00156174  0.28529888  0.37101184  1
  C  C235  1  -0.00745374  0.62257871  0.36899065  1
  C  C236  1  0.00088873  0.95578537  0.37084896  1
  C  C237  1  0.50137626  0.28930013  0.37120756  1
  C  C238  1  0.50154058  0.62064238  0.36835628  1
  C  C239  1  0.49847104  0.95450954  0.36881295  1
  C  C240  1  0.24985390  0.21330362  0.63177283  1
  C  C241  1  0.24926235  0.54465138  0.63256348  1
  C  C242  1  0.25206940  0.87852764  0.63384307  1
  C  C243  1  0.74821544  0.21138877  0.63121683  1
  C  C244  1  0.75444934  0.54484642  0.63220032  1
  C  C245  1  0.74517582  0.88007533  0.62768769  1
  C  C246  1  0.24849579  0.12089788  0.13288986  1
  C  C247  1  0.25431080  0.45475255  0.13157368  1
  C  C248  1  0.24694938  0.78743028  0.13424196  1
  C  C249  1  0.75154259  0.12020931  0.13538544  1
  C  C250  1  0.75571393  0.45613201  0.13072960  1
  C  C251  1  0.74411596  0.78996601  0.13437373  1
  C  C252  1  0.25445704  0.21188622  0.86645347  1
  C  C253  1  0.24811954  0.54365381  0.86933685  1
  C  C254  1  0.25428561  0.87892472  0.86567303  1
  C  C255  1  0.75404256  0.20909985  0.86932405  1
  C  C256  1  0.74724624  0.54757984  0.86893765  1
  C  C257  1  0.75008684  0.87942183  0.86850048  1
  C  C258  1  0.24780566  0.12354554  0.36500004  1
  C  C259  1  0.24796529  0.45461400  0.36561477  1
  C  C260  1  0.25093386  0.78693365  0.36716158  1
  C  C261  1  0.75054143  0.12419127  0.36816561  1
  C  C262  1  0.75234667  0.45491817  0.36707406  1
  C  C263  1  0.74870494  0.78752317  0.36576136  1
  C  C264  1  0.03389576  0.92484737  0.46437925  1
  C  C265  1  0.93988614  0.07219834  0.95265823  1
  C  C266  1  0.52707070  0.73615998  0.53706220  1
  C  C267  1  0.03264169  0.40770260  0.96229726  1
  C  C268  1  0.98443702  0.73942089  0.96588772  1
  C  C269  1  0.73045919  0.91327844  0.53285833  1
  C  C270  1  0.22309592  0.75365772  0.46000123  1
  C  C271  1  0.77844717  0.08938303  0.46030316  1
  C  C272  1  0.01301761  0.26133874  0.03647277  1
  C  C273  1  0.55865574  0.07516828  0.54496252  1
  C  C274  1  0.51750680  0.25656532  0.03771454  1
  C  C275  1  0.46005166  0.07194151  0.96327430  1
  C  C276  1  0.95630430  0.40470438  0.54026126  1
  C  C277  1  0.80028783  0.90717674  0.95741574  1
  C  C278  1  0.51506859  0.40885628  0.95910775  1
  C  C279  1  0.22257036  0.42634158  0.03684919  1
  C  C280  1  0.00977073  0.92678996  0.03405884  1
  C  C281  1  0.26746651  0.75785886  0.03929584  1
  C  C282  1  0.05295931  0.25859228  0.46100402  1
  C  C283  1  0.52643823  0.59359633  0.46456980  1
  C  C284  1  0.23486107  0.24352613  0.96084902  1
  C  C285  1  0.73249611  0.75906230  0.46154341  1
  C  C286  1  0.54154110  0.07113599  0.96204211  1
  C  C287  1  0.44550482  0.59557221  0.45803471  1
  C  C288  1  0.30387913  0.42883155  0.04001987  1
  C  C289  1  0.93649713  0.58939225  0.45571218  1
  C  C290  1  0.93288972  0.26396577  0.04822728  1
  C  C291  1  0.48305064  0.74134140  0.96059065  1
  C  C292  1  0.19893369  0.23953311  0.54226341  1
  C  C293  1  0.47525319  0.93047223  0.03299853  1
  C  C294  1  0.20897211  0.90630316  0.95687409  1
  C  C295  1  0.53539840  0.25430767  0.46165361  1
  C  C296  1  0.44539602  0.73521532  0.54321420  1
  C  C297  1  0.77159369  0.42618061  0.46243833  1
  C  C298  1  0.27218550  0.09904423  0.46249028  1
  C  C299  1  0.81535720  0.23910740  0.95437302  1
  C  C300  1  0.26875779  0.90529924  0.53753912  1
  C  C301  1  0.97162470  0.25688925  0.46649217  1
  C  C302  1  0.96020193  0.73952588  0.54028280  1
  C  C303  1  0.96954766  0.59286983  0.03868061  1
  C  C304  1  0.93080550  0.93169490  0.04918110  1
  C  C305  1  0.76931435  0.75910171  0.04075485  1
  C  C306  1  0.46585909  0.41044455  0.53760878  1
  C  C307  1  0.19072169  0.09964268  0.45407407  1
  C  C308  1  0.23090571  0.42469207  0.46086655  1
  C  C309  1  0.06529784  0.73653378  0.95587935  1
  C  C310  1  0.55557536  0.93477301  0.04251325  1
  C  C311  1  0.72759719  0.57875732  0.96358622  1
  N  N312  1  0.95306314  0.40930228  0.96043311  1
  N  N313  1  0.43684748  0.40607546  0.95021887  1
  N  N314  1  0.69326983  0.42738369  0.45481791  1
  N  N315  1  0.18910786  0.75999681  0.04680639  1
  N  N316  1  0.78574437  0.24155252  0.53855652  1
  N  N317  1  0.97293024  0.07822951  0.54057073  1
  N  N318  1  0.04879330  0.59153199  0.04316285  1
  N  N319  1  0.45802231  0.25445686  0.46158870  1
  N  N320  1  0.54313408  0.41052850  0.53877723  1
  N  N321  1  0.78992324  0.57555139  0.53918999  1
  N  N322  1  0.19038669  0.90410691  0.54647633  1
  N  N323  1  0.04877215  0.07732960  0.54467776  1
  N  N324  1  0.31333120  0.24045465  0.95347125  1
  N  N325  1  0.28854192  0.90913232  0.95767228  1
  N  N326  1  0.80471077  0.57639583  0.95721979  1
  N  N327  1  0.01487447  0.59088539  0.46240650  1
  N  N328  1  0.82142932  0.42580876  0.04812802  1
  N  N329  1  0.31469345  0.57210028  0.54898396  1
  N  N330  1  0.79421412  0.09354414  0.04286885  1
  N  N331  1  0.69047435  0.76020046  0.04542114  1
  N  N332  1  0.71818752  0.09219792  0.04096253  1
  N  N333  1  0.80686939  0.90931943  0.54141398  1
  N  N334  1  0.53684237  0.59228799  0.03842565  1
  N  N335  1  0.30038549  0.75557997  0.45715970  1
  N  N336  1  0.81073410  0.76007641  0.45228460  1
  N  N337  1  0.29295120  0.57194760  0.96097899  1
  N  N338  1  0.72167096  0.91019775  0.96402188  1
  N  N339  1  0.70959983  0.24203250  0.53900806  1
  N  N340  1  0.74473057  0.42351746  0.03734110  1
  N  N341  1  0.23828763  0.57666739  0.53890511  1
  N  N342  1  0.31526633  0.09241557  0.04996128  1
  N  N343  1  0.71378746  0.57467294  0.54013599  1
  N  N344  1  0.03946828  0.73898367  0.53989138  1
  N  N345  1  0.01864000  0.07560132  0.96089750  1
  N  N346  1  0.95443262  0.92718742  0.46033322  1
  N  N347  1  0.56196616  0.74039175  0.95590608  1
  N  N348  1  0.23871584  0.08999534  0.03876387  1
  N  N349  1  0.21450112  0.57333978  0.96036108  1
  N  N350  1  0.45887922  0.59252756  0.04209195  1
  N  N351  1  0.55474456  0.92717473  0.45662997  1
  N  N352  1  0.70117702  0.09194948  0.45787344  1
  N  N353  1  0.47970512  0.07993513  0.53834743  1
  N  N354  1  0.27586240  0.24162583  0.53482116  1
  N  N355  1  0.43863762  0.25887540  0.04523729  1
  N  N356  1  0.47728947  0.92349390  0.46143728  1
  N  N357  1  0.30920421  0.42778674  0.45270450  1
  N  N358  1  0.73648411  0.24104328  0.96332165  1
  N  N359  1  0.03590422  0.40615037  0.54058901  1
  N  N360  1  0.06853485  0.05668975  0.60238637  1
  N  N361  1  0.06202671  0.38581152  0.59629970  1
  N  N362  1  0.05991045  0.72276664  0.59823515  1
  N  N363  1  0.57178809  0.05535458  0.60297370  1
  N  N364  1  0.56312997  0.38890536  0.59688662  1
  N  N365  1  0.55884440  0.72112470  0.59384910  1
  N  N366  1  0.42296818  0.27975519  0.10284482  1
  N  N367  1  0.43401159  0.61018452  0.09831896  1
  N  N368  1  0.43901252  0.94332909  0.08973506  1
  N  N369  1  0.92362727  0.27984370  0.10786764  1
  N  N370  1  0.93621516  0.60959975  0.09373211  1
  N  N371  1  0.92615213  0.94732286  0.10897336  1
  N  N372  1  0.43509999  0.05591728  0.90389812  1
  N  N373  1  0.42816963  0.38795829  0.89069545  1
  N  N374  1  0.44851065  0.72418810  0.90608837  1
  N  N375  1  0.92809900  0.05389657  0.89389780  1
  N  N376  1  0.92869812  0.39012714  0.90388266  1
  N  N377  1  0.94777516  0.72388875  0.91112803  1
  N  N378  1  0.06790683  0.27632384  0.40021098  1
  N  N379  1  0.05037769  0.61328455  0.40982748  1
  N  N380  1  0.06300910  0.94187642  0.40857980  1
  N  N381  1  0.56493113  0.27499667  0.40709505  1
  N  N382  1  0.56005945  0.60873537  0.41068006  1
  N  N383  1  0.56734825  0.94526994  0.39857102  1
  N  N384  1  0.30791557  0.22488094  0.59187266  1
  N  N385  1  0.32125188  0.55383533  0.60754847  1
  N  N386  1  0.30813813  0.89011911  0.59084530  1
  N  N387  1  0.81130417  0.22201777  0.59544471  1
  N  N388  1  0.81673381  0.55718159  0.59620394  1
  N  N389  1  0.81603615  0.88848594  0.60183773  1
  N  N390  1  0.19669247  0.10974481  0.08794476  1
  N  N391  1  0.19285848  0.44186944  0.09210606  1
  N  N392  1  0.17760882  0.77822686  0.10594317  1
  N  N393  1  0.69006135  0.10857475  0.09808759  1
  N  N394  1  0.70346695  0.44431354  0.08629373  1
  N  N395  1  0.67643433  0.77950197  0.10367816  1
  N  N396  1  0.19737052  0.22605402  0.90781906  1
  N  N397  1  0.18584826  0.55450893  0.90564465  1
  N  N398  1  0.18736061  0.88964163  0.89925996  1
  N  N399  1  0.69883450  0.21950637  0.91197652  1
  N  N400  1  0.68985911  0.56131141  0.91094016  1
  N  N401  1  0.69188722  0.89256644  0.90812662  1
  N  N402  1  0.30635115  0.11378058  0.40648846  1
  N  N403  1  0.31800075  0.44624255  0.39350684  1
  N  N404  1  0.31804508  0.77645279  0.39797055  1
  N  N405  1  0.81116687  0.10891608  0.40668945  1
  N  N406  1  0.80982771  0.44243822  0.40872623  1
  N  N407  1  0.81901218  0.77774896  0.39250817  1
  N  N408  1  0.43660188  0.27668632  0.40407904  1
  N  N409  1  0.43138163  0.61263045  0.39707265  1
  N  N410  1  0.44103898  0.94181093  0.40904402  1
  N  N411  1  0.93879446  0.27309407  0.41250052  1
  N  N412  1  0.92252264  0.60839524  0.39773723  1
  N  N413  1  0.93454671  0.94729980  0.40313039  1
  N  N414  1  0.05540717  0.05464362  0.90910617  1
  N  N415  1  0.05758121  0.39052471  0.90551426  1
  N  N416  1  0.07619443  0.71985193  0.89556009  1
  N  N417  1  0.56509430  0.05547956  0.90512808  1
  N  N418  1  0.55434115  0.39227812  0.90654196  1
  N  N419  1  0.57602624  0.72165288  0.89747331  1
  N  N420  1  0.05205217  0.27676481  0.09145754  1
  N  N421  1  0.06363380  0.60813649  0.10284850  1
  N  N422  1  0.05309900  0.94077562  0.08767009  1
  N  N423  1  0.55072982  0.27394634  0.09182810  1
  N  N424  1  0.56130726  0.60927504  0.09487290  1
  N  N425  1  0.56785403  0.94895813  0.10178472  1
  N  N426  1  0.44378604  0.05803046  0.59037094  1
  N  N427  1  0.43497352  0.39005336  0.59177330  1
  N  N428  1  0.42930750  0.71980319  0.60328708  1
  N  N429  1  0.94228970  0.05840276  0.59567807  1
  N  N430  1  0.93302571  0.38817148  0.59762661  1
  N  N431  1  0.93188243  0.72387016  0.59742970  1
  N  N432  1  0.17721711  0.11452254  0.39339488  1
  N  N433  1  0.19150757  0.44107684  0.40779934  1
  N  N434  1  0.19035066  0.77262285  0.40607914  1
  N  N435  1  0.68353897  0.11387603  0.39904911  1
  N  N436  1  0.68298556  0.44541864  0.39556445  1
  N  N437  1  0.69293597  0.77571930  0.40885924  1
  N  N438  1  0.32408634  0.22061076  0.89451785  1
  N  N439  1  0.31281983  0.55513183  0.90345733  1
  N  N440  1  0.31653547  0.88877791  0.90228144  1
  N  N441  1  0.82594778  0.22118503  0.89521555  1
  N  N442  1  0.81677415  0.55685744  0.89674403  1
  N  N443  1  0.81907425  0.88868852  0.89896298  1
  N  N444  1  0.32061609  0.10987989  0.10895633  1
  N  N445  1  0.32237273  0.44643848  0.10009821  1
  N  N446  1  0.30445918  0.77472483  0.09266699  1
  N  N447  1  0.81641962  0.11104156  0.10130316  1
  N  N448  1  0.82747953  0.44434851  0.10679007  1
  N  N449  1  0.80397462  0.77689841  0.09505620  1
  N  N450  1  0.18047536  0.22289016  0.60126439  1
  N  N451  1  0.19669210  0.55728092  0.58841667  1
  N  N452  1  0.18199245  0.88742393  0.60646163  1
  N  N453  1  0.68467692  0.22358829  0.59646730  1
  N  N454  1  0.69012889  0.55577745  0.59772133  1
  N  N455  1  0.69025264  0.89542358  0.58433005  1
  Cl  Cl456  1  0.25980058  0.05919206  0.61813153  1
  Cl  Cl457  1  0.24557391  0.38942639  0.60936885  1
  Cl  Cl458  1  0.24371063  0.71606428  0.62139664  1
  Cl  Cl459  1  0.75704560  0.05078993  0.61222069  1
  Cl  Cl460  1  0.75124863  0.38892397  0.62238513  1
  Cl  Cl461  1  0.74375839  0.72524377  0.61650711  1
  Cl  Cl462  1  0.23738270  0.27769788  0.10965104  1
  Cl  Cl463  1  0.25046689  0.61066242  0.11976171  1
  Cl  Cl464  1  0.24793340  0.93948460  0.10364465  1
  Cl  Cl465  1  0.73177343  0.27381813  0.10576604  1
  Cl  Cl466  1  0.74764820  0.61043692  0.11145210  1
  Cl  Cl467  1  0.74725558  0.94810981  0.12930886  1
  Cl  Cl468  1  0.23792263  0.06096503  0.89804075  1
  Cl  Cl469  1  0.24032288  0.38679797  0.87620443  1
  Cl  Cl470  1  0.26481862  0.72070569  0.88800584  1
  Cl  Cl471  1  0.74709921  0.05281048  0.87628084  1
  Cl  Cl472  1  0.73990235  0.39431576  0.89829204  1
  Cl  Cl473  1  0.76496855  0.72194773  0.88544525  1
  Cl  Cl474  1  0.25351282  0.28189031  0.37331099  1
  Cl  Cl475  1  0.23171566  0.60541496  0.39808248  1
  Cl  Cl476  1  0.25673082  0.93890601  0.38328555  1
  Cl  Cl477  1  0.75349664  0.28003079  0.37677069  1
  Cl  Cl478  1  0.74091595  0.61451605  0.37604936  1
  Cl  Cl479  1  0.75106346  0.95015584  0.39004936  1
  Cl  Cl480  1  -0.00454126  0.22532538  0.61875078  1
  Cl  Cl481  1  0.01167066  0.56031536  0.60121669  1
  Cl  Cl482  1  -0.00175783  0.88910681  0.61580493  1
  Cl  Cl483  1  0.49680528  0.22190770  0.62001876  1
  Cl  Cl484  1  0.50645820  0.55031031  0.62451683  1
  Cl  Cl485  1  0.49563021  0.89392119  0.60520375  1
  Cl  Cl486  1  0.01242168  0.10518467  0.10003032  1
  Cl  Cl487  1  0.01031099  0.44108432  0.12003448  1
  Cl  Cl488  1  -0.01180684  0.78025217  0.11731461  1
  Cl  Cl489  1  0.50618991  0.11363472  0.12465913  1
  Cl  Cl490  1  0.51918547  0.44311079  0.10564731  1
  Cl  Cl491  1  0.48688180  0.77544112  0.11503741  1
  Cl  Cl492  1  0.01328109  0.22114378  0.88598119  1
  Cl  Cl493  1  0.00334245  0.55195840  0.87762311  1
  Cl  Cl494  1  0.00449033  0.88702350  0.88181215  1
  Cl  Cl495  1  0.51458396  0.22270317  0.88977328  1
  Cl  Cl496  1  0.49798367  0.55534091  0.89143013  1
  Cl  Cl497  1  0.50090485  0.89237166  0.88041554  1
  Cl  Cl498  1  -0.00763568  0.11627899  0.37033706  1
  Cl  Cl499  1  0.00241742  0.44155675  0.39618064  1
  Cl  Cl500  1  0.00541044  0.77992166  0.38278307  1
  Cl  Cl501  1  0.49205342  0.10790990  0.39471775  1
  Cl  Cl502  1  0.50047255  0.45165744  0.36891370  1
  Cl  Cl503  1  0.50679999  0.77912799  0.38439303  1
  Cl  Cl504  1  0.36151014  0.14487496  0.75939693  1
  Cl  Cl505  1  0.35690184  0.47829268  0.75170974  1
  Cl  Cl506  1  0.35888735  0.81279788  0.74972158  1
  Cl  Cl507  1  0.86064355  0.14527709  0.75563283  1
  Cl  Cl508  1  0.86255337  0.47733961  0.75694960  1
  Cl  Cl509  1  0.86078453  0.81728172  0.74367687  1
  Cl  Cl510  1  0.14040926  0.18453347  0.25120642  1
  Cl  Cl511  1  0.14011246  0.51577287  0.24507064  1
  Cl  Cl512  1  0.13370753  0.85384204  0.24398360  1
  Cl  Cl513  1  0.64236387  0.18238944  0.25515658  1
  Cl  Cl514  1  0.64494542  0.51503531  0.24907419  1
  Cl  Cl515  1  0.63874969  0.85133835  0.24719459  1
  Cl  Cl516  1  0.14107264  0.14904555  0.74587671  1
  Cl  Cl517  1  0.13744468  0.47894383  0.74378387  1
  Cl  Cl518  1  0.13814167  0.81153450  0.75126707  1
  Cl  Cl519  1  0.64248042  0.14733360  0.74807410  1
  Cl  Cl520  1  0.64188760  0.48244570  0.75339094  1
  Cl  Cl521  1  0.64165034  0.81563429  0.75251566  1
  Cl  Cl522  1  0.36245071  0.18763501  0.24036735  1
  Cl  Cl523  1  0.36199925  0.52072880  0.24856303  1
  Cl  Cl524  1  0.35349581  0.85318973  0.24808332  1
  Cl  Cl525  1  0.86506656  0.19112431  0.23797059  1
  Cl  Cl526  1  0.86750404  0.52266140  0.24533568  1
  Cl  Cl527  1  0.86327591  0.85590246  0.25845738  1
  Cl  Cl528  1  0.10304070  0.31493728  0.74701326  1
  Cl  Cl529  1  0.11082456  0.64459553  0.75579346  1
  Cl  Cl530  1  0.11474757  0.97942462  0.74946886  1
  Cl  Cl531  1  0.60625860  0.31540732  0.74873093  1
  Cl  Cl532  1  0.60959899  0.64969841  0.75426651  1
  Cl  Cl533  1  0.60526136  0.98170160  0.74366265  1
  Cl  Cl534  1  0.38782729  0.01904774  0.24819398  1
  Cl  Cl535  1  0.38730179  0.35475194  0.24344346  1
  Cl  Cl536  1  0.37937133  0.68875684  0.26270861  1
  Cl  Cl537  1  0.88356091  0.02282075  0.24419743  1
  Cl  Cl538  1  0.88550343  0.35685484  0.24316298  1
  Cl  Cl539  1  0.88788563  0.68607900  0.25741459  1
  Cl  Cl540  1  0.38493063  0.31011194  0.75812806  1
  Cl  Cl541  1  0.38901525  0.64475366  0.74451757  1
  Cl  Cl542  1  0.38469365  0.97815113  0.75416527  1
  Cl  Cl543  1  0.88554448  0.31167452  0.75947283  1
  Cl  Cl544  1  0.89248189  0.64876131  0.75046150  1
  Cl  Cl545  1  0.89359758  0.98160563  0.75321566  1
  Cl  Cl546  1  0.10486926  0.01832095  0.25334397  1
  Cl  Cl547  1  0.10706445  0.34865628  0.25692374  1
  Cl  Cl548  1  0.11044944  0.68599734  0.24153309  1
  Cl  Cl549  1  0.60717144  0.01720859  0.25552070  1
  Cl  Cl550  1  0.60529275  0.34903657  0.24887764  1
  Cl  Cl551  1  0.60010780  0.68406014  0.24529230  1
