# generated using pymatgen
data_H8PbC4(N3Cl2)2
_symmetry_space_group_name_H-M   'P 1'
_cell_length_a   16.63541285
_cell_length_b   22.53248388
_cell_length_c   21.60005231
_cell_angle_alpha   89.99724796
_cell_angle_beta   89.99760150
_cell_angle_gamma   89.97608253
_symmetry_Int_Tables_number   1
_chemical_formula_structural   H8PbC4(N3Cl2)2
_chemical_formula_sum   'H192 Pb24 C96 N144 Cl96'
_cell_volume   8096.50179771
_cell_formula_units_Z   24
loop_
 _symmetry_equiv_pos_site_id
 _symmetry_equiv_pos_as_xyz
  1  'x, y, z'
loop_
 _atom_site_type_symbol
 _atom_site_label
 _atom_site_symmetry_multiplicity
 _atom_site_fract_x
 _atom_site_fract_y
 _atom_site_fract_z
 _atom_site_occupancy
  H  H0  1  0.00766784  0.02919846  0.67710266  1
  H  H1  1  0.00095272  0.35681875  0.67565343  1
  H  H2  1  -0.01059753  0.69817599  0.68191557  1
  H  H3  1  0.48528431  0.02632782  0.67114998  1
  H  H4  1  0.47704805  0.35947067  0.65336127  1
  H  H5  1  0.51335473  0.69606682  0.67675312  1
  H  H6  1  -0.00795286  0.31369902  0.17627403  1
  H  H7  1  0.00356697  0.63955331  0.17539098  1
  H  H8  1  -0.01904242  0.96661869  0.17634533  1
  H  H9  1  0.49436468  0.30318958  0.18080909  1
  H  H10  1  0.49967864  0.63570915  0.18489807  1
  H  H11  1  0.51793298  0.97611542  0.17552979  1
  H  H12  1  0.01548425  0.02599006  0.82689414  1
  H  H13  1  0.01555844  0.36628325  0.82612391  1
  H  H14  1  -0.01115614  0.69194905  0.82281494  1
  H  H15  1  0.48765804  0.03376419  0.81970864  1
  H  H16  1  0.49153553  0.35920094  0.82373152  1
  H  H17  1  0.51294665  0.69546573  0.82238948  1
  H  H18  1  0.00784439  0.30110746  0.32245473  1
  H  H19  1  0.00428653  0.64042677  0.31610192  1
  H  H20  1  -0.00135885  0.97352128  0.32269240  1
  H  H21  1  0.50524038  0.30072012  0.32615228  1
  H  H22  1  0.50210696  0.63987383  0.32313546  1
  H  H23  1  0.52471901  0.96875553  0.33935921  1
  H  H24  1  0.22373797  0.18796629  0.66736737  1
  H  H25  1  0.23153409  0.54318952  0.67898500  1
  H  H26  1  0.24070728  0.86063348  0.67666749  1
  H  H27  1  0.76144325  0.18908075  0.68135641  1
  H  H28  1  0.76892660  0.53258803  0.67505858  1
  H  H29  1  0.73232776  0.87088171  0.65145530  1
  H  H30  1  0.24463782  0.13804740  0.17748288  1
  H  H31  1  0.26152534  0.47591541  0.17411561  1
  H  H32  1  0.25348251  0.80390506  0.17772440  1
  H  H33  1  0.75440794  0.13619688  0.17442220  1
  H  H34  1  0.73809713  0.47064640  0.17733181  1
  H  H35  1  0.75154750  0.79906148  0.17908307  1
  H  H36  1  0.25714668  0.19917079  0.81535176  1
  H  H37  1  0.25105130  0.52756026  0.82745792  1
  H  H38  1  0.26470072  0.86640013  0.82129990  1
  H  H39  1  0.75435358  0.19986028  0.82293396  1
  H  H40  1  0.76219324  0.52021419  0.82315718  1
  H  H41  1  0.73442156  0.85990426  0.82318246  1
  H  H42  1  0.24323648  0.14235732  0.32890433  1
  H  H43  1  0.27365481  0.46599444  0.34383881  1
  H  H44  1  0.23821509  0.80616326  0.32531905  1
  H  H45  1  0.74726611  0.14533858  0.32033295  1
  H  H46  1  0.75060237  0.46970968  0.32268096  1
  H  H47  1  0.76496477  0.81052154  0.32165589  1
  H  H48  1  0.13250618  0.05505354  0.60868832  1
  H  H49  1  0.10365950  0.38850808  0.59091564  1
  H  H50  1  0.12622633  0.71475835  0.62120188  1
  H  H51  1  0.62644274  0.04265682  0.62349073  1
  H  H52  1  0.58394661  0.39870298  0.57501082  1
  H  H53  1  0.62066248  0.72933708  0.59470533  1
  H  H54  1  0.38555691  0.27486790  0.09990187  1
  H  H55  1  0.38939564  0.60760775  0.10585346  1
  H  H56  1  0.37393723  0.95207582  0.12955243  1
  H  H57  1  0.88580211  0.27828149  0.09453797  1
  H  H58  1  0.89301677  0.61031994  0.09695237  1
  H  H59  1  0.87886837  0.93825900  0.09198181  1
  H  H60  1  0.36785943  0.05865303  0.89567511  1
  H  H61  1  0.38602037  0.39197143  0.90682867  1
  H  H62  1  0.37134353  0.71145721  0.87428144  1
  H  H63  1  0.86950063  0.04593050  0.86844226  1
  H  H64  1  0.87859431  0.38340855  0.87953089  1
  H  H65  1  0.87383956  0.72306787  0.90014606  1
  H  H66  1  0.13009935  0.27691965  0.39393800  1
  H  H67  1  0.12591329  0.61504295  0.38998671  1
  H  H68  1  0.13691769  0.95331708  0.37718493  1
  H  H69  1  0.62639191  0.27664997  0.39652066  1
  H  H70  1  0.62511808  0.61037193  0.39451990  1
  H  H71  1  0.66001605  0.94524401  0.39708449  1
  H  H72  1  0.37218265  0.20715366  0.62993983  1
  H  H73  1  0.37652767  0.54618622  0.62960173  1
  H  H74  1  0.35539363  0.89351008  0.60139545  1
  H  H75  1  0.86721281  0.22375501  0.59849219  1
  H  H76  1  0.86390742  0.56167784  0.58515366  1
  H  H77  1  0.83436189  0.90075449  0.56707024  1
  H  H78  1  0.13728501  0.10677251  0.09554472  1
  H  H79  1  0.12086550  0.44959382  0.12598744  1
  H  H80  1  0.12979712  0.77870966  0.10809525  1
  H  H81  1  0.63423996  0.10708488  0.10402764  1
  H  H82  1  0.63179636  0.44004172  0.09317570  1
  H  H83  1  0.63809702  0.77743307  0.10129823  1
  H  H84  1  0.11923124  0.22076810  0.87278663  1
  H  H85  1  0.11267409  0.55285633  0.88016575  1
  H  H86  1  0.12671677  0.88129474  0.87585074  1
  H  H87  1  0.61609527  0.22126069  0.87832135  1
  H  H88  1  0.62525989  0.54783862  0.87668470  1
  H  H89  1  0.63588210  0.89367607  0.91116381  1
  H  H90  1  0.36846519  0.11307739  0.39661268  1
  H  H91  1  0.41171754  0.44210146  0.39485757  1
  H  H92  1  0.37800306  0.78764544  0.37823847  1
  H  H93  1  0.86833046  0.11316207  0.39097136  1
  H  H94  1  0.88949060  0.44726168  0.37637551  1
  H  H95  1  0.87213960  0.78084443  0.40412206  1
  H  H96  1  0.37731487  0.27636535  0.39114008  1
  H  H97  1  0.37723031  0.61312260  0.39384873  1
  H  H98  1  0.41183964  0.94243331  0.41750775  1
  H  H99  1  0.88113676  0.28031323  0.38826922  1
  H  H100  1  0.87715997  0.61232106  0.38052918  1
  H  H101  1  0.89198256  0.94270712  0.40516734  1
  H  H102  1  0.10912531  0.06119443  0.91565322  1
  H  H103  1  0.12385826  0.39412939  0.90784913  1
  H  H104  1  0.12117357  0.71646786  0.88349341  1
  H  H105  1  0.61652082  0.05397451  0.88696742  1
  H  H106  1  0.63084720  0.38424664  0.87404366  1
  H  H107  1  0.61436653  0.72752590  0.90706112  1
  H  H108  1  0.13092289  0.28678958  0.12645405  1
  H  H109  1  0.13976381  0.61636316  0.12077974  1
  H  H110  1  0.12344721  0.95206114  0.12589284  1
  H  H111  1  0.63186452  0.28119608  0.12379002  1
  H  H112  1  0.63585015  0.61696932  0.12926553  1
  H  H113  1  0.61520723  0.94075807  0.08747198  1
  H  H114  1  0.38397276  0.06102593  0.58841682  1
  H  H115  1  0.33861729  0.38277736  0.60232125  1
  H  H116  1  0.37518356  0.71272717  0.62042024  1
  H  H117  1  0.88327099  0.04876462  0.60849600  1
  H  H118  1  0.86164337  0.38472553  0.62569236  1
  H  H119  1  0.87910970  0.72824823  0.60229716  1
  H  H120  1  0.11978866  0.11203991  0.39718313  1
  H  H121  1  0.16603315  0.43014364  0.42368833  1
  H  H122  1  0.13321788  0.77507964  0.40981220  1
  H  H123  1  0.61955236  0.11717613  0.38618580  1
  H  H124  1  0.64655689  0.43662396  0.40604089  1
  H  H125  1  0.62586844  0.78702020  0.37653585  1
  H  H126  1  0.36538419  0.22599756  0.89797479  1
  H  H127  1  0.35915649  0.55728828  0.90937325  1
  H  H128  1  0.37233420  0.89396067  0.90301600  1
  H  H129  1  0.86155570  0.22688526  0.90615924  1
  H  H130  1  0.86908063  0.55704828  0.90238517  1
  H  H131  1  0.87804491  0.87934807  0.87263702  1
  H  H132  1  0.38282722  0.11332547  0.12439328  1
  H  H133  1  0.36518939  0.43993757  0.09120783  1
  H  H134  1  0.37841092  0.77930780  0.10672353  1
  H  H135  1  0.88238141  0.10953438  0.10845348  1
  H  H136  1  0.87664626  0.44962474  0.12375585  1
  H  H137  1  0.88611632  0.78085968  0.11878460  1
  H  H138  1  0.13646469  0.22772777  0.57803366  1
  H  H139  1  0.13578214  0.56072253  0.58626383  1
  H  H140  1  0.10808679  0.88604912  0.61303686  1
  H  H141  1  0.62212849  0.21145228  0.62601069  1
  H  H142  1  0.62450309  0.54503288  0.62842858  1
  H  H143  1  0.59158621  0.88978400  0.60440464  1
  H  H144  1  0.79394935  0.58413244  1.00233267  1
  H  H145  1  0.28631050  0.41193054  -0.00668084  1
  H  H146  1  0.45545877  0.24012131  -0.00222937  1
  H  H147  1  0.30621855  0.92137220  1.00760913  1
  H  H148  1  0.92776547  0.08092159  0.49683936  1
  H  H149  1  0.02538537  0.41730485  0.49329400  1
  H  H150  1  0.45425285  0.58090797  -0.00133856  1
  H  H151  1  0.79816283  0.75185670  0.50688609  1
  H  H152  1  0.95314589  0.90608119  -0.01030054  1
  H  H153  1  0.51325143  0.41912261  0.47208535  1
  H  H154  1  0.95804470  0.58293476  -0.01017196  1
  H  H155  1  0.22639638  0.59194914  0.49487249  1
  H  H156  1  0.53390212  0.74547102  1.00636720  1
  H  H157  1  0.52869680  0.91344812  -0.00652185  1
  H  H158  1  0.69894849  0.75130121  -0.00844070  1
  H  H159  1  0.37519658  0.24123804  0.52006292  1
  H  H160  1  0.78633053  0.26331656  1.00154572  1
  H  H161  1  0.14357430  0.91832653  0.50726626  1
  H  H162  1  0.84197584  0.08241409  0.00007144  1
  H  H163  1  0.29468136  0.25449313  1.00142281  1
  H  H164  1  0.46244483  0.42014507  1.00525657  1
  H  H165  1  0.63399721  0.58388686  0.52303616  1
  H  H166  1  0.07019704  0.59579799  0.49590352  1
  H  H167  1  0.38868739  0.75078807  0.97930357  1
  H  H168  1  0.92156124  0.24812227  0.50049161  1
  H  H169  1  0.36528624  0.57611526  0.52053536  1
  H  H170  1  0.77731802  0.57241231  0.48918488  1
  H  H171  1  0.94827733  0.76255896  0.49979861  1
  H  H172  1  0.21132871  0.07960464  -0.00451658  1
  H  H173  1  0.91772986  0.58367204  0.49207949  1
  H  H174  1  0.39772101  0.74935204  0.50961408  1
  H  H175  1  0.23664013  0.40802885  0.52585948  1
  H  H176  1  0.57470086  0.08255935  0.99717306  1
  H  H177  1  0.95954120  0.25225931  -0.00456569  1
  H  H178  1  0.64060945  0.24364330  0.98846025  1
  H  H179  1  0.17614637  0.75167190  -0.00159363  1
  H  H180  1  0.28491099  0.58122506  1.01121881  1
  H  H181  1  0.61384967  0.58726025  1.01515037  1
  H  H182  1  0.72071650  0.91917168  1.00675023  1
  H  H183  1  0.61774321  0.07952633  0.50953880  1
  H  H184  1  0.11161214  0.25222796  0.01373841  1
  H  H185  1  0.72293848  0.41422485  0.50650386  1
  H  H186  1  0.47057892  0.91303573  0.52442898  1
  H  H187  1  0.02149888  0.08458359  1.01112164  1
  H  H188  1  0.14289304  0.91264702  0.99023784  1
  H  H189  1  0.57910304  0.24666888  0.50647548  1
  H  H190  1  0.11968310  0.58773941  1.00502080  1
  H  H191  1  0.89675924  0.41568459  0.99489896  1
  Pb  Pb192  1  0.23867320  0.05227055  0.75550331  1
  Pb  Pb193  1  0.24246673  0.38411766  0.75999648  1
  Pb  Pb194  1  0.24398753  0.71703121  0.75178327  1
  Pb  Pb195  1  0.74337946  0.04884527  0.75365480  1
  Pb  Pb196  1  0.73511010  0.38330716  0.73353061  1
  Pb  Pb197  1  0.73957945  0.71987073  0.74819711  1
  Pb  Pb198  1  0.26442363  0.28153116  0.24802336  1
  Pb  Pb199  1  0.25976493  0.61577878  0.25201331  1
  Pb  Pb200  1  0.26368989  0.95229906  0.26207220  1
  Pb  Pb201  1  0.76417972  0.28380793  0.24217163  1
  Pb  Pb202  1  0.76494256  0.61406193  0.24628849  1
  Pb  Pb203  1  0.75508665  0.95035140  0.23921806  1
  Pb  Pb204  1  -0.01309447  0.21993924  0.74489383  1
  Pb  Pb205  1  -0.00921122  0.55183495  0.73757337  1
  Pb  Pb206  1  -0.01066725  0.88284158  0.73853825  1
  Pb  Pb207  1  0.49129430  0.21778757  0.75701094  1
  Pb  Pb208  1  0.49108981  0.54713727  0.75895029  1
  Pb  Pb209  1  0.49195946  0.88582310  0.76310300  1
  Pb  Pb210  1  0.01080956  0.11437602  0.24770608  1
  Pb  Pb211  1  0.01731002  0.44889103  0.26723670  1
  Pb  Pb212  1  0.00954999  0.78573177  0.26030120  1
  Pb  Pb213  1  0.50907322  0.11847680  0.25062053  1
  Pb  Pb214  1  0.51030462  0.44866918  0.23698673  1
  Pb  Pb215  1  0.50757438  0.78344600  0.23834313  1
  C  C216  1  0.00727848  0.04412957  0.62949271  1
  C  C217  1  -0.01124724  0.37524698  0.63030993  1
  C  C218  1  -0.00151843  0.71365101  0.63489036  1
  C  C219  1  0.49955611  0.04324947  0.62548304  1
  C  C220  1  0.46684092  0.37841046  0.60765743  1
  C  C221  1  0.50309013  0.71246899  0.63027580  1
  C  C222  1  0.00301153  0.29416408  0.13091489  1
  C  C223  1  0.01262893  0.62339136  0.12853441  1
  C  C224  1  -0.00585545  0.95175048  0.12968670  1
  C  C225  1  0.50463320  0.28674651  0.13423988  1
  C  C226  1  0.50888954  0.62096859  0.13753062  1
  C  C227  1  0.50276560  0.95719009  0.13089094  1
  C  C228  1  -0.00205475  0.04317560  0.87186527  1
  C  C229  1  0.00532067  0.38132602  0.87306239  1
  C  C230  1  -0.00578602  0.70970232  0.86912664  1
  C  C231  1  0.49043408  0.04869806  0.86738407  1
  C  C232  1  0.50252396  0.37697438  0.86951302  1
  C  C233  1  0.49917325  0.71117068  0.86888317  1
  C  C234  1  0.00577115  0.28657472  0.37015163  1
  C  C235  1  0.00298800  0.62431747  0.36351979  1
  C  C236  1  0.00928783  0.95747075  0.36912111  1
  C  C237  1  0.50360679  0.28467844  0.37341382  1
  C  C238  1  0.50154640  0.62265886  0.37002008  1
  C  C239  1  0.53228954  0.95264649  0.38646505  1
  C  C240  1  0.24483029  0.20615812  0.62384864  1
  C  C241  1  0.24833321  0.55174079  0.63112996  1
  C  C242  1  0.23429821  0.87847518  0.63034726  1
  C  C243  1  0.75031599  0.20636189  0.63527110  1
  C  C244  1  0.75233651  0.54661923  0.62860579  1
  C  C245  1  0.71860041  0.88640004  0.60513351  1
  C  C246  1  0.25477346  0.12143540  0.13117844  1
  C  C247  1  0.24945976  0.45674094  0.12914333  1
  C  C248  1  0.25421041  0.78757701  0.13039349  1
  C  C249  1  0.75766291  0.11909428  0.12767687  1
  C  C250  1  0.74831696  0.45425210  0.13099180  1
  C  C251  1  0.75837994  0.78590464  0.13119398  1
  C  C252  1  0.24674344  0.21430180  0.86240291  1
  C  C253  1  0.24125719  0.54416109  0.87406284  1
  C  C254  1  0.25428889  0.88097897  0.86860137  1
  C  C255  1  0.74336587  0.21532004  0.86986558  1
  C  C256  1  0.75225834  0.54022832  0.86817661  1
  C  C257  1  0.74895277  0.87643338  0.86900939  1
  C  C258  1  0.24401514  0.12339190  0.37485281  1
  C  C259  1  0.28359335  0.44773979  0.38987725  1
  C  C260  1  0.24947690  0.78985763  0.37161935  1
  C  C261  1  0.74533323  0.12636667  0.36622333  1
  C  C262  1  0.76207777  0.45282831  0.36879366  1
  C  C263  1  0.75413473  0.79281837  0.36761441  1
  C  C264  1  0.81290166  0.76288612  0.04150675  1
  C  C265  1  0.65290554  0.91287842  0.51872437  1
  C  C266  1  0.45709967  0.25736731  0.46499146  1
  C  C267  1  0.04349795  0.74120310  0.95734532  1
  C  C268  1  0.80639774  0.42669943  0.04478324  1
  C  C269  1  0.34469215  0.41878120  0.47564583  1
  C  C270  1  0.96751761  0.07089567  0.53536819  1
  C  C271  1  0.58780452  0.92557072  0.47612468  1
  C  C272  1  0.20773632  0.08773708  0.46460249  1
  C  C273  1  0.27432210  0.90917866  0.96559131  1
  C  C274  1  0.06085134  0.92614072  0.04564794  1
  C  C275  1  0.48571823  0.59305723  0.04095987  1
  C  C276  1  0.56710821  0.59614023  0.04919782  1
  C  C277  1  0.18388862  0.42173626  0.04721010  1
  C  C278  1  0.77007855  0.76257582  0.46271867  1
  C  C279  1  0.02716142  0.41075617  0.96936540  1
  C  C280  1  0.30890029  0.76145696  0.45681799  1
  C  C281  1  0.18035543  0.57514218  0.95894896  1
  C  C282  1  0.98145002  0.92056178  0.03246149  1
  C  C283  1  0.73204802  0.76135061  0.03373770  1
  C  C284  1  0.53867201  0.25719974  0.46851406  1
  C  C285  1  0.06484155  0.26115085  0.04776241  1
  C  C286  1  0.04422250  0.25865440  0.46357484  1
  C  C287  1  0.40549617  0.40796023  0.52214399  1
  C  C288  1  0.26514847  0.24227405  0.95815846  1
  C  C289  1  0.48573133  0.07763308  0.53046752  1
  C  C290  1  0.06591678  0.93080826  0.45586046  1
  C  C291  1  0.56571457  0.07140556  0.54072670  1
  C  C292  1  0.50501138  0.92383968  0.48310944  1
  C  C293  1  0.21686634  0.76159801  0.03724594  1
  C  C294  1  0.72035997  0.08721863  0.03447029  1
  C  C295  1  0.95738371  0.59479033  0.45392266  1
  C  C296  1  0.92400516  0.07200525  0.95143019  1
  C  C297  1  0.94622667  0.40738594  0.96143796  1
  C  C298  1  0.31625828  0.08874643  0.04657923  1
  C  C299  1  0.96269224  0.25929798  0.46320249  1
  C  C300  1  0.70358212  0.09333225  0.45600069  1
  C  C301  1  0.48535942  0.25343548  0.04048933  1
  C  C302  1  0.04902269  0.07247033  0.53709572  1
  C  C303  1  0.19328076  0.90478407  0.95648044  1
  C  C304  1  0.98963141  0.59482684  0.03213291  1
  C  C305  1  0.97866726  0.74659586  0.54125833  1
  C  C306  1  0.53307264  0.07375676  0.95916956  1
  C  C307  1  0.07108658  0.59729030  0.04028568  1
  C  C308  1  0.56617796  0.41138637  0.95252379  1
  C  C309  1  0.24502382  0.24321893  0.52819614  1
  C  C310  1  0.44674156  0.74053554  0.54377883  1
  C  C311  1  0.73541655  0.91660721  0.50720340  1
  N  N312  1  0.46205596  0.59458123  0.46289580  1
  N  N313  1  0.25867558  0.57695711  0.96789625  1
  N  N314  1  0.31789588  0.55966341  0.54666201  1
  N  N315  1  0.26498427  0.41146159  0.48265900  1
  N  N316  1  0.48845979  0.41203028  0.96261432  1
  N  N317  1  0.76890667  0.57775965  0.95900246  1
  N  N318  1  0.69170404  0.57386859  0.95173290  1
  N  N319  1  0.74200021  0.90990377  0.96220217  1
  N  N320  1  0.78109069  0.09109011  0.45890812  1
  N  N321  1  0.23293241  0.75641871  0.46810364  1
  N  N322  1  0.48509988  0.41622763  0.51539633  1
  N  N323  1  0.69181514  0.23710634  0.54963149  1
  N  N324  1  0.73030169  0.42336077  0.03355987  1
  N  N325  1  0.92438807  0.40816507  0.54785102  1
  N  N326  1  0.28494285  0.08809288  0.46581442  1
  N  N327  1  0.76202127  0.23824768  0.96600283  1
  N  N328  1  0.50822704  0.92165539  0.03849891  1
  N  N329  1  0.26152752  0.41993434  0.03655818  1
  N  N330  1  0.03698906  0.59514311  0.45596526  1
  N  N331  1  0.56378843  0.25476027  0.04861100  1
  N  N332  1  0.52477681  0.74668333  0.53505260  1
  N  N333  1  0.53873278  0.59413135  0.46330507  1
  N  N334  1  0.69193375  0.76313003  0.45320562  1
  N  N335  1  0.29627979  0.76189875  0.03620490  1
  N  N336  1  0.68478158  0.24480531  0.95377144  1
  N  N337  1  0.24074876  0.56340202  0.53107859  1
  N  N338  1  0.81816768  0.90510695  0.95059299  1
  N  N339  1  0.00033569  0.07720584  0.96615059  1
  N  N340  1  0.26540741  0.91233964  0.53771648  1
  N  N341  1  0.00095338  0.40929091  0.53755458  1
  N  N342  1  0.82522842  0.42542011  0.45393176  1
  N  N343  1  0.43550686  0.73329530  0.95314015  1
  N  N344  1  0.75892431  0.58003195  0.53424499  1
  N  N345  1  0.51213746  0.74732278  0.96132430  1
  N  N346  1  0.23839617  0.08793259  0.03778865  1
  N  N347  1  0.79921515  0.08982384  0.03687908  1
  N  N348  1  0.18683031  0.24008364  0.94993911  1
  N  N349  1  0.96642646  0.74302210  0.96397732  1
  N  N350  1  0.68256618  0.56604280  0.54657652  1
  N  N351  1  0.31951574  0.23474460  0.54618207  1
  N  N352  1  0.74842647  0.42146985  0.46247077  1
  N  N353  1  0.45399016  0.07597195  0.96238517  1
  N  N354  1  0.98932600  0.92715527  0.46594892  1
  N  N355  1  0.76697717  0.24145466  0.54090994  1
  N  N356  1  0.18776064  0.90981897  0.54322214  1
  N  N357  1  0.05715645  0.74185907  0.54724232  1
  N  N358  1  0.43221990  0.92516397  0.05139253  1
  N  N359  1  0.98639062  0.25759865  0.03837492  1
  N  N360  1  0.07278587  0.05676578  0.59405556  1
  N  N361  1  0.04132869  0.38683128  0.58614579  1
  N  N362  1  0.06768407  0.72194031  0.60577341  1
  N  N363  1  0.57249170  0.05005385  0.60115554  1
  N  N364  1  0.52231231  0.39308080  0.56650183  1
  N  N365  1  0.55846965  0.72885015  0.58951203  1
  N  N366  1  0.44771005  0.27274903  0.09267332  1
  N  N367  1  0.45095670  0.60873280  0.09624957  1
  N  N368  1  0.42964597  0.94530427  0.10939465  1
  N  N369  1  0.94842860  0.28112957  0.08850965  1
  N  N370  1  0.95458360  0.61119274  0.08739433  1
  N  N371  1  0.94058267  0.93709759  0.08636602  1
  N  N372  1  0.42904503  0.06009705  0.90475508  1
  N  N373  1  0.44811195  0.38879762  0.91249876  1
  N  N374  1  0.42726105  0.72049533  0.89292718  1
  N  N375  1  0.92227318  0.05286271  0.89222219  1
  N  N376  1  0.93433769  0.38926971  0.90028079  1
  N  N377  1  0.93536424  0.72283850  0.90788593  1
  N  N378  1  0.07000498  0.27479939  0.40732317  1
  N  N379  1  0.06483901  0.61681719  0.40109622  1
  N  N380  1  0.08084851  0.94848165  0.39645350  1
  N  N381  1  0.56635539  0.27448220  0.41005631  1
  N  N382  1  0.56438790  0.61115288  0.40573432  1
  N  N383  1  0.60204657  0.94379952  0.41536537  1
  N  N384  1  0.31967483  0.21108272  0.60477389  1
  N  N385  1  0.32196443  0.55414371  0.60810548  1
  N  N386  1  0.29386926  0.89354937  0.59224351  1
  N  N387  1  0.80475008  0.22217704  0.59367063  1
  N  N388  1  0.80236383  0.55671641  0.58195585  1
  N  N389  1  0.77309684  0.90066106  0.55946522  1
  N  N390  1  0.19925321  0.11018854  0.08891845  1
  N  N391  1  0.17630161  0.44364076  0.10487616  1
  N  N392  1  0.19004124  0.77671838  0.09473270  1
  N  N393  1  0.69445627  0.10513216  0.09065853  1
  N  N394  1  0.69370895  0.44129942  0.08879548  1
  N  N395  1  0.69897164  0.77584087  0.09094317  1
  N  N396  1  0.17687050  0.22268214  0.89024415  1
  N  N397  1  0.16916231  0.55640465  0.90021069  1
  N  N398  1  0.18281076  0.88762759  0.89602644  1
  N  N399  1  0.67284231  0.22125317  0.89750563  1
  N  N400  1  0.68199759  0.55343612  0.89400744  1
  N  N401  1  0.69820291  0.89022450  0.91397812  1
  N  N402  1  0.30790493  0.11074061  0.40866891  1
  N  N403  1  0.35591191  0.43920518  0.41652974  1
  N  N404  1  0.32186435  0.78124424  0.39811561  1
  N  N405  1  0.80718686  0.11234780  0.40158891  1
  N  N406  1  0.83339779  0.44305428  0.39491231  1
  N  N407  1  0.81004641  0.77981072  0.41033954  1
  N  N408  1  0.43635927  0.27389981  0.40724983  1
  N  N409  1  0.43780748  0.61200688  0.40513746  1
  N  N410  1  0.47306241  0.94076433  0.42715267  1
  N  N411  1  0.93998917  0.27693266  0.40401079  1
  N  N412  1  0.93614077  0.61131867  0.39626715  1
  N  N413  1  0.95444488  0.94455291  0.41101023  1
  N  N414  1  0.04670256  0.05638940  0.91802069  1
  N  N415  1  0.06263144  0.39518764  0.91590491  1
  N  N416  1  0.06292639  0.72131637  0.89981077  1
  N  N417  1  0.55691676  0.05752062  0.90113216  1
  N  N418  1  0.57512678  0.39026285  0.89471603  1
  N  N419  1  0.55220459  0.72341261  0.91290939  1
  N  N420  1  0.07530246  0.28149073  0.10597241  1
  N  N421  1  0.08360698  0.61485871  0.10058836  1
  N  N422  1  0.06826422  0.94459788  0.10440550  1
  N  N423  1  0.57426991  0.27603564  0.10702243  1
  N  N424  1  0.57991344  0.61351541  0.10915082  1
  N  N425  1  0.55269938  0.94321985  0.08549860  1
  N  N426  1  0.44578752  0.06065495  0.58126977  1
  N  N427  1  0.39450544  0.38687357  0.58103221  1
  N  N428  1  0.43209789  0.72005554  0.60225012  1
  N  N429  1  0.94274288  0.05307522  0.59403139  1
  N  N430  1  0.91722215  0.38828918  0.60617985  1
  N  N431  1  0.94089299  0.72881405  0.59430552  1
  N  N432  1  0.17967802  0.10893390  0.40979788  1
  N  N433  1  0.22811363  0.43376469  0.43121358  1
  N  N434  1  0.19556937  0.77472891  0.41351145  1
  N  N435  1  0.67924660  0.11386646  0.39970966  1
  N  N436  1  0.70849406  0.44087189  0.41214576  1
  N  N437  1  0.68379575  0.78205087  0.39412372  1
  N  N438  1  0.30333158  0.22658376  0.90481022  1
  N  N439  1  0.29686733  0.55417517  0.91642508  1
  N  N440  1  0.31107717  0.89425211  0.91050328  1
  N  N441  1  0.79865077  0.22996196  0.91120212  1
  N  N442  1  0.80717834  0.55399911  0.90990045  1
  N  N443  1  0.82181486  0.88588917  0.89229655  1
  N  N444  1  0.32671853  0.10900162  0.10458533  1
  N  N445  1  0.30305095  0.44353524  0.08595812  1
  N  N446  1  0.31795134  0.77773792  0.09527615  1
  N  N447  1  0.82301419  0.11052598  0.09419570  1
  N  N448  1  0.82016436  0.44482884  0.10389047  1
  N  N449  1  0.82842792  0.77737518  0.10025121  1
  N  N450  1  0.19828255  0.22610118  0.57640753  1
  N  N451  1  0.19839647  0.56196034  0.58459848  1
  N  N452  1  0.16748032  0.88824184  0.59891892  1
  N  N453  1  0.68001448  0.21477988  0.60797477  1
  N  N454  1  0.67882460  0.55570431  0.60760320  1
  N  N455  1  0.64590569  0.89390068  0.58088407  1
  Cl  Cl456  1  0.25810687  0.05743098  0.62411119  1
  Cl  Cl457  1  0.21746966  0.39054509  0.61665989  1
  Cl  Cl458  1  0.25074094  0.70734738  0.62335758  1
  Cl  Cl459  1  0.75945942  0.04656790  0.62704547  1
  Cl  Cl460  1  0.70400423  0.39900736  0.59686245  1
  Cl  Cl461  1  0.75135250  0.72636884  0.61131371  1
  Cl  Cl462  1  0.26376241  0.27889646  0.11187446  1
  Cl  Cl463  1  0.26974030  0.59953576  0.11226387  1
  Cl  Cl464  1  0.24866526  0.95506833  0.12725496  1
  Cl  Cl465  1  0.76598847  0.27816065  0.10146120  1
  Cl  Cl466  1  0.77123430  0.60323705  0.10855904  1
  Cl  Cl467  1  0.73776914  0.94046014  0.09799588  1
  Cl  Cl468  1  0.23160660  0.06332184  0.89903328  1
  Cl  Cl469  1  0.26163141  0.39549805  0.89846287  1
  Cl  Cl470  1  0.24528774  0.71644696  0.88571323  1
  Cl  Cl471  1  0.73966966  0.05487626  0.88955335  1
  Cl  Cl472  1  0.75386996  0.37951639  0.86272627  1
  Cl  Cl473  1  0.73821912  0.72574578  0.88602712  1
  Cl  Cl474  1  0.25487545  0.27590463  0.38180531  1
  Cl  Cl475  1  0.24950813  0.60954985  0.39520152  1
  Cl  Cl476  1  0.27933018  0.94610104  0.38806399  1
  Cl  Cl477  1  0.75230015  0.27786728  0.37192585  1
  Cl  Cl478  1  0.75122802  0.60179930  0.38869353  1
  Cl  Cl479  1  0.77666414  0.94069457  0.37330564  1
  Cl  Cl480  1  -0.00789126  0.22681218  0.61023288  1
  Cl  Cl481  1  0.00707547  0.56229438  0.59514743  1
  Cl  Cl482  1  -0.02098182  0.89074820  0.61188081  1
  Cl  Cl483  1  0.49897132  0.21680325  0.62666842  1
  Cl  Cl484  1  0.50098411  0.54165616  0.62653749  1
  Cl  Cl485  1  0.47218232  0.89183275  0.62943397  1
  Cl  Cl486  1  0.01399381  0.10475644  0.10323789  1
  Cl  Cl487  1  -0.00179260  0.44880569  0.13794217  1
  Cl  Cl488  1  0.00986928  0.77969058  0.12950719  1
  Cl  Cl489  1  0.51221967  0.10649066  0.11770092  1
  Cl  Cl490  1  0.49008139  0.43753886  0.10019224  1
  Cl  Cl491  1  0.50995378  0.77262885  0.10043552  1
  Cl  Cl492  1  -0.01953700  0.22699618  0.89575662  1
  Cl  Cl493  1  -0.01506503  0.55933423  0.87325845  1
  Cl  Cl494  1  0.00163629  0.88006891  0.87348345  1
  Cl  Cl495  1  0.48835040  0.22984995  0.89283236  1
  Cl  Cl496  1  0.48154772  0.55586966  0.89414570  1
  Cl  Cl497  1  0.51277149  0.89336571  0.90193103  1
  Cl  Cl498  1  -0.00576705  0.11077718  0.37966966  1
  Cl  Cl499  1  0.04549553  0.43754235  0.40493563  1
  Cl  Cl500  1  -0.00039641  0.77669485  0.39570369  1
  Cl  Cl501  1  0.49397609  0.11273479  0.38305656  1
  Cl  Cl502  1  0.53266780  0.43488101  0.38057010  1
  Cl  Cl503  1  0.50134796  0.79011175  0.36536372  1
  Cl  Cl504  1  0.35866278  0.14775543  0.74983400  1
  Cl  Cl505  1  0.35364236  0.48236265  0.74176289  1
  Cl  Cl506  1  0.36097301  0.81364572  0.75449572  1
  Cl  Cl507  1  0.85432192  0.15079865  0.75915215  1
  Cl  Cl508  1  0.85948753  0.47777553  0.73529381  1
  Cl  Cl509  1  0.85866095  0.81566496  0.75036803  1
  Cl  Cl510  1  0.14038112  0.18828140  0.24563279  1
  Cl  Cl511  1  0.14292901  0.51987286  0.24710494  1
  Cl  Cl512  1  0.14470089  0.85531846  0.25631703  1
  Cl  Cl513  1  0.64318896  0.18883172  0.23641253  1
  Cl  Cl514  1  0.64099958  0.52091548  0.24245267  1
  Cl  Cl515  1  0.64555395  0.84879818  0.24732592  1
  Cl  Cl516  1  0.13485836  0.14857309  0.74885617  1
  Cl  Cl517  1  0.13488390  0.47959405  0.75947588  1
  Cl  Cl518  1  0.14016722  0.81628923  0.74804104  1
  Cl  Cl519  1  0.62914861  0.14933940  0.75654576  1
  Cl  Cl520  1  0.64015841  0.48500232  0.75625585  1
  Cl  Cl521  1  0.64026437  0.81808350  0.74161355  1
  Cl  Cl522  1  0.36025916  0.18078692  0.24689523  1
  Cl  Cl523  1  0.36311361  0.51342549  0.26888965  1
  Cl  Cl524  1  0.36498577  0.85060163  0.23813398  1
  Cl  Cl525  1  0.86368446  0.18602764  0.24048418  1
  Cl  Cl526  1  0.86809459  0.51941552  0.26423365  1
  Cl  Cl527  1  0.86721821  0.84997131  0.24230341  1
  Cl  Cl528  1  0.11138286  0.31071883  0.76338972  1
  Cl  Cl529  1  0.11216371  0.64538775  0.74968130  1
  Cl  Cl530  1  0.10586260  0.98195147  0.74963794  1
  Cl  Cl531  1  0.60240449  0.31842956  0.75062701  1
  Cl  Cl532  1  0.60456065  0.64773734  0.74995949  1
  Cl  Cl533  1  0.60615990  0.98326420  0.74307897  1
  Cl  Cl534  1  0.39744638  0.01732104  0.24724291  1
  Cl  Cl535  1  0.40136560  0.34844932  0.26064942  1
  Cl  Cl536  1  0.39338329  0.68458622  0.24930358  1
  Cl  Cl537  1  0.88679860  0.02221721  0.23950430  1
  Cl  Cl538  1  0.89667310  0.35347107  0.26009855  1
  Cl  Cl539  1  0.89900999  0.68336446  0.24655105  1
  Cl  Cl540  1  0.38209140  0.31799566  0.73431172  1
  Cl  Cl541  1  0.38384848  0.64817369  0.75359403  1
  Cl  Cl542  1  0.38451905  0.97945834  0.76315449  1
  Cl  Cl543  1  0.88738928  0.31622167  0.74272912  1
  Cl  Cl544  1  0.88661680  0.64678012  0.74572413  1
  Cl  Cl545  1  0.88295745  0.98277552  0.76133046  1
  Cl  Cl546  1  0.11115769  0.01824156  0.25083125  1
  Cl  Cl547  1  0.11752174  0.35285787  0.24645230  1
  Cl  Cl548  1  0.12523142  0.68653092  0.24846418  1
  Cl  Cl549  1  0.61714354  0.01615567  0.25818139  1
  Cl  Cl550  1  0.61884929  0.35782858  0.23394872  1
  Cl  Cl551  1  0.61693783  0.68408803  0.24753901  1
