# generated using pymatgen
data_H8PbC4(N3Cl2)2
_symmetry_space_group_name_H-M   'P 1'
_cell_length_a   16.63284129
_cell_length_b   22.53020406
_cell_length_c   21.60015685
_cell_angle_alpha   89.99655707
_cell_angle_beta   90.02647552
_cell_angle_gamma   90.00520388
_symmetry_Int_Tables_number   1
_chemical_formula_structural   H8PbC4(N3Cl2)2
_chemical_formula_sum   'H192 Pb24 C96 N144 Cl96'
_cell_volume   8094.47012693
_cell_formula_units_Z   24
loop_
 _symmetry_equiv_pos_site_id
 _symmetry_equiv_pos_as_xyz
  1  'x, y, z'
loop_
 _atom_site_type_symbol
 _atom_site_label
 _atom_site_symmetry_multiplicity
 _atom_site_fract_x
 _atom_site_fract_y
 _atom_site_fract_z
 _atom_site_occupancy
  H  H0  1  0.00836575  0.02898804  0.68091646  1
  H  H1  1  -0.00397426  0.35747662  0.67207271  1
  H  H2  1  -0.02518973  0.69695750  0.65451288  1
  H  H3  1  0.48608903  0.03504782  0.67510898  1
  H  H4  1  0.49550110  0.36661160  0.68583568  1
  H  H5  1  0.49474559  0.69731938  0.68150510  1
  H  H6  1  0.00771533  0.30689964  0.17454562  1
  H  H7  1  0.01139259  0.63527940  0.17352385  1
  H  H8  1  -0.00817058  0.97248223  0.17871196  1
  H  H9  1  0.48782120  0.30864843  0.17670426  1
  H  H10  1  0.49437009  0.64114542  0.17328613  1
  H  H11  1  0.50299939  0.97016835  0.17807576  1
  H  H12  1  -0.02641245  0.02411949  0.82810835  1
  H  H13  1  -0.01586277  0.36146443  0.82170855  1
  H  H14  1  -0.00357604  0.69515865  0.81898981  1
  H  H15  1  0.51918093  0.02747639  0.82531617  1
  H  H16  1  0.51809337  0.35640505  0.82914290  1
  H  H17  1  0.50643190  0.69526671  0.82322462  1
  H  H18  1  -0.00217549  0.30507069  0.32551521  1
  H  H19  1  0.01753190  0.63430126  0.32236717  1
  H  H20  1  -0.01786421  0.97685751  0.32478492  1
  H  H21  1  0.50967387  0.30180624  0.31987488  1
  H  H22  1  0.49306844  0.63990922  0.32050976  1
  H  H23  1  0.51199076  0.97121606  0.31656859  1
  H  H24  1  0.24554400  0.19706194  0.67760809  1
  H  H25  1  0.26846039  0.53522613  0.68184801  1
  H  H26  1  0.26748406  0.86293414  0.67708787  1
  H  H27  1  0.74036755  0.19187985  0.68316724  1
  H  H28  1  0.72490582  0.53054272  0.67278406  1
  H  H29  1  0.73477452  0.84973395  0.67354718  1
  H  H30  1  0.24418913  0.14053720  0.17265287  1
  H  H31  1  0.24059140  0.47634006  0.17294859  1
  H  H32  1  0.23197610  0.80667301  0.17876818  1
  H  H33  1  0.75295702  0.14465236  0.17939305  1
  H  H34  1  0.76435956  0.47378283  0.17453161  1
  H  H35  1  0.76250074  0.80751771  0.17601187  1
  H  H36  1  0.24391463  0.19011948  0.82212389  1
  H  H37  1  0.25474450  0.52484298  0.82370805  1
  H  H38  1  0.24540094  0.85509213  0.82568395  1
  H  H39  1  0.76626484  0.20040051  0.82393489  1
  H  H40  1  0.74557123  0.52895241  0.81914400  1
  H  H41  1  0.74533523  0.86346597  0.82163407  1
  H  H42  1  0.23178582  0.13842050  0.31740987  1
  H  H43  1  0.25422125  0.46419197  0.31675016  1
  H  H44  1  0.24061567  0.80472311  0.32006542  1
  H  H45  1  0.76385614  0.13379686  0.32641187  1
  H  H46  1  0.76101757  0.47916272  0.32600649  1
  H  H47  1  0.77127385  0.79896762  0.34174538  1
  H  H48  1  0.12552985  0.05600895  0.60355021  1
  H  H49  1  0.13389666  0.37699224  0.61510327  1
  H  H50  1  0.07909131  0.73524613  0.57367503  1
  H  H51  1  0.62623068  0.05186239  0.62232187  1
  H  H52  1  0.63145910  0.38657713  0.62995197  1
  H  H53  1  0.61577598  0.72070096  0.61042939  1
  H  H54  1  0.37501786  0.27667396  0.09949710  1
  H  H55  1  0.36679565  0.61081198  0.10802921  1
  H  H56  1  0.36560944  0.95102566  0.12054653  1
  H  H57  1  0.87572281  0.28259003  0.11168781  1
  H  H58  1  0.87209767  0.62018829  0.12278973  1
  H  H59  1  0.86798315  0.94663954  0.10825510  1
  H  H60  1  0.37388630  0.04494798  0.86705222  1
  H  H61  1  0.37872086  0.38380465  0.88028619  1
  H  H62  1  0.37679442  0.71706562  0.88674650  1
  H  H63  1  0.88241233  0.06105181  0.91806250  1
  H  H64  1  0.89021207  0.39030421  0.91093413  1
  H  H65  1  0.88676429  0.72215237  0.90070934  1
  H  H66  1  0.12287618  0.27810906  0.39225974  1
  H  H67  1  0.13023548  0.60824907  0.40327883  1
  H  H68  1  0.12219670  0.95254930  0.37259842  1
  H  H69  1  0.61434003  0.27628143  0.40449097  1
  H  H70  1  0.62925048  0.61690444  0.38052000  1
  H  H71  1  0.63103936  0.94132228  0.38877496  1
  H  H72  1  0.37993876  0.21775880  0.61470214  1
  H  H73  1  0.37175152  0.56072741  0.59598326  1
  H  H74  1  0.36587670  0.89233177  0.58858692  1
  H  H75  1  0.87919464  0.21690340  0.62814513  1
  H  H76  1  0.86553818  0.54883638  0.62530512  1
  H  H77  1  0.86589871  0.88643161  0.61753175  1
  H  H78  1  0.12571468  0.11237752  0.09852877  1
  H  H79  1  0.12326990  0.44643355  0.10144782  1
  H  H80  1  0.12416097  0.77287394  0.09689777  1
  H  H81  1  0.62681113  0.11100972  0.11643326  1
  H  H82  1  0.62236808  0.45285775  0.12629240  1
  H  H83  1  0.61802933  0.78864678  0.13082591  1
  H  H84  1  0.12274923  0.22125343  0.89457300  1
  H  H85  1  0.13019258  0.55034720  0.89498938  1
  H  H86  1  0.13873604  0.89194334  0.90614278  1
  H  H87  1  0.62905830  0.21674474  0.87790544  1
  H  H88  1  0.63068247  0.55756744  0.89700379  1
  H  H89  1  0.63105934  0.89350843  0.89748497  1
  H  H90  1  0.36798239  0.11727418  0.37663519  1
  H  H91  1  0.36254435  0.44244880  0.40028874  1
  H  H92  1  0.38227374  0.78459603  0.37089953  1
  H  H93  1  0.87095646  0.10389673  0.40789012  1
  H  H94  1  0.86275636  0.44219168  0.40934085  1
  H  H95  1  0.90596948  0.77690573  0.39772647  1
  H  H96  1  0.36854203  0.28219939  0.37255269  1
  H  H97  1  0.38174883  0.61200315  0.40013742  1
  H  H98  1  0.38224228  0.94629056  0.38275565  1
  H  H99  1  0.87403237  0.27964990  0.39277219  1
  H  H100  1  0.88356019  0.61136442  0.38325342  1
  H  H101  1  0.87929308  0.94038342  0.40813252  1
  H  H102  1  0.12010657  0.04599855  0.86610616  1
  H  H103  1  0.13040250  0.37663871  0.86392069  1
  H  H104  1  0.13380209  0.71575608  0.87773237  1
  H  H105  1  0.61417079  0.06142461  0.91275387  1
  H  H106  1  0.62405664  0.39126357  0.90916106  1
  H  H107  1  0.62493836  0.71999302  0.89581713  1
  H  H108  1  0.12401573  0.27745219  0.09926994  1
  H  H109  1  0.11593829  0.60541162  0.09078720  1
  H  H110  1  0.11708369  0.94650641  0.10952550  1
  H  H111  1  0.62278048  0.28393750  0.11757528  1
  H  H112  1  0.61565236  0.61352001  0.10219920  1
  H  H113  1  0.61243032  0.94182505  0.09660128  1
  H  H114  1  0.38120112  0.05932513  0.58882472  1
  H  H115  1  0.38469650  0.38897102  0.60481378  1
  H  H116  1  0.36798343  0.71812566  0.61641698  1
  H  H117  1  0.87793923  0.05613237  0.61665212  1
  H  H118  1  0.88796023  0.39354788  0.59271963  1
  H  H119  1  0.83366306  0.71846235  0.60568620  1
  H  H120  1  0.12110598  0.11165867  0.39824343  1
  H  H121  1  0.11637752  0.44543816  0.37431997  1
  H  H122  1  0.14055387  0.77312213  0.40672573  1
  H  H123  1  0.62585073  0.11935181  0.38411050  1
  H  H124  1  0.61942378  0.45452087  0.37365879  1
  H  H125  1  0.65894402  0.76914741  0.41833063  1
  H  H126  1  0.37134314  0.22191733  0.88796256  1
  H  H127  1  0.37866836  0.55579377  0.89358365  1
  H  H128  1  0.38400671  0.88262307  0.87985852  1
  H  H129  1  0.87465550  0.22525770  0.90585199  1
  H  H130  1  0.87886688  0.54930837  0.88183529  1
  H  H131  1  0.87889799  0.88610601  0.88389796  1
  H  H132  1  0.37395388  0.11477607  0.10834826  1
  H  H133  1  0.37151607  0.45113743  0.11165482  1
  H  H134  1  0.36968243  0.78351512  0.12453974  1
  H  H135  1  0.87348973  0.12260738  0.10506126  1
  H  H136  1  0.86555916  0.43919137  0.09052461  1
  H  H137  1  0.85944979  0.77256899  0.08887344  1
  H  H138  1  0.13288784  0.22437451  0.59708411  1
  H  H139  1  0.12696545  0.55166946  0.62779068  1
  H  H140  1  0.12441742  0.88460084  0.63158741  1
  H  H141  1  0.63290436  0.22293052  0.60185412  1
  H  H142  1  0.62244575  0.56222490  0.58887534  1
  H  H143  1  0.61881428  0.88768453  0.60172029  1
  H  H144  1  0.69214262  0.90213753  0.49922457  1
  H  H145  1  0.54128685  0.24810076  0.50802478  1
  H  H146  1  0.39699674  0.41534241  0.98813455  1
  H  H147  1  0.57642512  0.91501992  0.49875908  1
  H  H148  1  0.10847937  0.41523638  0.50982107  1
  H  H149  1  0.88478285  0.58610668  1.00804911  1
  H  H150  1  0.44947290  0.41849524  0.49885203  1
  H  H151  1  0.29482038  0.58742120  0.49374788  1
  H  H152  1  0.64851762  0.24658434  -0.00672316  1
  H  H153  1  0.78548644  0.41210821  -0.00729550  1
  H  H154  1  0.28097614  0.91566442  0.49098193  1
  H  H155  1  0.71795612  0.73485866  0.52365723  1
  H  H156  1  0.37524548  0.07933365  -0.02093256  1
  H  H157  1  0.45513032  0.08807561  0.49136645  1
  H  H158  1  0.29200137  0.41511333  0.50466070  1
  H  H159  1  0.68455623  0.05226807  0.02899687  1
  H  H160  1  0.10840102  0.92103172  0.48751398  1
  H  H161  1  0.17237230  0.41286516  -0.00668548  1
  H  H162  1  0.57696406  0.74939534  1.00533305  1
  H  H163  1  0.85408518  0.58351112  0.51102644  1
  H  H164  1  0.53220802  0.09091406  1.01159398  1
  H  H165  1  0.64819078  0.08420169  0.49116730  1
  H  H166  1  0.17985826  0.08155680  -0.00811984  1
  H  H167  1  0.40638301  0.74839272  0.50310354  1
  H  H168  1  0.60965173  0.41303080  0.51459787  1
  H  H169  1  0.97364459  0.08771966  1.01048418  1
  H  H170  1  0.81856050  0.90425271  0.50904141  1
  H  H171  1  0.91849873  0.24321573  0.50236531  1
  H  H172  1  0.35932383  0.91387655  0.98842993  1
  H  H173  1  0.77499309  0.74812102  -0.00768311  1
  H  H174  1  0.97448533  0.41811283  1.01081534  1
  H  H175  1  0.80899651  0.11006010  0.00115939  1
  H  H176  1  0.55647482  0.42350670  1.01158756  1
  H  H177  1  0.95584892  0.74917532  1.00477999  1
  H  H178  1  0.34712473  0.74670783  0.01412245  1
  H  H179  1  0.42541103  0.92687854  0.49136923  1
  H  H180  1  0.96167905  0.41027347  0.49043860  1
  H  H181  1  0.22114752  0.74805505  0.50445942  1
  H  H182  1  0.95686013  0.92325867  0.50825808  1
  H  H183  1  0.45003388  0.58092077  0.50453359  1
  H  H184  1  0.70480024  0.25534103  0.49982980  1
  H  H185  1  0.78226473  0.41845071  0.50901105  1
  H  H186  1  0.38793249  0.25471055  0.48203609  1
  H  H187  1  0.18935263  0.08440316  0.50276839  1
  H  H188  1  0.79833750  0.09193216  0.50935852  1
  H  H189  1  0.91792178  0.91299336  0.00148706  1
  H  H190  1  0.00574068  0.75645767  0.47271366  1
  H  H191  1  0.06412461  0.58269338  0.50394746  1
  Pb  Pb192  1  0.25333131  0.04669123  0.73680449  1
  Pb  Pb193  1  0.25458583  0.38193754  0.74180359  1
  Pb  Pb194  1  0.24659095  0.71791375  0.73210448  1
  Pb  Pb195  1  0.75061034  0.04918508  0.76534591  1
  Pb  Pb196  1  0.76141672  0.38711236  0.75746444  1
  Pb  Pb197  1  0.75288016  0.71382391  0.76589508  1
  Pb  Pb198  1  0.24634144  0.28497184  0.24415317  1
  Pb  Pb199  1  0.24960195  0.61516995  0.25358772  1
  Pb  Pb200  1  0.24871835  0.95219724  0.25619190  1
  Pb  Pb201  1  0.74655891  0.28567143  0.25776481  1
  Pb  Pb202  1  0.74651939  0.61925674  0.24804453  1
  Pb  Pb203  1  0.75117745  0.94704600  0.24855438  1
  Pb  Pb204  1  0.00442630  0.21474144  0.75221844  1
  Pb  Pb205  1  0.00707034  0.55184892  0.74794365  1
  Pb  Pb206  1  -0.00109994  0.88249116  0.75243357  1
  Pb  Pb207  1  0.50295315  0.21633602  0.74620409  1
  Pb  Pb208  1  0.50066082  0.55102434  0.74549758  1
  Pb  Pb209  1  0.50334094  0.88273981  0.73950596  1
  Pb  Pb210  1  -0.00206394  0.11868525  0.24806261  1
  Pb  Pb211  1  -0.00659580  0.45013645  0.24970309  1
  Pb  Pb212  1  0.00178212  0.78185006  0.23989275  1
  Pb  Pb213  1  0.49853235  0.11916843  0.25374153  1
  Pb  Pb214  1  0.49508343  0.45247387  0.25421742  1
  Pb  Pb215  1  0.50203732  0.78400234  0.26180370  1
  C  C216  1  0.00395880  0.04590123  0.63404637  1
  C  C217  1  0.00629951  0.37519485  0.62592278  1
  C  C218  1  -0.03717154  0.71498954  0.60868650  1
  C  C219  1  0.49762425  0.04876980  0.62775376  1
  C  C220  1  0.50452802  0.38049214  0.63816959  1
  C  C221  1  0.49205666  0.71215974  0.63386909  1
  C  C222  1  0.00217391  0.28934575  0.12814165  1
  C  C223  1  -0.00114046  0.62025744  0.12686341  1
  C  C224  1  -0.00770948  0.95508486  0.13194689  1
  C  C225  1  0.49555605  0.29027598  0.13089116  1
  C  C226  1  0.49204798  0.62247797  0.12723540  1
  C  C227  1  0.49373033  0.95465110  0.13118616  1
  C  C228  1  -0.00807568  0.04229831  0.87243398  1
  C  C229  1  0.00175079  0.37568708  0.86772890  1
  C  C230  1  0.00583353  0.70993388  0.86621269  1
  C  C231  1  0.50188837  0.04436367  0.87047850  1
  C  C232  1  0.50631655  0.37586453  0.87438870  1
  C  C233  1  0.50311910  0.71023693  0.87078099  1
  C  C234  1  -0.00224229  0.28719499  0.37202202  1
  C  C235  1  0.01076449  0.61866476  0.36962919  1
  C  C236  1  -0.00540442  0.95879003  0.37046899  1
  C  C237  1  0.49664206  0.28715720  0.36684723  1
  C  C238  1  0.50161714  0.62369538  0.36732978  1
  C  C239  1  0.50767839  0.95556916  0.36405354  1
  C  C240  1  0.25303049  0.21224500  0.63018774  1
  C  C241  1  0.25528641  0.54905595  0.63476172  1
  C  C242  1  0.25263174  0.87796133  0.63074906  1
  C  C243  1  0.75118203  0.21027144  0.63746117  1
  C  C244  1  0.73874411  0.54725785  0.62697626  1
  C  C245  1  0.73985999  0.87268370  0.62939614  1
  C  C246  1  0.24805149  0.12292445  0.12610305  1
  C  C247  1  0.24476645  0.45849193  0.12656332  1
  C  C248  1  0.24164826  0.78865173  0.13286461  1
  C  C249  1  0.75100901  0.12680775  0.13280390  1
  C  C250  1  0.75075138  0.45673355  0.12882533  1
  C  C251  1  0.74681494  0.79150310  0.13017937  1
  C  C252  1  0.24599381  0.20968649  0.86799854  1
  C  C253  1  0.25453728  0.54279176  0.87029202  1
  C  C254  1  0.25645313  0.87446093  0.87084203  1
  C  C255  1  0.75564498  0.21409656  0.87132021  1
  C  C256  1  0.75146461  0.54496375  0.86610520  1
  C  C257  1  0.75209307  0.88023339  0.86817749  1
  C  C258  1  0.24059727  0.12283039  0.36442509  1
  C  C259  1  0.24362532  0.45151654  0.36455632  1
  C  C260  1  0.25448227  0.78854748  0.36608389  1
  C  C261  1  0.75324243  0.11874926  0.37364072  1
  C  C262  1  0.74789424  0.46094716  0.37138375  1
  C  C263  1  0.77917391  0.78201239  0.38850818  1
  C  C264  1  0.52518795  0.41097550  0.96874330  1
  C  C265  1  0.98639224  0.73773136  0.96178558  1
  C  C266  1  0.43959293  0.92767527  0.04346038  1
  C  C267  1  0.47146506  0.25387856  0.03868932  1
  C  C268  1  0.02992497  0.25567237  0.03578126  1
  C  C269  1  0.56165390  0.07136670  0.54105439  1
  C  C270  1  0.72583776  0.91304154  0.96143456  1
  C  C271  1  0.22026615  0.09487879  0.45974511  1
  C  C272  1  0.03985467  0.25466669  0.46274572  1
  C  C273  1  0.77733956  0.24115150  0.96800856  1
  C  C274  1  0.51380586  0.25948559  0.46377718  1
  C  C275  1  0.26765549  0.57573474  0.53805690  1
  C  C276  1  0.54264913  0.92551174  0.45720978  1
  C  C277  1  0.07667864  0.39944064  0.94828207  1
  C  C278  1  0.93564575  0.59431692  0.04018092  1
  C  C279  1  0.56239237  0.40438304  0.54935254  1
  C  C280  1  0.99866823  0.40471232  0.96597808  1
  C  C281  1  0.50760645  0.07669765  0.96736345  1
  C  C282  1  0.95832056  0.25478977  0.46433015  1
  C  C283  1  0.80011694  0.57341634  0.95521821  1
  C  C284  1  0.18243956  0.90759010  0.54914805  1
  C  C285  1  0.21332618  0.42590440  0.03247848  1
  C  C286  1  0.01596344  0.58982027  0.03076569  1
  C  C287  1  0.89837408  0.74362437  0.52383879  1
  C  C288  1  0.67534509  0.76206255  0.04928990  1
  C  C289  1  0.73403132  0.24214628  0.54291549  1
  C  C290  1  0.48031314  0.59314446  0.46169081  1
  C  C291  1  0.29488768  0.42807238  0.03737336  1
  C  C292  1  0.68142328  0.42817663  0.45331872  1
  C  C293  1  0.45497326  0.73565833  0.96228605  1
  C  C294  1  0.80387786  0.57541853  0.54214401  1
  C  C295  1  0.26231603  0.42697641  0.46130978  1
  C  C296  1  0.72379140  0.57967152  0.53119571  1
  C  C297  1  0.42865931  0.07111912  0.95119976  1
  C  C298  1  0.83498023  0.75488098  0.47850396  1
  C  C299  1  0.29781575  0.75744173  0.04746378  1
  C  C300  1  0.69663359  0.23826168  0.96011552  1
  C  C301  1  0.52568751  0.58840024  0.03632356  1
  C  C302  1  0.53638059  0.73795525  0.96646149  1
  C  C303  1  0.75243631  0.75034274  0.48415089  1
  C  C304  1  0.68317570  0.42586804  0.04630340  1
  C  C305  1  0.44809838  0.73882344  0.54072546  1
  C  C306  1  0.06905309  0.07408921  0.94969045  1
  C  C307  1  0.05980660  0.92905850  0.45357610  1
  C  C308  1  0.95661611  0.92431362  0.04030607  1
  C  C309  1  0.48106394  0.40644949  0.54113659  1
  C  C310  1  0.52960108  0.73910479  0.53997226  1
  C  C311  1  0.21746258  0.09221252  0.03295182  1
  N  N312  1  0.77230258  0.08501359  0.46672941  1
  N  N313  1  0.44676857  0.40811893  0.95790989  1
  N  N314  1  0.70637447  0.09217689  0.04484832  1
  N  N315  1  0.76083263  0.42123444  0.03571404  1
  N  N316  1  0.32096252  0.76026486  0.44890077  1
  N  N317  1  0.44846026  0.58751331  0.03699641  1
  N  N318  1  0.51640040  0.92404120  0.03466191  1
  N  N319  1  0.72319254  0.57641911  0.96154831  1
  N  N320  1  0.03408571  0.07738564  0.54021316  1
  N  N321  1  0.25936294  0.90910987  0.53559774  1
  N  N322  1  0.75229684  0.75697028  0.03631905  1
  N  N323  1  0.18959597  0.57291414  0.54856486  1
  N  N324  1  0.21192459  0.24622339  0.95886566  1
  N  N325  1  0.98663445  0.41194636  0.53445445  1
  N  N326  1  0.79076084  0.91905867  0.54883858  1
  N  N327  1  0.31215947  0.90638943  0.95461573  1
  N  N328  1  0.03352007  0.58910129  0.46291983  1
  N  N329  1  0.95755794  0.07682011  0.54406769  1
  N  N330  1  0.54858734  0.25675787  0.04313017  1
  N  N331  1  0.29896195  0.09512829  0.45249054  1
  N  N332  1  0.18388402  0.42945191  0.45333333  1
  N  N333  1  0.28793688  0.24620501  0.95698726  1
  N  N334  1  0.81232172  0.23936044  0.55119124  1
  N  N335  1  0.95276357  0.25727939  0.03831229  1
  N  N336  1  0.99300224  0.07861448  0.96579000  1
  N  N337  1  0.78837406  0.09336435  0.04252877  1
  N  N338  1  0.48364838  0.07409163  0.53108025  1
  N  N339  1  0.06352309  0.39837394  0.53945382  1
  N  N340  1  0.95565925  0.59082560  0.45774944  1
  N  N341  1  0.80316480  0.91019755  0.95831982  1
  N  N342  1  0.55893943  0.59431197  0.45494163  1
  N  N343  1  0.43579428  0.26191558  0.45190624  1
  N  N344  1  0.06486606  0.73561049  0.95464096  1
  N  N345  1  0.70781071  0.91820459  0.54252976  1
  N  N346  1  0.24469756  0.75620825  0.45968618  1
  N  N347  1  0.21624317  0.57366882  0.96250244  1
  N  N348  1  0.69536272  0.09979102  0.46112053  1
  N  N349  1  0.23521140  0.91065537  0.96425948  1
  N  N350  1  0.29644590  0.09198259  0.03631072  1
  N  N351  1  0.98157418  0.92511086  0.46451733  1
  N  N352  1  -0.02212862  0.75269492  0.51616061  1
  N  N353  1  0.22797798  0.24152414  0.53483088  1
  N  N354  1  0.30404681  0.23970244  0.54063260  1
  N  N355  1  0.46317525  0.92682232  0.45394779  1
  N  N356  1  0.03589603  0.92379822  0.04027008  1
  N  N357  1  0.21974221  0.75358123  0.03777264  1
  N  N358  1  0.75885987  0.42506882  0.46461372  1
  N  N359  1  0.29217888  0.57608878  0.96181872  1
  N  N360  1  0.06398886  0.05851697  0.59590113  1
  N  N361  1  0.07652835  0.38495278  0.59892498  1
  N  N362  1  0.01700136  0.73062786  0.56692872  1
  N  N363  1  0.57067464  0.05559763  0.60090842  1
  N  N364  1  0.57538653  0.38839745  0.60987091  1
  N  N365  1  0.55560320  0.72306401  0.59602921  1
  N  N366  1  0.43661863  0.27440381  0.09117775  1
  N  N367  1  0.42708338  0.60923286  0.09486134  1
  N  N368  1  0.42304487  0.94600468  0.10244482  1
  N  N369  1  0.93524676  0.27847983  0.09728160  1
  N  N370  1  0.92670859  0.61310062  0.10132399  1
  N  N371  1  0.92822880  0.94313431  0.09636204  1
  N  N372  1  0.42680559  0.05163412  0.89129675  1
  N  N373  1  0.43582008  0.38537865  0.90043714  1
  N  N374  1  0.43529736  0.71945476  0.90428494  1
  N  N375  1  0.94449395  0.05624894  0.91927059  1
  N  N376  1  0.95257249  0.38925420  0.91429397  1
  N  N377  1  0.94859845  0.72229390  0.90798755  1
  N  N378  1  0.06334330  0.27410280  0.40715645  1
  N  N379  1  0.06841790  0.60842617  0.41049541  1
  N  N380  1  0.06776373  0.94750390  0.39450504  1
  N  N381  1  0.55192126  0.27480796  0.41086818  1
  N  N382  1  0.57044099  0.61336560  0.39634833  1
  N  N383  1  0.57065507  0.94213423  0.40121275  1
  N  N384  1  0.32093653  0.22186198  0.59993521  1
  N  N385  1  0.30938498  0.56108873  0.59042691  1
  N  N386  1  0.30362486  0.88757047  0.58489499  1
  N  N387  1  0.82135119  0.22014744  0.61052314  1
  N  N388  1  0.81152426  0.55563600  0.60288142  1
  N  N389  1  0.80703621  0.88788094  0.60100033  1
  N  N390  1  0.18647674  0.11057177  0.08820738  1
  N  N391  1  0.18353997  0.44494855  0.08945961  1
  N  N392  1  0.18611189  0.77335937  0.09177265  1
  N  N393  1  0.68704617  0.10550591  0.10422458  1
  N  N394  1  0.67706369  0.44646919  0.10461335  1
  N  N395  1  0.67187263  0.78221232  0.10779525  1
  N  N396  1  0.18423762  0.22377425  0.90386537  1
  N  N397  1  0.19118054  0.55296930  0.90591011  1
  N  N398  1  0.20073355  0.89117315  0.91169933  1
  N  N399  1  0.68459859  0.22143644  0.89878505  1
  N  N400  1  0.69265784  0.55820423  0.90475232  1
  N  N401  1  0.69208283  0.89485808  0.90763065  1
  N  N402  1  0.30969390  0.11248050  0.39294592  1
  N  N403  1  0.30027759  0.44094607  0.40747637  1
  N  N404  1  0.32674316  0.77834361  0.39010254  1
  N  N405  1  0.80921018  0.10719962  0.41557889  1
  N  N406  1  0.80083045  0.44874066  0.41522820  1
  N  N407  1  0.84922437  0.77477136  0.41777302  1
  N  N408  1  0.42546683  0.27959261  0.39252079  1
  N  N409  1  0.44338367  0.61086332  0.40826143  1
  N  N410  1  0.44183966  0.94905714  0.39755103  1
  N  N411  1  0.93322842  0.27501562  0.40654305  1
  N  N412  1  0.94223508  0.60732056  0.39908716  1
  N  N413  1  0.94113522  0.94723260  0.41421398  1
  N  N414  1  0.06815958  0.05331296  0.89126978  1
  N  N415  1  0.07797184  0.38231754  0.88893614  1
  N  N416  1  0.07525993  0.71820352  0.89512069  1
  N  N417  1  0.55224483  0.05985281  0.91637795  1
  N  N418  1  0.56248692  0.39183883  0.91636478  1
  N  N419  1  0.56505931  0.72199359  0.90790254  1
  N  N420  1  0.06301815  0.27482280  0.08961058  1
  N  N421  1  0.05416261  0.60538309  0.08281144  1
  N  N422  1  0.05632580  0.94307511  0.09763074  1
  N  N423  1  0.56384386  0.27943995  0.10187486  1
  N  N424  1  0.55531191  0.60922542  0.09065366  1
  N  N425  1  0.55012651  0.94121679  0.09060516  1
  N  N426  1  0.44355481  0.06091538  0.58495580  1
  N  N427  1  0.44634918  0.39142563  0.59672391  1
  N  N428  1  0.42572667  0.72211417  0.60052544  1
  N  N429  1  0.93772368  0.05710393  0.60209993  1
  N  N430  1  0.95017078  0.38832357  0.58447710  1
  N  N431  1  0.88977996  0.72216900  0.58290032  1
  N  N432  1  0.18282457  0.11122053  0.40610583  1
  N  N433  1  0.17373433  0.44448503  0.39257126  1
  N  N434  1  0.20296096  0.77610306  0.41080648  1
  N  N435  1  0.68294976  0.11064123  0.40093269  1
  N  N436  1  0.67417319  0.44863655  0.39496225  1
  N  N437  1  0.72027869  0.76749872  0.42829166  1
  N  N438  1  0.31078447  0.22327775  0.90078696  1
  N  N439  1  0.31769118  0.55715352  0.90460783  1
  N  N440  1  0.32638464  0.88342270  0.89834651  1
  N  N441  1  0.81301778  0.22679741  0.91459914  1
  N  N442  1  0.82033105  0.55462840  0.89731798  1
  N  N443  1  0.81962028  0.88955112  0.89876073  1
  N  N444  1  0.31424026  0.11144525  0.09448396  1
  N  N445  1  0.31307355  0.44727044  0.09472692  1
  N  N446  1  0.31259420  0.77854655  0.10563542  1
  N  N447  1  0.81235156  0.12260127  0.09406037  1
  N  N448  1  0.80349631  0.44314989  0.08532054  1
  N  N449  1  0.79742627  0.77823474  0.08512158  1
  N  N450  1  0.19504170  0.22412439  0.58984319  1
  N  N451  1  0.18397559  0.55666913  0.60888959  1
  N  N452  1  0.17796150  0.88973086  0.60851790  1
  N  N453  1  0.69504093  0.22485892  0.59557450  1
  N  N454  1  0.68445633  0.56282222  0.58227302  1
  N  N455  1  0.67980995  0.88628143  0.59164626  1
  Cl  Cl456  1  0.25340761  0.05359606  0.60101408  1
  Cl  Cl457  1  0.26093791  0.38792619  0.60614170  1
  Cl  Cl458  1  0.20337527  0.73119057  0.59322766  1
  Cl  Cl459  1  0.75436143  0.06286751  0.62174172  1
  Cl  Cl460  1  0.77045393  0.39939088  0.60363510  1
  Cl  Cl461  1  0.72770240  0.72184876  0.63355894  1
  Cl  Cl462  1  0.25074772  0.27900813  0.11357779  1
  Cl  Cl463  1  0.23993569  0.60652902  0.12266684  1
  Cl  Cl464  1  0.24060412  0.95060416  0.12653848  1
  Cl  Cl465  1  0.74963907  0.28340050  0.12524415  1
  Cl  Cl466  1  0.73921480  0.62054220  0.12073037  1
  Cl  Cl467  1  0.73846867  0.94868543  0.11523422  1
  Cl  Cl468  1  0.24564167  0.04803223  0.86764543  1
  Cl  Cl469  1  0.25824920  0.38980074  0.87194386  1
  Cl  Cl470  1  0.25626670  0.72125274  0.86272923  1
  Cl  Cl471  1  0.75179346  0.06158777  0.90316595  1
  Cl  Cl472  1  0.76195389  0.39409865  0.89685508  1
  Cl  Cl473  1  0.76326031  0.72765496  0.90091901  1
  Cl  Cl474  1  0.24478144  0.28092317  0.37667241  1
  Cl  Cl475  1  0.25468561  0.61056123  0.39154683  1
  Cl  Cl476  1  0.26011650  0.93722931  0.39610408  1
  Cl  Cl477  1  0.73755942  0.27903688  0.39373102  1
  Cl  Cl478  1  0.75744577  0.61078101  0.38200207  1
  Cl  Cl479  1  0.75649723  0.92757510  0.40014945  1
  Cl  Cl480  1  0.01084713  0.22596725  0.61763681  1
  Cl  Cl481  1  0.00058781  0.55501577  0.61337595  1
  Cl  Cl482  1  -0.01137607  0.89210451  0.61135487  1
  Cl  Cl483  1  0.50851602  0.21913385  0.60866908  1
  Cl  Cl484  1  0.49602497  0.56029320  0.60947509  1
  Cl  Cl485  1  0.49104327  0.89683534  0.59843160  1
  Cl  Cl486  1  -0.00486082  0.10836810  0.10497385  1
  Cl  Cl487  1  -0.01083356  0.44036799  0.11539114  1
  Cl  Cl488  1  -0.01403645  0.77134193  0.10655906  1
  Cl  Cl489  1  0.50325193  0.11515420  0.12015085  1
  Cl  Cl490  1  0.49562737  0.44681025  0.12050496  1
  Cl  Cl491  1  0.49316337  0.78215139  0.12988110  1
  Cl  Cl492  1  -0.00109070  0.21946923  0.88542405  1
  Cl  Cl493  1  0.00641398  0.54964756  0.88007526  1
  Cl  Cl494  1  0.00835302  0.89125637  0.88386535  1
  Cl  Cl495  1  0.49431450  0.22603115  0.87587870  1
  Cl  Cl496  1  0.50474869  0.55584274  0.87880748  1
  Cl  Cl497  1  0.50741030  0.89279759  0.87053053  1
  Cl  Cl498  1  -0.00705820  0.10735476  0.38045791  1
  Cl  Cl499  1  -0.01749479  0.43379096  0.39295569  1
  Cl  Cl500  1  0.02733319  0.77311157  0.38339851  1
  Cl  Cl501  1  0.49792131  0.11429631  0.39095375  1
  Cl  Cl502  1  0.48482222  0.44511918  0.38818170  1
  Cl  Cl503  1  0.52945824  0.77795077  0.39312349  1
  Cl  Cl504  1  0.36607823  0.14726918  0.74388167  1
  Cl  Cl505  1  0.36453993  0.48256674  0.75095003  1
  Cl  Cl506  1  0.36416200  0.81579778  0.74539603  1
  Cl  Cl507  1  0.86180771  0.14956063  0.75131015  1
  Cl  Cl508  1  0.85742356  0.48318475  0.74437578  1
  Cl  Cl509  1  0.86130603  0.81476874  0.74594640  1
  Cl  Cl510  1  0.13961348  0.18118879  0.23813536  1
  Cl  Cl511  1  0.12414897  0.52249024  0.26423901  1
  Cl  Cl512  1  0.13755639  0.85058957  0.25276966  1
  Cl  Cl513  1  0.63760818  0.18304321  0.26063932  1
  Cl  Cl514  1  0.63466372  0.51734479  0.25265460  1
  Cl  Cl515  1  0.63663654  0.85107708  0.24939306  1
  Cl  Cl516  1  0.14298240  0.14797694  0.74687128  1
  Cl  Cl517  1  0.14068579  0.48175251  0.74195380  1
  Cl  Cl518  1  0.13844495  0.81946219  0.74599064  1
  Cl  Cl519  1  0.63833182  0.14887608  0.76143744  1
  Cl  Cl520  1  0.63780496  0.47948950  0.74516034  1
  Cl  Cl521  1  0.64035270  0.81482446  0.75627767  1
  Cl  Cl522  1  0.36200008  0.18680851  0.25835716  1
  Cl  Cl523  1  0.34900873  0.51491705  0.24566744  1
  Cl  Cl524  1  0.36507738  0.85475129  0.25756401  1
  Cl  Cl525  1  0.85566533  0.18225059  0.25236959  1
  Cl  Cl526  1  0.85764633  0.51823795  0.24819747  1
  Cl  Cl527  1  0.85340277  0.84992671  0.25828061  1
  Cl  Cl528  1  0.11495319  0.31647441  0.74944678  1
  Cl  Cl529  1  0.11049679  0.65050221  0.74460264  1
  Cl  Cl530  1  0.10891918  0.98328761  0.74846136  1
  Cl  Cl531  1  0.61548358  0.31554089  0.74962869  1
  Cl  Cl532  1  0.60988892  0.65215397  0.75452654  1
  Cl  Cl533  1  0.61775529  0.98247658  0.73527176  1
  Cl  Cl534  1  0.38404095  0.02035191  0.25302702  1
  Cl  Cl535  1  0.38503219  0.35066197  0.25217581  1
  Cl  Cl536  1  0.38460068  0.68579646  0.25338360  1
  Cl  Cl537  1  0.88544963  0.01759371  0.24660553  1
  Cl  Cl538  1  0.88998114  0.34524477  0.25247166  1
  Cl  Cl539  1  0.88618768  0.68460150  0.25677710  1
  Cl  Cl540  1  0.39236982  0.31679504  0.75018713  1
  Cl  Cl541  1  0.38373758  0.64882978  0.74147544  1
  Cl  Cl542  1  0.39512197  0.98445521  0.75117770  1
  Cl  Cl543  1  0.89197386  0.31645095  0.74295157  1
  Cl  Cl544  1  0.89040592  0.65018783  0.73990616  1
  Cl  Cl545  1  0.88386981  0.98108639  0.74712593  1
  Cl  Cl546  1  0.10749971  0.01630461  0.25626363  1
  Cl  Cl547  1  0.10940395  0.35276624  0.25638742  1
  Cl  Cl548  1  0.10325549  0.68658451  0.24388586  1
  Cl  Cl549  1  0.60826281  0.01800898  0.24782648  1
  Cl  Cl550  1  0.60659477  0.35201600  0.24921939  1
  Cl  Cl551  1  0.60716463  0.68220602  0.25171307  1
