# generated using pymatgen
data_H8PbC4(N3Cl2)2
_symmetry_space_group_name_H-M   'P 1'
_cell_length_a   16.62318409
_cell_length_b   22.50768994
_cell_length_c   21.59146343
_cell_angle_alpha   89.99836299
_cell_angle_beta   90.00605131
_cell_angle_gamma   90.00286698
_symmetry_Int_Tables_number   1
_chemical_formula_structural   H8PbC4(N3Cl2)2
_chemical_formula_sum   'H192 Pb24 C96 N144 Cl96'
_cell_volume   8078.43460868
_cell_formula_units_Z   24
loop_
 _symmetry_equiv_pos_site_id
 _symmetry_equiv_pos_as_xyz
  1  'x, y, z'
loop_
 _atom_site_type_symbol
 _atom_site_label
 _atom_site_symmetry_multiplicity
 _atom_site_fract_x
 _atom_site_fract_y
 _atom_site_fract_z
 _atom_site_occupancy
  H  H0  1  0.00587030  0.02810551  0.67613866  1
  H  H1  1  -0.00111428  0.36776099  0.68159162  1
  H  H2  1  -0.00346479  0.69988736  0.68022654  1
  H  H3  1  0.49545150  0.02789534  0.67916209  1
  H  H4  1  0.50638649  0.36691495  0.67964060  1
  H  H5  1  0.50339256  0.69761363  0.68041542  1
  H  H6  1  -0.00512446  0.30356018  0.17742794  1
  H  H7  1  0.00471853  0.63560758  0.18042400  1
  H  H8  1  -0.00087684  0.96924280  0.18143763  1
  H  H9  1  0.49869473  0.30156479  0.17980934  1
  H  H10  1  0.49327802  0.63569540  0.17990093  1
  H  H11  1  0.50057296  0.97116844  0.17852205  1
  H  H12  1  -0.00706683  0.03145221  0.81892422  1
  H  H13  1  -0.00948749  0.36268254  0.82311409  1
  H  H14  1  -0.00498940  0.69788862  0.81878226  1
  H  H15  1  0.50940674  0.03018333  0.81877876  1
  H  H16  1  0.50905328  0.36497628  0.81961639  1
  H  H17  1  0.50648155  0.69769089  0.81874124  1
  H  H18  1  -0.01398649  0.30308183  0.32182723  1
  H  H19  1  0.00864909  0.63624063  0.32450697  1
  H  H20  1  -0.00253474  0.97023592  0.32165893  1
  H  H21  1  0.51514537  0.30066642  0.31851063  1
  H  H22  1  0.49351876  0.63698324  0.31759134  1
  H  H23  1  0.49201836  0.96745920  0.31863107  1
  H  H24  1  0.23685989  0.20106660  0.67403794  1
  H  H25  1  0.25207759  0.53157466  0.68199116  1
  H  H26  1  0.25240755  0.86424388  0.67654844  1
  H  H27  1  0.75660231  0.19523227  0.68183136  1
  H  H28  1  0.74369526  0.53283160  0.67901474  1
  H  H29  1  0.76299522  0.86584315  0.67534329  1
  H  H30  1  0.25223968  0.13583825  0.18065605  1
  H  H31  1  0.23935105  0.46679599  0.17529835  1
  H  H32  1  0.24396583  0.80384885  0.18043250  1
  H  H33  1  0.75162445  0.13665926  0.17873066  1
  H  H34  1  0.75270756  0.46794702  0.18359104  1
  H  H35  1  0.75485987  0.80356602  0.17834428  1
  H  H36  1  0.26446859  0.19968911  0.82314916  1
  H  H37  1  0.25385927  0.52912037  0.81939596  1
  H  H38  1  0.24759269  0.86350722  0.82052373  1
  H  H39  1  0.73889417  0.19793616  0.81981060  1
  H  H40  1  0.75516760  0.53228084  0.81893848  1
  H  H41  1  0.75670134  0.86302769  0.82133874  1
  H  H42  1  0.26142679  0.13683679  0.32229878  1
  H  H43  1  0.24671154  0.47108295  0.32245726  1
  H  H44  1  0.24318028  0.80268378  0.32256354  1
  H  H45  1  0.74687783  0.13422391  0.32155818  1
  H  H46  1  0.74854792  0.46921655  0.31845025  1
  H  H47  1  0.75776621  0.80546467  0.32126963  1
  H  H48  1  0.12683319  0.05630497  0.60348036  1
  H  H49  1  0.11527324  0.38610457  0.60507738  1
  H  H50  1  0.12947374  0.71928386  0.61774920  1
  H  H51  1  0.63074291  0.04855005  0.61979516  1
  H  H52  1  0.61422256  0.39246058  0.59606604  1
  H  H53  1  0.62517725  0.72354894  0.60768557  1
  H  H54  1  0.36853411  0.28272681  0.11350772  1
  H  H55  1  0.38194020  0.61002923  0.10014722  1
  H  H56  1  0.37337941  0.94608644  0.11144280  1
  H  H57  1  0.87291803  0.27572403  0.10584158  1
  H  H58  1  0.87856338  0.61307517  0.10912280  1
  H  H59  1  0.87608025  0.94665133  0.10812698  1
  H  H60  1  0.37851346  0.05365042  0.88404095  1
  H  H61  1  0.37033423  0.38018239  0.87323829  1
  H  H62  1  0.37818824  0.72019891  0.88561174  1
  H  H63  1  0.88387601  0.05453095  0.90103776  1
  H  H64  1  0.88011474  0.39321806  0.90332631  1
  H  H65  1  0.88218316  0.72226636  0.89741655  1
  H  H66  1  0.12506705  0.28334026  0.37845269  1
  H  H67  1  0.11905062  0.60697437  0.40419840  1
  H  H68  1  0.13045764  0.94764532  0.38356660  1
  H  H69  1  0.62146598  0.27499717  0.40295500  1
  H  H70  1  0.62219059  0.61459920  0.38591107  1
  H  H71  1  0.62673751  0.94739316  0.38217070  1
  H  H72  1  0.37532006  0.21681386  0.62193488  1
  H  H73  1  0.37793874  0.55510761  0.61123741  1
  H  H74  1  0.36812346  0.88987548  0.60099494  1
  H  H75  1  0.87700133  0.22342551  0.60831192  1
  H  H76  1  0.88087562  0.54916905  0.62177904  1
  H  H77  1  0.86739475  0.89288909  0.59192626  1
  H  H78  1  0.11928574  0.11635195  0.11760112  1
  H  H79  1  0.13154715  0.44225910  0.09389257  1
  H  H80  1  0.11953144  0.77883920  0.11093092  1
  H  H81  1  0.61885264  0.11396469  0.11779640  1
  H  H82  1  0.62660498  0.44745649  0.11580170  1
  H  H83  1  0.62156038  0.78146221  0.11639659  1
  H  H84  1  0.12694716  0.21679799  0.87775885  1
  H  H85  1  0.11976114  0.54997498  0.88273450  1
  H  H86  1  0.12830821  0.88895950  0.89573875  1
  H  H87  1  0.63218903  0.22363515  0.90317541  1
  H  H88  1  0.62175925  0.55374129  0.88338962  1
  H  H89  1  0.62574478  0.88621871  0.88389328  1
  H  H90  1  0.36397189  0.10734109  0.40933716  1
  H  H91  1  0.38077058  0.45028477  0.38389986  1
  H  H92  1  0.37476459  0.78090636  0.38749628  1
  H  H93  1  0.87133795  0.10965455  0.39281115  1
  H  H94  1  0.88198571  0.44743246  0.38227155  1
  H  H95  1  0.87009456  0.77845914  0.40138481  1
  H  H96  1  0.37538549  0.28256224  0.37462743  1
  H  H97  1  0.37320626  0.61278739  0.39133931  1
  H  H98  1  0.37904129  0.94287067  0.40051423  1
  H  H99  1  0.87959550  0.27511590  0.40682668  1
  H  H100  1  0.87266889  0.61828865  0.38420619  1
  H  H101  1  0.88229180  0.94347062  0.39997995  1
  H  H102  1  0.13046728  0.05093586  0.87304642  1
  H  H103  1  0.12699882  0.38309533  0.87975917  1
  H  H104  1  0.13024855  0.71685348  0.87696040  1
  H  H105  1  0.62654727  0.05558486  0.89738520  1
  H  H106  1  0.61617717  0.38947728  0.90216386  1
  H  H107  1  0.62723798  0.72395026  0.89304770  1
  H  H108  1  0.12241933  0.28186734  0.11017779  1
  H  H109  1  0.12726701  0.61063442  0.10647412  1
  H  H110  1  0.12550108  0.94667803  0.11188528  1
  H  H111  1  0.61802352  0.27712212  0.10765861  1
  H  H112  1  0.63005145  0.61602284  0.12070287  1
  H  H113  1  0.62291644  0.94739291  0.10681020  1
  H  H114  1  0.38435742  0.05640332  0.59911668  1
  H  H115  1  0.36911757  0.38342487  0.62072076  1
  H  H116  1  0.37655720  0.72159387  0.61329224  1
  H  H117  1  0.87819842  0.05155017  0.61027733  1
  H  H118  1  0.86677055  0.38788821  0.61877022  1
  H  H119  1  0.88072362  0.72350476  0.60474876  1
  H  H120  1  0.12101408  0.11748298  0.37508074  1
  H  H121  1  0.13374137  0.44305055  0.40058330  1
  H  H122  1  0.12709977  0.77697322  0.40046219  1
  H  H123  1  0.62342721  0.11022011  0.39289542  1
  H  H124  1  0.63366134  0.44482801  0.39674014  1
  H  H125  1  0.62242268  0.78371370  0.37910402  1
  H  H126  1  0.37245743  0.22296237  0.90482717  1
  H  H127  1  0.36815488  0.55506665  0.89770564  1
  H  H128  1  0.37668937  0.88589476  0.88558761  1
  H  H129  1  0.87811690  0.21853300  0.87521787  1
  H  H130  1  0.86931195  0.55577628  0.89952166  1
  H  H131  1  0.87384462  0.88972877  0.89840282  1
  H  H132  1  0.36841292  0.11411044  0.10490895  1
  H  H133  1  0.37746701  0.44876426  0.12113189  1
  H  H134  1  0.36839259  0.77976088  0.10915263  1
  H  H135  1  0.86736356  0.10909084  0.10154050  1
  H  H136  1  0.87642276  0.44769979  0.11291847  1
  H  H137  1  0.86868412  0.77666549  0.09850273  1
  H  H138  1  0.13045755  0.22643552  0.58991786  1
  H  H139  1  0.12942664  0.55571961  0.60818993  1
  H  H140  1  0.11998308  0.88340280  0.61604763  1
  H  H141  1  0.62738830  0.21841813  0.61675238  1
  H  H142  1  0.63375789  0.55756726  0.59920573  1
  H  H143  1  0.62298261  0.88167631  0.62488642  1
  H  H144  1  0.45367856  0.06854368  0.49683097  1
  H  H145  1  0.66975525  0.42472911  0.00173613  1
  H  H146  1  0.64874420  0.75307333  0.49121586  1
  H  H147  1  0.31268247  0.08707427  -0.00480794  1
  H  H148  1  0.42149508  0.75041326  0.99542143  1
  H  H149  1  0.66794516  0.24763695  0.50449855  1
  H  H150  1  0.82171605  0.07951650  0.49614005  1
  H  H151  1  0.95173070  0.42009808  1.00502284  1
  H  H152  1  0.80255227  0.07992804  -0.00130554  1
  H  H153  1  0.05839645  0.40964233  0.49372563  1
  H  H154  1  0.08585857  0.24840015  0.00077273  1
  H  H155  1  0.60160544  0.58759224  0.01282501  1
  H  H156  1  0.95763285  0.25270327  0.50678751  1
  H  H157  1  0.92318657  0.24969884  0.00119321  1
  H  H158  1  0.42786887  0.58534985  0.49942952  1
  H  H159  1  0.04887791  0.59272624  0.50663989  1
  H  H160  1  0.41477821  0.91919162  0.00515521  1
  H  H161  1  0.11352901  0.08110567  0.98724840  1
  H  H162  1  0.28351259  0.08321988  0.50719068  1
  H  H163  1  0.35851607  0.24769482  0.50666898  1
  H  H164  1  0.34871640  0.41362060  0.48822724  1
  H  H165  1  0.07470158  0.08552708  0.50073957  1
  H  H166  1  0.38247546  0.41110277  0.98849214  1
  H  H167  1  0.94478637  0.74679082  1.00633632  1
  H  H168  1  0.79968706  0.75239170  -0.00367521  1
  H  H169  1  0.54662013  0.25076511  0.50741800  1
  H  H170  1  0.89716707  0.58304610  0.49101853  1
  H  H171  1  0.69693132  0.41858104  0.50381973  1
  H  H172  1  0.70521448  0.25091260  1.00708777  1
  H  H173  1  0.07847211  0.91787836  0.00278082  1
  H  H174  1  0.56475693  0.24838879  -0.00376556  1
  H  H175  1  0.33562315  0.75334222  0.49393817  1
  H  H176  1  0.93908071  0.75020904  0.49420622  1
  H  H177  1  0.54645706  0.41295787  1.00892675  1
  H  H178  1  0.57595057  0.91697585  -0.00188968  1
  H  H179  1  0.60054065  0.08487939  0.51554824  1
  H  H180  1  0.30382584  0.58069833  1.00468634  1
  H  H181  1  0.95127623  0.08017617  1.00744531  1
  H  H182  1  0.80290558  0.75859964  0.50493675  1
  H  H183  1  0.82927350  0.42823717  -0.00072769  1
  H  H184  1  0.44713055  0.58205228  -0.00654689  1
  H  H185  1  0.53965029  0.42134247  0.49655949  1
  H  H186  1  0.10663766  0.74536345  0.99070858  1
  H  H187  1  0.20211672  0.42691467  0.50440933  1
  H  H188  1  0.63745305  0.91390880  0.51008224  1
  H  H189  1  0.14812038  0.91369555  0.50228435  1
  H  H190  1  0.82055693  0.24307122  0.50233035  1
  H  H191  1  0.69721648  0.58481632  0.49245604  1
  Pb  Pb192  1  0.25640847  0.04960161  0.74147929  1
  Pb  Pb193  1  0.25081981  0.37997370  0.73957077  1
  Pb  Pb194  1  0.25161818  0.71316251  0.74834182  1
  Pb  Pb195  1  0.75198418  0.04534290  0.75676511  1
  Pb  Pb196  1  0.74934844  0.38010185  0.75385295  1
  Pb  Pb197  1  0.75504669  0.71662777  0.74891877  1
  Pb  Pb198  1  0.24756932  0.28771127  0.24870447  1
  Pb  Pb199  1  0.25022641  0.62037769  0.24770556  1
  Pb  Pb200  1  0.24689541  0.95123777  0.25398773  1
  Pb  Pb201  1  0.74841262  0.28537792  0.25552714  1
  Pb  Pb202  1  0.75063406  0.62087862  0.25098738  1
  Pb  Pb203  1  0.74955665  0.95445519  0.25011079  1
  Pb  Pb204  1  0.00308593  0.21460680  0.74312904  1
  Pb  Pb205  1  0.00132628  0.54619980  0.74694527  1
  Pb  Pb206  1  0.00417123  0.88232058  0.75061980  1
  Pb  Pb207  1  0.50513660  0.21470405  0.75467645  1
  Pb  Pb208  1  0.50290033  0.54877329  0.75024291  1
  Pb  Pb209  1  0.49887114  0.87910222  0.75237619  1
  Pb  Pb210  1  -0.00286646  0.12007154  0.25007331  1
  Pb  Pb211  1  0.00161988  0.45378026  0.24604454  1
  Pb  Pb212  1  -0.00469528  0.78569315  0.25182844  1
  Pb  Pb213  1  0.49408883  0.11794993  0.25811731  1
  Pb  Pb214  1  0.50092204  0.45350964  0.25694989  1
  Pb  Pb215  1  0.49919848  0.78715550  0.24777470  1
  C  C216  1  0.00419732  0.04513552  0.62925194  1
  C  C217  1  -0.00615530  0.38043152  0.63338185  1
  C  C218  1  0.00201805  0.71376425  0.63242106  1
  C  C219  1  0.50361803  0.04363458  0.63195044  1
  C  C220  1  0.49640189  0.38113674  0.63221666  1
  C  C221  1  0.50199679  0.71349249  0.63326707  1
  C  C222  1  -0.00372624  0.28737062  0.12995559  1
  C  C223  1  0.00347257  0.62006837  0.13287282  1
  C  C224  1  0.00019566  0.95370819  0.13391751  1
  C  C225  1  0.49546685  0.28713716  0.13201043  1
  C  C226  1  0.50244277  0.62082579  0.13249926  1
  C  C227  1  0.49859196  0.95472192  0.13115467  1
  C  C228  1  0.00287061  0.04570205  0.86638886  1
  C  C229  1  -0.00117242  0.37874589  0.86993374  1
  C  C230  1  0.00285840  0.71212001  0.86649216  1
  C  C231  1  0.50496470  0.04589813  0.86621938  1
  C  C232  1  0.49808569  0.37859610  0.86721113  1
  C  C233  1  0.50408150  0.71360796  0.86609901  1
  C  C234  1  -0.00361594  0.28804428  0.36891628  1
  C  C235  1  -0.00000377  0.62038053  0.37170548  1
  C  C236  1  0.00333065  0.95401225  0.36855005  1
  C  C237  1  0.50383215  0.28609608  0.36559223  1
  C  C238  1  0.49656799  0.62124866  0.36499249  1
  C  C239  1  0.49927789  0.95326939  0.36631424  1
  C  C240  1  0.24840404  0.21481595  0.62687989  1
  C  C241  1  0.25307251  0.54681159  0.63430538  1
  C  C242  1  0.24606723  0.87949784  0.62924400  1
  C  C243  1  0.75419975  0.21149121  0.63442194  1
  C  C244  1  0.75262303  0.54644061  0.63136577  1
  C  C245  1  0.75006061  0.88026794  0.62853924  1
  C  C246  1  0.24709119  0.12206513  0.13271409  1
  C  C247  1  0.24967776  0.45270231  0.12799116  1
  C  C248  1  0.24421132  0.78765279  0.13335517  1
  C  C249  1  0.74632408  0.12067528  0.13168843  1
  C  C250  1  0.75191700  0.45415981  0.13540917  1
  C  C251  1  0.74871514  0.78806427  0.13104781  1
  C  C252  1  0.25433256  0.21286671  0.87076200  1
  C  C253  1  0.24708774  0.54446049  0.86674205  1
  C  C254  1  0.25069819  0.87918415  0.86776573  1
  C  C255  1  0.75012878  0.21285471  0.86687964  1
  C  C256  1  0.74862323  0.54684104  0.86664498  1
  C  C257  1  0.75230048  0.87931712  0.86826847  1
  C  C258  1  0.24907668  0.12184295  0.36907023  1
  C  C259  1  0.25408205  0.45506369  0.36967684  1
  C  C260  1  0.24866722  0.78707994  0.36993005  1
  C  C261  1  0.74733910  0.11822301  0.36898224  1
  C  C262  1  0.75510015  0.45378074  0.36579205  1
  C  C263  1  0.75038559  0.79032265  0.36884663  1
  C  C264  1  0.70925632  0.43260027  0.04101767  1
  C  C265  1  0.22914796  0.24225300  0.52971615  1
  C  C266  1  0.94225185  0.40290283  0.54221783  1
  C  C267  1  0.20564513  0.75853960  0.04096082  1
  C  C268  1  0.44724912  0.26216333  0.04048616  1
  C  C269  1  0.19515537  0.09796930  0.04222374  1
  C  C270  1  0.03874333  0.92766409  0.04143033  1
  C  C271  1  0.05451952  0.73714160  0.54180200  1
  C  C272  1  0.51669390  0.40374097  0.96515750  1
  C  C273  1  0.53635903  0.92694534  0.03758320  1
  C  C274  1  0.70509443  0.90887139  0.95764624  1
  C  C275  1  0.69433854  0.76258544  0.45638670  1
  C  C276  1  0.68707052  0.90547009  0.54192655  1
  C  C277  1  0.72965470  0.42816574  0.46125334  1
  C  C278  1  0.70745574  0.23960072  0.54376607  1
  C  C279  1  0.05216489  0.92488709  0.45767125  1
  C  C280  1  0.52854449  0.25988790  0.03646365  1
  C  C281  1  0.69262812  0.09049164  0.04277605  1
  C  C282  1  0.43573605  0.40148074  0.95488123  1
  C  C283  1  0.19477563  0.90549707  0.53799734  1
  C  C284  1  0.30966774  0.23920583  0.53922774  1
  C  C285  1  0.97327776  0.73922264  0.53562143  1
  C  C286  1  0.95732530  0.07458709  0.53752806  1
  C  C287  1  0.27619875  0.90830964  0.53436518  1
  C  C288  1  0.46249165  0.74010203  0.95762165  1
  C  C289  1  0.02338319  0.40219279  0.53561961  1
  C  C290  1  0.29573794  0.90750851  0.95858610  1
  C  C291  1  0.27497000  0.23850164  0.96744216  1
  C  C292  1  0.46013438  0.74183187  0.54154423  1
  C  C293  1  0.79132642  0.43361846  0.03991880  1
  C  C294  1  0.30994579  0.42743582  0.04091713  1
  C  C295  1  0.04142914  0.25951471  0.03828629  1
  C  C296  1  0.97723896  0.73739177  0.96364384  1
  C  C297  1  0.47768887  0.59332304  0.03643332  1
  C  C298  1  0.73403578  0.23983360  0.96325682  1
  C  C299  1  0.76750374  0.90916280  0.53174681  1
  C  C300  1  0.46453187  0.59502522  0.45902399  1
  C  C301  1  0.51956754  0.25988826  0.46233856  1
  C  C302  1  0.06334781  0.07070463  0.95406264  1
  C  C303  1  0.27142635  0.57079220  0.96206213  1
  C  C304  1  0.22992668  0.42541876  0.03166760  1
  C  C305  1  0.73112097  0.57283761  0.53369599  1
  C  C306  1  0.19471123  0.23615701  0.95823495  1
  C  C307  1  0.05895916  0.73626498  0.95613437  1
  C  C308  1  0.05826380  0.40913677  0.95656132  1
  C  C309  1  0.27622161  0.09659156  0.03574168  1
  C  C310  1  0.81175881  0.56869973  0.54282898  1
  C  C311  1  0.98222713  0.07104266  0.96405479  1
  N  N312  1  0.54390026  0.59472058  0.45728903  1
  N  N313  1  0.28344226  0.75830205  0.03928467  1
  N  N314  1  0.78243150  0.91015240  0.96356591  1
  N  N315  1  0.03950716  0.59376000  0.03851058  1
  N  N316  1  0.18331137  0.09580263  0.45351525  1
  N  N317  1  0.69903495  0.57206571  0.95762215  1
  N  N318  1  0.78710200  0.24192475  0.54211462  1
  N  N319  1  0.21796364  0.90899752  0.96304610  1
  N  N320  1  0.29372582  0.57352947  0.54123190  1
  N  N321  1  0.78382723  0.09318921  0.46117432  1
  N  N322  1  0.95945816  0.92713304  0.03986846  1
  N  N323  1  0.69371476  0.76005286  0.04275228  1
  N  N324  1  0.30644087  0.43197659  0.45812179  1
  N  N325  1  0.96154063  0.25776690  0.03771534  1
  N  N326  1  0.80872216  0.42849508  0.45630403  1
  N  N327  1  0.19271238  0.56983899  0.95691745  1
  N  N328  1  0.98154139  0.25883552  0.46311928  1
  N  N329  1  0.97990723  0.41113675  0.96371052  1
  N  N330  1  0.43654788  0.40098005  0.54365511  1
  N  N331  1  0.54180261  0.74113858  0.96060807  1
  N  N332  1  0.77525619  0.57297923  0.96286591  1
  N  N333  1  0.94464785  0.59897806  0.45973032  1
  N  N334  1  0.53807786  0.74216504  0.53849060  1
  N  N335  1  0.44162087  0.26071512  0.45217790  1
  N  N336  1  0.51399258  0.40372491  0.53621890  1
  N  N337  1  0.97512610  0.92315711  0.46432471  1
  N  N338  1  0.55006044  0.92796431  0.45623338  1
  N  N339  1  0.29396908  0.76066412  0.45910283  1
  N  N340  1  0.47432713  0.92673774  0.46244545  1
  N  N341  1  0.02218904  0.58605037  0.46420430  1
  N  N342  1  0.47951097  0.07689207  0.53936806  1
  N  N343  1  0.77136787  0.75857739  0.03804870  1
  N  N344  1  0.26006083  0.09162053  0.46335454  1
  N  N345  1  0.55790872  0.06563133  0.54380870  1
  N  N346  1  0.77128275  0.09012019  0.03823286  1
  N  N347  1  0.77359059  0.76049721  0.46307870  1
  N  N348  1  0.45803513  0.07363136  0.95709855  1
  N  N349  1  0.81247996  0.23795156  0.95421928  1
  N  N350  1  0.70526952  0.09319014  0.46243851  1
  N  N351  1  0.96334128  0.59463402  0.03927139  1
  N  N352  1  0.22830658  0.42135759  0.46163918  1
  N  N353  1  0.21682645  0.57354283  0.54023312  1
  N  N354  1  0.03662995  0.07621172  0.53695176  1
  N  N355  1  0.55653846  0.59531113  0.04479887  1
  N  N356  1  0.45653631  0.92619786  0.04024950  1
  N  N357  1  0.53435206  0.07402895  0.96123643  1
  N  N358  1  0.21613119  0.75988851  0.46492596  1
  N  N359  1  0.05860847  0.26174442  0.45471898  1
  N  N360  1  0.06604947  0.05763831  0.59337665  1
  N  N361  1  0.05449000  0.38818285  0.59379896  1
  N  N362  1  0.07130006  0.72229165  0.60033218  1
  N  N363  1  0.57253766  0.05463129  0.60367846  1
  N  N364  1  0.55176333  0.39405389  0.59039866  1
  N  N365  1  0.56415832  0.72398376  0.59687215  1
  N  N366  1  0.42767736  0.27843895  0.09812549  1
  N  N367  1  0.44366080  0.60884953  0.09099737  1
  N  N368  1  0.43363452  0.94435547  0.09762136  1
  N  N369  1  0.93382180  0.27616564  0.09389968  1
  N  N370  1  0.93944846  0.61065059  0.09773369  1
  N  N371  1  0.93721965  0.94323216  0.09781884  1
  N  N372  1  0.43855120  0.05637513  0.89825612  1
  N  N373  1  0.42630147  0.38595914  0.89380655  1
  N  N374  1  0.43783027  0.72350948  0.89992114  1
  N  N375  1  0.94564957  0.05570147  0.90892363  1
  N  N376  1  0.94190283  0.39070090  0.91088822  1
  N  N377  1  0.94359454  0.72240288  0.90738798  1
  N  N378  1  0.06726309  0.27792280  0.39559140  1
  N  N379  1  0.05734082  0.60922852  0.41271787  1
  N  N380  1  0.07204305  0.94330666  0.39949721  1
  N  N381  1  0.55950800  0.27510190  0.40929435  1
  N  N382  1  0.56185427  0.61093535  0.39844694  1
  N  N383  1  0.56727224  0.94411793  0.39678064  1
  N  N384  1  0.32017279  0.22232628  0.60052844  1
  N  N385  1  0.31724112  0.55722880  0.59954993  1
  N  N386  1  0.30712924  0.89261509  0.58923781  1
  N  N387  1  0.81585775  0.22122817  0.59715810  1
  N  N388  1  0.82419367  0.55314099  0.60221928  1
  N  N389  1  0.80547847  0.89392922  0.58394934  1
  N  N390  1  0.17768533  0.11322930  0.10084953  1
  N  N391  1  0.19301879  0.44086108  0.08492703  1
  N  N392  1  0.17933405  0.77609567  0.09788533  1
  N  N393  1  0.67685851  0.10931275  0.10062980  1
  N  N394  1  0.68615285  0.44504797  0.10071263  1
  N  N395  1  0.68020285  0.77694971  0.10133447  1
  N  N396  1  0.18278036  0.22067074  0.89889934  1
  N  N397  1  0.17915783  0.55353039  0.89752049  1
  N  N398  1  0.18988483  0.89088395  0.90505799  1
  N  N399  1  0.69435412  0.22466245  0.91005756  1
  N  N400  1  0.68121435  0.55581659  0.89785934  1
  N  N401  1  0.68411050  0.89054216  0.89998002  1
  N  N402  1  0.30168585  0.10987295  0.41328861  1
  N  N403  1  0.32243577  0.44343248  0.39856524  1
  N  N404  1  0.31516423  0.77783572  0.40192122  1
  N  N405  1  0.81050692  0.10734053  0.40431669  1
  N  N406  1  0.82268839  0.44439619  0.39687992  1
  N  N407  1  0.80812191  0.78084951  0.40988387  1
  N  N408  1  0.43327152  0.27706080  0.39210626  1
  N  N409  1  0.43395856  0.61067643  0.40266257  1
  N  N410  1  0.44132423  0.94254669  0.40701519  1
  N  N411  1  0.94181169  0.27724040  0.41210510  1
  N  N412  1  0.93064837  0.61092705  0.40017115  1
  N  N413  1  0.94440224  0.94179878  0.40755293  1
  N  N414  1  0.07427820  0.05512955  0.89332739  1
  N  N415  1  0.07011651  0.38944477  0.89852825  1
  N  N416  1  0.07299239  0.72079580  0.89557799  1
  N  N417  1  0.56483931  0.05679245  0.90511861  1
  N  N418  1  0.55458144  0.38957923  0.91008392  1
  N  N419  1  0.56596915  0.72475528  0.90310861  1
  N  N420  1  0.06271799  0.27723900  0.09590013  1
  N  N421  1  0.06609302  0.60929541  0.09649255  1
  N  N422  1  0.06540203  0.94354151  0.09896006  1
  N  N423  1  0.55778350  0.27590515  0.09472441  1
  N  N424  1  0.57157496  0.61254810  0.10379239  1
  N  N425  1  0.56243620  0.94372633  0.09440351  1
  N  N426  1  0.44589090  0.05256416  0.59070891  1
  N  N427  1  0.42634317  0.38625513  0.60324098  1
  N  N428  1  0.43616668  0.72464629  0.59888825  1
  N  N429  1  0.93725733  0.05597005  0.59482187  1
  N  N430  1  0.92467198  0.39011826  0.60110674  1
  N  N431  1  0.94148295  0.72428623  0.59325825  1
  N  N432  1  0.17719724  0.11283856  0.39428074  1
  N  N433  1  0.19554419  0.44532532  0.41003382  1
  N  N434  1  0.18838589  0.77564636  0.40900015  1
  N  N435  1  0.68355987  0.10889547  0.40478204  1
  N  N436  1  0.69514608  0.44306552  0.40589724  1
  N  N437  1  0.67993822  0.77936218  0.39748262  1
  N  N438  1  0.31112172  0.22432508  0.91384268  1
  N  N439  1  0.30667008  0.55573773  0.90697285  1
  N  N440  1  0.31781082  0.88966441  0.90083511  1
  N  N441  1  0.82048608  0.22135595  0.89385924  1
  N  N442  1  0.80727822  0.55774752  0.90665960  1
  N  N443  1  0.81203967  0.89148586  0.90659991  1
  N  N444  1  0.30756020  0.11188495  0.09371209  1
  N  N445  1  0.32159326  0.44404008  0.10028722  1
  N  N446  1  0.30734266  0.77666319  0.09825407  1
  N  N447  1  0.80562722  0.10972658  0.09250859  1
  N  N448  1  0.81653564  0.44665583  0.09908388  1
  N  N449  1  0.80679329  0.77778949  0.09057998  1
  N  N450  1  0.19218176  0.22746695  0.58260048  1
  N  N451  1  0.19067315  0.55690260  0.59771239  1
  N  N452  1  0.17758535  0.88787066  0.59843100  1
  N  N453  1  0.68684432  0.22255081  0.60144795  1
  N  N454  1  0.69520905  0.55855461  0.59023845  1
  N  N455  1  0.67778160  0.88768025  0.60310101  1
  Cl  Cl456  1  0.26087320  0.06095800  0.60065603  1
  Cl  Cl457  1  0.24052605  0.39314367  0.60319090  1
  Cl  Cl458  1  0.25529118  0.72383109  0.61446835  1
  Cl  Cl459  1  0.75541640  0.05322018  0.62081101  1
  Cl  Cl460  1  0.73424652  0.38818354  0.61728952  1
  Cl  Cl461  1  0.75394626  0.72906600  0.60942593  1
  Cl  Cl462  1  0.24487900  0.28261483  0.11785409  1
  Cl  Cl463  1  0.25631011  0.60959160  0.11183631  1
  Cl  Cl464  1  0.25073204  0.94788564  0.12287003  1
  Cl  Cl465  1  0.74659309  0.27446615  0.12017996  1
  Cl  Cl466  1  0.75500945  0.61514151  0.11975124  1
  Cl  Cl467  1  0.74908318  0.95243001  0.11837729  1
  Cl  Cl468  1  0.25794032  0.05296713  0.87310377  1
  Cl  Cl469  1  0.24730788  0.37681725  0.86633177  1
  Cl  Cl470  1  0.25528509  0.71759734  0.87580657  1
  Cl  Cl471  1  0.75610668  0.05782495  0.89469521  1
  Cl  Cl472  1  0.75122521  0.39133796  0.88941161  1
  Cl  Cl473  1  0.75694531  0.72695253  0.88752381  1
  Cl  Cl474  1  0.24941692  0.28591045  0.38090222  1
  Cl  Cl475  1  0.24400084  0.61130389  0.37997273  1
  Cl  Cl476  1  0.25730927  0.94527028  0.39012568  1
  Cl  Cl477  1  0.75397259  0.27054276  0.40014659  1
  Cl  Cl478  1  0.74822236  0.61769857  0.38543801  1
  Cl  Cl479  1  0.75687999  0.94607223  0.38543460  1
  Cl  Cl480  1  0.00013362  0.22439904  0.60305881  1
  Cl  Cl481  1  0.00840712  0.55915298  0.60986700  1
  Cl  Cl482  1  -0.01119994  0.88718567  0.62030445  1
  Cl  Cl483  1  0.50733778  0.21761996  0.61846904  1
  Cl  Cl484  1  0.50330149  0.55308276  0.61709473  1
  Cl  Cl485  1  0.48996560  0.88464043  0.62484520  1
  Cl  Cl486  1  -0.01018185  0.11245638  0.11571533  1
  Cl  Cl487  1  0.00147700  0.43967988  0.10857492  1
  Cl  Cl488  1  -0.00900538  0.77668626  0.11650156  1
  Cl  Cl489  1  0.49444365  0.11620774  0.12860234  1
  Cl  Cl490  1  0.50486112  0.44827129  0.12547398  1
  Cl  Cl491  1  0.49314834  0.78195735  0.11452264  1
  Cl  Cl492  1  0.00115211  0.22466043  0.87622086  1
  Cl  Cl493  1  -0.00872019  0.54799366  0.87763812  1
  Cl  Cl494  1  0.00169069  0.88775629  0.88528094  1
  Cl  Cl495  1  0.50609685  0.22369686  0.88794283  1
  Cl  Cl496  1  0.49390942  0.55783850  0.88731543  1
  Cl  Cl497  1  0.49993012  0.88955919  0.88890565  1
  Cl  Cl498  1  -0.00717527  0.11149173  0.38570297  1
  Cl  Cl499  1  0.01253774  0.44543083  0.38121912  1
  Cl  Cl500  1  -0.00381562  0.77529407  0.38740492  1
  Cl  Cl501  1  0.49034590  0.10491517  0.40000226  1
  Cl  Cl502  1  0.50954693  0.44340422  0.39663300  1
  Cl  Cl503  1  0.49653236  0.78081660  0.37927832  1
  Cl  Cl504  1  0.35793419  0.14556650  0.74067901  1
  Cl  Cl505  1  0.35675834  0.47594499  0.74806399  1
  Cl  Cl506  1  0.35987655  0.81404973  0.75014823  1
  Cl  Cl507  1  0.86190125  0.14669237  0.75473652  1
  Cl  Cl508  1  0.86334883  0.47849715  0.74001103  1
  Cl  Cl509  1  0.85452880  0.81380182  0.75040758  1
  Cl  Cl510  1  0.13668587  0.18644120  0.25410064  1
  Cl  Cl511  1  0.14309420  0.51669564  0.24793355  1
  Cl  Cl512  1  0.14501032  0.85416483  0.25356644  1
  Cl  Cl513  1  0.64322796  0.18611167  0.25534641  1
  Cl  Cl514  1  0.63841819  0.52076786  0.24953358  1
  Cl  Cl515  1  0.63717832  0.85363405  0.25017851  1
  Cl  Cl516  1  0.13801480  0.14654806  0.74995843  1
  Cl  Cl517  1  0.13638626  0.47790457  0.75085312  1
  Cl  Cl518  1  0.13710616  0.81137753  0.74753503  1
  Cl  Cl519  1  0.64158841  0.14736290  0.74708865  1
  Cl  Cl520  1  0.63759053  0.48098642  0.75465317  1
  Cl  Cl521  1  0.63419357  0.81163663  0.74789971  1
  Cl  Cl522  1  0.35950998  0.18744299  0.25600454  1
  Cl  Cl523  1  0.36504829  0.52035656  0.25299753  1
  Cl  Cl524  1  0.36289436  0.85375677  0.24865683  1
  Cl  Cl525  1  0.86179557  0.18739531  0.25211437  1
  Cl  Cl526  1  0.86184335  0.51934736  0.25619907  1
  Cl  Cl527  1  0.85802369  0.85147079  0.24895935  1
  Cl  Cl528  1  0.10485260  0.31262548  0.74939141  1
  Cl  Cl529  1  0.11419733  0.64557029  0.74986742  1
  Cl  Cl530  1  0.10989476  0.97776531  0.74962848  1
  Cl  Cl531  1  0.60772934  0.31476978  0.74969626  1
  Cl  Cl532  1  0.60721842  0.64525085  0.75245320  1
  Cl  Cl533  1  0.61022814  0.98049676  0.74638005  1
  Cl  Cl534  1  0.39512633  0.02008891  0.25273765  1
  Cl  Cl535  1  0.38777477  0.35414306  0.25518505  1
  Cl  Cl536  1  0.39139850  0.68484211  0.24833781  1
  Cl  Cl537  1  0.88991471  0.01832693  0.25089435  1
  Cl  Cl538  1  0.88731777  0.35395215  0.24779726  1
  Cl  Cl539  1  0.89088836  0.68701746  0.25594114  1
  Cl  Cl540  1  0.38650327  0.31144254  0.74335824  1
  Cl  Cl541  1  0.38621102  0.64546850  0.74837389  1
  Cl  Cl542  1  0.38887166  0.98116974  0.74985598  1
  Cl  Cl543  1  0.88381408  0.31050342  0.74441651  1
  Cl  Cl544  1  0.89072506  0.64801560  0.74711744  1
  Cl  Cl545  1  0.89050843  0.98187811  0.75091066  1
  Cl  Cl546  1  0.11281094  0.02132563  0.25386597  1
  Cl  Cl547  1  0.10823112  0.35015692  0.25306396  1
  Cl  Cl548  1  0.10989398  0.68580004  0.25088458  1
  Cl  Cl549  1  0.61323405  0.02179048  0.25522109  1
  Cl  Cl550  1  0.61070873  0.35201792  0.25319214  1
  Cl  Cl551  1  0.61329005  0.68755877  0.24757718  1
