# generated using pymatgen
data_H8PbC4(N3Cl2)2
_symmetry_space_group_name_H-M   'P 1'
_cell_length_a   16.62446596
_cell_length_b   22.50596827
_cell_length_c   21.59043059
_cell_angle_alpha   89.99910518
_cell_angle_beta   89.98834789
_cell_angle_gamma   89.99836608
_symmetry_Int_Tables_number   1
_chemical_formula_structural   H8PbC4(N3Cl2)2
_chemical_formula_sum   'H192 Pb24 C96 N144 Cl96'
_cell_volume   8078.05303404
_cell_formula_units_Z   24
loop_
 _symmetry_equiv_pos_site_id
 _symmetry_equiv_pos_as_xyz
  1  'x, y, z'
loop_
 _atom_site_type_symbol
 _atom_site_label
 _atom_site_symmetry_multiplicity
 _atom_site_fract_x
 _atom_site_fract_y
 _atom_site_fract_z
 _atom_site_occupancy
  H  H0  1  0.00415815  0.03308001  0.67864929  1
  H  H1  1  0.00005711  0.36389707  0.67610598  1
  H  H2  1  -0.00866043  0.69819354  0.67648009  1
  H  H3  1  0.50247347  0.02972061  0.67781367  1
  H  H4  1  0.49481876  0.36321761  0.67919427  1
  H  H5  1  0.51012172  0.69935953  0.67763890  1
  H  H6  1  -0.00780226  0.30099013  0.17932699  1
  H  H7  1  -0.01023558  0.63497470  0.18218607  1
  H  H8  1  -0.00059042  0.96876407  0.17843707  1
  H  H9  1  0.50669499  0.30214202  0.17804522  1
  H  H10  1  0.51286841  0.63507539  0.18141001  1
  H  H11  1  0.50237595  0.96834299  0.18365066  1
  H  H12  1  -0.00230466  0.03065576  0.82098610  1
  H  H13  1  -0.00113496  0.36562809  0.81918992  1
  H  H14  1  0.00638036  0.69813116  0.82268751  1
  H  H15  1  0.50228241  0.03258619  0.81816034  1
  H  H16  1  0.49501859  0.36288462  0.81935790  1
  H  H17  1  0.49311639  0.69923985  0.81522427  1
  H  H18  1  0.00504282  0.30162149  0.32099434  1
  H  H19  1  0.00696402  0.63588237  0.31687536  1
  H  H20  1  0.00640968  0.96731945  0.31945510  1
  H  H21  1  0.49217366  0.29990162  0.32179421  1
  H  H22  1  0.50392210  0.63863029  0.32184688  1
  H  H23  1  0.48943565  0.96708576  0.32425056  1
  H  H24  1  0.25900443  0.19859898  0.67640876  1
  H  H25  1  0.24816420  0.53222542  0.67963784  1
  H  H26  1  0.25014933  0.86399789  0.67820536  1
  H  H27  1  0.74354840  0.19775604  0.67650839  1
  H  H28  1  0.74793457  0.53080232  0.68253825  1
  H  H29  1  0.75916666  0.86251141  0.67993023  1
  H  H30  1  0.25531929  0.13686671  0.18152063  1
  H  H31  1  0.24147760  0.46875200  0.17972224  1
  H  H32  1  0.25703980  0.80132798  0.18498933  1
  H  H33  1  0.74185246  0.13630251  0.17735045  1
  H  H34  1  0.75286413  0.46716522  0.17996702  1
  H  H35  1  0.73948911  0.80044270  0.18047885  1
  H  H36  1  0.25476387  0.19785156  0.82312791  1
  H  H37  1  0.25041579  0.52928988  0.81900782  1
  H  H38  1  0.24672835  0.86660024  0.81695334  1
  H  H39  1  0.74995882  0.20056301  0.81914582  1
  H  H40  1  0.75141750  0.53133897  0.81662092  1
  H  H41  1  0.73991026  0.86414997  0.82033751  1
  H  H42  1  0.26250594  0.13538220  0.32188213  1
  H  H43  1  0.25961431  0.46815371  0.32043478  1
  H  H44  1  0.25229952  0.80331480  0.32128539  1
  H  H45  1  0.74095992  0.13629585  0.32339073  1
  H  H46  1  0.73681986  0.46762005  0.32277934  1
  H  H47  1  0.74955032  0.80346850  0.31874589  1
  H  H48  1  0.11687324  0.05536797  0.59979950  1
  H  H49  1  0.12756863  0.38576645  0.60904883  1
  H  H50  1  0.13205585  0.71489133  0.62256688  1
  H  H51  1  0.61561077  0.05784700  0.59769011  1
  H  H52  1  0.62897164  0.38466949  0.61664842  1
  H  H53  1  0.62540428  0.72264721  0.60193068  1
  H  H54  1  0.38129792  0.28028844  0.10750417  1
  H  H55  1  0.37471458  0.61529277  0.12459638  1
  H  H56  1  0.37028643  0.94932589  0.12136131  1
  H  H57  1  0.88838325  0.27704486  0.09506813  1
  H  H58  1  0.87818187  0.60929374  0.10195808  1
  H  H59  1  0.87153777  0.94544943  0.10953642  1
  H  H60  1  0.36971846  0.05255791  0.88329627  1
  H  H61  1  0.37556149  0.38721378  0.89352931  1
  H  H62  1  0.37470351  0.71969220  0.89063198  1
  H  H63  1  0.86786277  0.05461857  0.88725173  1
  H  H64  1  0.87520848  0.38682749  0.89335465  1
  H  H65  1  0.87079895  0.71805507  0.88150024  1
  H  H66  1  0.11974852  0.27729339  0.39746124  1
  H  H67  1  0.11817179  0.61054519  0.39749991  1
  H  H68  1  0.13595556  0.94795281  0.38609587  1
  H  H69  1  0.62184574  0.28161631  0.38572168  1
  H  H70  1  0.61828024  0.61074773  0.40049137  1
  H  H71  1  0.62774221  0.94944958  0.37694201  1
  H  H72  1  0.37424382  0.22088898  0.60013304  1
  H  H73  1  0.38049342  0.55440658  0.61731868  1
  H  H74  1  0.37156945  0.88652952  0.60530332  1
  H  H75  1  0.87761607  0.21961819  0.61615678  1
  H  H76  1  0.87917952  0.55024660  0.61948496  1
  H  H77  1  0.86717719  0.89304249  0.59654852  1
  H  H78  1  0.12971195  0.11337420  0.11143634  1
  H  H79  1  0.12644298  0.44276019  0.10215047  1
  H  H80  1  0.12761053  0.78101675  0.12065120  1
  H  H81  1  0.63611484  0.10925237  0.09351770  1
  H  H82  1  0.62445971  0.44471019  0.11192931  1
  H  H83  1  0.63260166  0.77516249  0.09698490  1
  H  H84  1  0.11873856  0.21870635  0.88366649  1
  H  H85  1  0.12552152  0.55357563  0.88995771  1
  H  H86  1  0.12822103  0.88884544  0.89474025  1
  H  H87  1  0.61728179  0.21914339  0.88231216  1
  H  H88  1  0.62640090  0.55373502  0.88508683  1
  H  H89  1  0.63370770  0.89185000  0.90539395  1
  H  H90  1  0.37600433  0.11051299  0.40135922  1
  H  H91  1  0.36741851  0.44140949  0.40284603  1
  H  H92  1  0.36688327  0.78021543  0.39792372  1
  H  H93  1  0.88166320  0.11954835  0.37697204  1
  H  H94  1  0.87386827  0.44716592  0.38040050  1
  H  H95  1  0.86640699  0.77760429  0.39487094  1
  H  H96  1  0.37274238  0.27681100  0.39671363  1
  H  H97  1  0.37123295  0.61614159  0.38492330  1
  H  H98  1  0.38230623  0.94302356  0.40746369  1
  H  H99  1  0.87116252  0.28272339  0.38196104  1
  H  H100  1  0.87051445  0.61379551  0.37683459  1
  H  H101  1  0.88636803  0.94564748  0.39200760  1
  H  H102  1  0.11578000  0.05518496  0.89741252  1
  H  H103  1  0.12406619  0.38742057  0.89128682  1
  H  H104  1  0.11725729  0.72510997  0.90337438  1
  H  H105  1  0.61822593  0.05822284  0.89551403  1
  H  H106  1  0.62440340  0.38473093  0.88660433  1
  H  H107  1  0.62364304  0.71918371  0.87836138  1
  H  H108  1  0.13388282  0.28568084  0.12790532  1
  H  H109  1  0.12586265  0.61414612  0.12212030  1
  H  H110  1  0.12018391  0.94491706  0.10464611  1
  H  H111  1  0.63059585  0.27698122  0.10759855  1
  H  H112  1  0.62005737  0.60784828  0.09681810  1
  H  H113  1  0.61925304  0.94628466  0.10745192  1
  H  H114  1  0.36800742  0.05100419  0.61538053  1
  H  H115  1  0.38144951  0.38852205  0.59858346  1
  H  H116  1  0.37815793  0.71619826  0.61702655  1
  H  H117  1  0.86878788  0.05223612  0.61947765  1
  H  H118  1  0.87855797  0.38823334  0.60311213  1
  H  H119  1  0.88728475  0.72860475  0.59239996  1
  H  H120  1  0.12824916  0.11562103  0.38427660  1
  H  H121  1  0.12064132  0.44775621  0.37617750  1
  H  H122  1  0.11841465  0.78386862  0.38225689  1
  H  H123  1  0.63711347  0.10558853  0.40787695  1
  H  H124  1  0.62739945  0.44027482  0.40455908  1
  H  H125  1  0.61728901  0.78147735  0.38421541  1
  H  H126  1  0.36554523  0.22481423  0.90490027  1
  H  H127  1  0.37462747  0.55345906  0.88974640  1
  H  H128  1  0.37640131  0.88699330  0.88650806  1
  H  H129  1  0.86625454  0.22178038  0.89497308  1
  H  H130  1  0.87613524  0.55178603  0.88618891  1
  H  H131  1  0.87832234  0.88489025  0.87525918  1
  H  H132  1  0.37906104  0.11347447  0.10966532  1
  H  H133  1  0.37449676  0.44716205  0.11743517  1
  H  H134  1  0.37669921  0.78082961  0.11051951  1
  H  H135  1  0.88148931  0.11584107  0.12455059  1
  H  H136  1  0.87295618  0.44452172  0.10458787  1
  H  H137  1  0.87887805  0.78166797  0.12378294  1
  H  H138  1  0.12684961  0.21782233  0.61593504  1
  H  H139  1  0.13201606  0.55665412  0.60174257  1
  H  H140  1  0.12283796  0.88815799  0.60927928  1
  H  H141  1  0.63000225  0.22503355  0.59946915  1
  H  H142  1  0.63028833  0.55451417  0.60779300  1
  H  H143  1  0.62155702  0.88122026  0.62267319  1
  H  H144  1  0.29752837  0.41028012  0.50680485  1
  H  H145  1  0.93012090  0.41649942  0.49942216  1
  H  H146  1  0.67080387  0.57879302  0.99795923  1
  H  H147  1  0.17845078  0.08291247  0.00289227  1
  H  H148  1  0.56252603  0.91887742  -0.00198666  1
  H  H149  1  0.06366394  0.24539563  0.50417944  1
  H  H150  1  0.42973585  0.73493611  1.00309588  1
  H  H151  1  0.66987515  0.41466947  0.00692918  1
  H  H152  1  0.84662249  0.57877590  0.50696200  1
  H  H153  1  0.11518106  0.75115145  0.51442749  1
  H  H154  1  0.14557646  0.25106605  0.99251795  1
  H  H155  1  0.04563718  0.73609661  1.00606041  1
  H  H156  1  0.32307689  0.76728548  -0.00275686  1
  H  H157  1  0.68551440  0.58085370  0.49772185  1
  H  H158  1  0.94740389  0.58336038  -0.00464396  1
  H  H159  1  0.96622937  0.74377690  0.49171427  1
  H  H160  1  0.45020357  0.41373775  0.49685293  1
  H  H161  1  0.93878790  0.91908030  0.50406123  1
  H  H162  1  0.71638655  0.08970375  0.50807059  1
  H  H163  1  0.80525323  0.74951116  0.50240943  1
  H  H164  1  0.79193751  0.91387402  0.49563398  1
  H  H165  1  0.54621816  0.08226450  0.49526827  1
  H  H166  1  0.43056691  0.41429726  1.00165384  1
  H  H167  1  0.54980670  0.58882494  0.50422341  1
  H  H168  1  0.54400005  0.58469878  -0.00294012  1
  H  H169  1  0.70626601  0.75042071  -0.00811650  1
  H  H170  1  0.16432132  0.76307939  0.00508891  1
  H  H171  1  0.05050513  0.58435875  0.50322822  1
  H  H172  1  0.86539084  0.08501000  0.48574030  1
  H  H173  1  0.32535488  0.58152451  0.99857305  1
  H  H174  1  0.84914641  0.25015608  0.50823785  1
  H  H175  1  0.30988677  0.75184936  0.50613749  1
  H  H176  1  0.55601313  0.08627043  1.00227180  1
  H  H177  1  0.80879310  0.25127168  1.00484875  1
  H  H178  1  0.96188923  0.25191889  -0.01061192  1
  H  H179  1  0.89909504  0.75186542  0.98804429  1
  H  H180  1  0.71073837  0.91683348  1.00469854  1
  H  H181  1  0.14177914  0.41911367  0.48483634  1
  H  H182  1  0.19587730  0.58463654  0.49846670  1
  H  H183  1  0.58724291  0.25375275  0.49949874  1
  H  H184  1  0.40163646  0.92077396  0.00872688  1
  H  H185  1  0.91799500  0.91869340  0.00432164  1
  H  H186  1  0.05657038  0.08400441  0.49244827  1
  H  H187  1  0.83047155  0.57343372  0.99978781  1
  H  H188  1  0.60925896  0.91841610  0.49183061  1
  H  H189  1  0.58835194  0.74422274  0.99298934  1
  H  H190  1  0.90639494  0.08093826  0.99424670  1
  H  H191  1  0.71062530  0.08551795  -0.00723116  1
  Pb  Pb192  1  0.24480933  0.04617019  0.74995590  1
  Pb  Pb193  1  0.25221640  0.38033587  0.74648842  1
  Pb  Pb194  1  0.24881772  0.71186102  0.75707479  1
  Pb  Pb195  1  0.74438253  0.04954898  0.75086497  1
  Pb  Pb196  1  0.75078353  0.37818854  0.75210562  1
  Pb  Pb197  1  0.75500602  0.71614420  0.74429011  1
  Pb  Pb198  1  0.25275958  0.28767311  0.25254124  1
  Pb  Pb199  1  0.25350555  0.61823538  0.25761301  1
  Pb  Pb200  1  0.25170642  0.95493286  0.25417925  1
  Pb  Pb201  1  0.75565646  0.28450247  0.24769027  1
  Pb  Pb202  1  0.74511943  0.61813914  0.24689125  1
  Pb  Pb203  1  0.75260003  0.95354743  0.24860191  1
  Pb  Pb204  1  0.00026795  0.21300259  0.75017431  1
  Pb  Pb205  1  0.00108291  0.54564950  0.74785667  1
  Pb  Pb206  1  0.00211963  0.88268219  0.74656713  1
  Pb  Pb207  1  0.49391487  0.21418742  0.74785626  1
  Pb  Pb208  1  0.50437120  0.54893960  0.75078919  1
  Pb  Pb209  1  0.49613015  0.88099686  0.75596321  1
  Pb  Pb210  1  0.00589060  0.11971136  0.24725577  1
  Pb  Pb211  1  0.00004364  0.45392821  0.24978085  1
  Pb  Pb212  1  0.00092751  0.78463507  0.25140863  1
  Pb  Pb213  1  0.50352058  0.12018829  0.25158350  1
  Pb  Pb214  1  0.50384923  0.45020037  0.25702255  1
  Pb  Pb215  1  0.49951290  0.78823021  0.24495776  1
  C  C216  1  -0.00314694  0.04668758  0.63076889  1
  C  C217  1  0.00169665  0.37981978  0.62867285  1
  C  C218  1  0.00381855  0.71363177  0.62955045  1
  C  C219  1  0.49574427  0.04515039  0.63050661  1
  C  C220  1  0.50141999  0.37851302  0.63182010  1
  C  C221  1  0.50434537  0.71279044  0.62978781  1
  C  C222  1  0.00486500  0.28768826  0.13197914  1
  C  C223  1  -0.00192964  0.61978018  0.13496998  1
  C  C224  1  -0.00351842  0.95322520  0.13099484  1
  C  C225  1  0.50611725  0.28650510  0.13076258  1
  C  C226  1  0.50307150  0.62032543  0.13413187  1
  C  C227  1  0.49702816  0.95439391  0.13564725  1
  C  C228  1  -0.00680274  0.04611867  0.86843862  1
  C  C229  1  -0.00066861  0.37973196  0.86725105  1
  C  C230  1  -0.00196154  0.71361924  0.87002060  1
  C  C231  1  0.49661171  0.04738802  0.86578890  1
  C  C232  1  0.49857212  0.37843099  0.86685275  1
  C  C233  1  0.49726896  0.71314352  0.86327759  1
  C  C234  1  -0.00110057  0.28709924  0.36859121  1
  C  C235  1  -0.00184052  0.62053989  0.36406488  1
  C  C236  1  0.00930914  0.95337065  0.36740215  1
  C  C237  1  0.49628190  0.28576578  0.36961168  1
  C  C238  1  0.49789126  0.62279024  0.36910321  1
  C  C239  1  0.50074069  0.95314525  0.37144039  1
  C  C240  1  0.25321028  0.21266856  0.62876060  1
  C  C241  1  0.25336136  0.54697503  0.63210742  1
  C  C242  1  0.24770444  0.87949467  0.63081110  1
  C  C243  1  0.75095821  0.21361501  0.62945819  1
  C  C244  1  0.75277594  0.54549018  0.63474243  1
  C  C245  1  0.74973254  0.87844677  0.63301978  1
  C  C246  1  0.25467114  0.12138823  0.13400305  1
  C  C247  1  0.24776962  0.45333988  0.13258864  1
  C  C248  1  0.25364622  0.78765140  0.13688325  1
  C  C249  1  0.75291577  0.12127205  0.13031043  1
  C  C250  1  0.74975019  0.45202225  0.13229145  1
  C  C251  1  0.75075949  0.78647078  0.13309118  1
  C  C252  1  0.24590433  0.21362951  0.87017522  1
  C  C253  1  0.25014129  0.54513188  0.86639618  1
  C  C254  1  0.25071719  0.88040530  0.86505985  1
  C  C255  1  0.74475109  0.21409592  0.86711125  1
  C  C256  1  0.75128443  0.54561256  0.86467085  1
  C  C257  1  0.75034018  0.87954327  0.86736558  1
  C  C258  1  0.25541224  0.12089617  0.36933240  1
  C  C259  1  0.24847637  0.45319952  0.36765207  1
  C  C260  1  0.24607908  0.78917696  0.36902441  1
  C  C261  1  0.75353318  0.12085027  0.37021632  1
  C  C262  1  0.74633238  0.45230469  0.36965892  1
  C  C263  1  0.74420752  0.78810418  0.36619481  1
  C  C264  1  0.52787896  0.92944060  0.03935623  1
  C  C265  1  0.70992812  0.56903577  0.95891912  1
  C  C266  1  0.77185884  0.76032146  0.46052322  1
  C  C267  1  0.72085331  0.57065570  0.53874585  1
  C  C268  1  0.52274352  0.07431986  0.96067638  1
  C  C269  1  0.54613433  0.73456263  0.95587697  1
  C  C270  1  0.72279784  0.24558255  0.53419397  1
  C  C271  1  0.99078407  0.26229998  0.03338263  1
  C  C272  1  0.21739499  0.09387412  0.04173509  1
  C  C273  1  0.54264958  0.25679206  0.03879649  1
  C  C274  1  0.04795657  0.40698997  0.53623151  1
  C  C275  1  0.22152847  0.42345617  0.03846143  1
  C  C276  1  0.07078691  0.26530472  0.04607944  1
  C  C277  1  0.46442670  0.73255419  0.96054066  1
  C  C278  1  0.05665928  0.92923921  0.45921821  1
  C  C279  1  0.94050097  0.06964836  0.54125507  1
  C  C280  1  0.28647036  0.57148624  0.95943406  1
  C  C281  1  0.27316177  0.76326314  0.46599992  1
  C  C282  1  0.97703674  0.59346595  0.03903281  1
  C  C283  1  0.97536809  0.92838624  0.46339439  1
  C  C284  1  0.28244512  0.23874084  0.53365910  1
  C  C285  1  0.44597284  0.93047819  0.04439996  1
  C  C286  1  0.02617872  0.25843178  0.46480861  1
  C  C287  1  0.19207354  0.76587882  0.45930081  1
  C  C288  1  0.20151860  0.23756439  0.53896064  1
  C  C289  1  0.73415984  0.76141676  0.03612724  1
  C  C290  1  0.01953508  0.59456450  0.46000509  1
  C  C291  1  0.48032995  0.92599007  0.46827516  1
  C  C292  1  0.69272028  0.23839484  0.95771662  1
  C  C293  1  0.28792526  0.76940381  0.03968661  1
  C  C294  1  0.80281638  0.56939692  0.54310389  1
  C  C295  1  0.94475311  0.26137859  0.45813766  1
  C  C296  1  0.79199435  0.56743225  0.95953544  1
  C  C297  1  0.56089556  0.92800311  0.45917235  1
  C  C298  1  0.02144719  0.07226711  0.53325951  1
  C  C299  1  0.20599580  0.76872293  0.04338401  1
  C  C300  1  0.46188774  0.25958817  0.46458665  1
  C  C301  1  0.81641213  0.09418229  0.04454459  1
  C  C302  1  0.28009718  0.09366394  0.46465205  1
  C  C303  1  0.72646736  0.42213230  0.46486935  1
  C  C304  1  0.46722607  0.40464618  0.96107451  1
  C  C305  1  0.77401673  0.23994704  0.96377792  1
  C  C306  1  0.54344552  0.26164018  0.46251076  1
  C  C307  1  0.28194942  0.90868086  0.53790146  1
  C  C308  1  0.26858345  0.42365487  0.46372945  1
  C  C309  1  0.30635760  0.57471805  0.54201422  1
  C  C310  1  0.53380340  0.73844579  0.53502471  1
  C  C311  1  0.45309164  0.73639228  0.53993098  1
  N  N312  1  0.94084578  0.59586026  0.45328238  1
  N  N313  1  0.73826181  0.09193522  0.03486546  1
  N  N314  1  0.81567529  0.09993445  0.45550227  1
  N  N315  1  0.51813546  0.07316552  0.53691206  1
  N  N316  1  0.44409800  0.59586814  0.45813338  1
  N  N317  1  0.44063748  0.07116325  0.54185375  1
  N  N318  1  0.70874536  0.42756315  0.04141813  1
  N  N319  1  0.94921947  0.07185867  0.95846222  1
  N  N320  1  0.80137967  0.24219055  0.54102853  1
  N  N321  1  0.19371680  0.24120991  0.95727802  1
  N  N322  1  0.22766384  0.57480502  0.53786886  1
  N  N323  1  0.81250213  0.76433321  0.04500118  1
  N  N324  1  0.44380979  0.07198167  0.95681363  1
  N  N325  1  0.29900268  0.42500391  0.04175896  1
  N  N326  1  0.46530829  0.25778652  0.03737185  1
  N  N327  1  0.51851131  0.59213530  0.03958217  1
  N  N328  1  0.19012130  0.42664452  0.45368977  1
  N  N329  1  0.44125008  0.59576894  0.04761878  1
  N  N330  1  0.21875569  0.90375741  0.96115828  1
  N  N331  1  0.29482356  0.90304482  0.95848863  1
  N  N332  1  0.29659576  0.09369024  0.04058942  1
  N  N333  1  0.54671458  0.40452972  0.95912762  1
  N  N334  1  0.94277686  0.73469841  0.95810525  1
  N  N335  1  0.20314495  0.09479570  0.46033536  1
  N  N336  1  0.76634962  0.90801773  0.53888140  1
  N  N337  1  0.55633733  0.40448740  0.54302100  1
  N  N338  1  0.98872147  0.74740420  0.53621493  1
  N  N339  1  0.95669264  0.92721125  0.04044343  1
  N  N340  1  0.73898021  0.08655602  0.46344830  1
  N  N341  1  0.03848082  0.40466577  0.96117309  1
  N  N342  1  0.96233674  0.40433205  0.96183605  1
  N  N343  1  0.52174342  0.59352130  0.46218532  1
  N  N344  1  0.05568720  0.59497439  0.04586706  1
  N  N345  1  0.03475309  0.92661486  0.03705807  1
  N  N346  1  0.80353380  0.42448802  0.45853016  1
  N  N347  1  0.68929249  0.90447246  0.54698251  1
  N  N348  1  0.06573009  0.73509832  0.54430190  1
  N  N349  1  0.47878957  0.40635960  0.53820461  1
  N  N350  1  0.73567245  0.90960188  0.96143234  1
  N  N351  1  0.20721823  0.57204460  0.95991347  1
  N  N352  1  0.02744021  0.07245118  0.96320807  1
  N  N353  1  0.69270960  0.76107681  0.45681618  1
  N  N354  1  0.78676361  0.42698839  0.03752768  1
  N  N355  1  0.81304309  0.90638586  0.95287971  1
  N  N356  1  0.02095238  0.74526654  0.96345160  1
  N  N357  1  0.27101906  0.24330921  0.96550882  1
  N  N358  1  0.96859877  0.40805183  0.53555457  1
  N  N359  1  0.20476383  0.90907255  0.53800849  1
  N  N360  1  0.05547183  0.05751883  0.59031750  1
  N  N361  1  0.06852632  0.38992663  0.59422005  1
  N  N362  1  0.07517721  0.72312971  0.60440685  1
  N  N363  1  0.55362986  0.05589205  0.58995362  1
  N  N364  1  0.56992134  0.38879077  0.60177163  1
  N  N365  1  0.56525215  0.72422293  0.58979282  1
  N  N366  1  0.44223825  0.27653891  0.09591146  1
  N  N367  1  0.43242645  0.61137644  0.10679968  1
  N  N368  1  0.42843403  0.94567819  0.10436129  1
  N  N369  1  0.95045044  0.27641961  0.08820872  1
  N  N370  1  0.93970046  0.60858898  0.09345984  1
  N  N371  1  0.93165375  0.94338681  0.09713791  1
  N  N372  1  0.42924150  0.05557544  0.89764172  1
  N  N373  1  0.43639431  0.38940821  0.90477260  1
  N  N374  1  0.43510575  0.72005674  0.90242408  1
  N  N375  1  0.92733518  0.05568396  0.90112160  1
  N  N376  1  0.93639833  0.38897658  0.90366112  1
  N  N377  1  0.92880973  0.72491683  0.89792782  1
  N  N378  1  0.05864307  0.27495483  0.40770596  1
  N  N379  1  0.05617714  0.60947783  0.40561486  1
  N  N380  1  0.07684371  0.94411538  0.40135614  1
  N  N381  1  0.56342183  0.27765496  0.40222028  1
  N  N382  1  0.55634954  0.61221400  0.40920199  1
  N  N383  1  0.57232081  0.94492597  0.39799003  1
  N  N384  1  0.31364783  0.22382819  0.58856965  1
  N  N385  1  0.32251904  0.55763215  0.60039037  1
  N  N386  1  0.31120753  0.89052496  0.59351012  1
  N  N387  1  0.81902181  0.22211759  0.59945865  1
  N  N388  1  0.82108124  0.55401793  0.60286999  1
  N  N389  1  0.80483200  0.89047569  0.59057860  1
  N  N390  1  0.18999080  0.11060081  0.09877220  1
  N  N391  1  0.18751743  0.44047713  0.09271662  1
  N  N392  1  0.18620315  0.77979950  0.10399969  1
  N  N393  1  0.69843372  0.11084884  0.08726404  1
  N  N394  1  0.68467480  0.44151125  0.09891794  1
  N  N395  1  0.69477412  0.77510377  0.08979169  1
  N  N396  1  0.17729250  0.22330939  0.89932365  1
  N  N397  1  0.18636818  0.55545612  0.90166926  1
  N  N398  1  0.18990109  0.89004282  0.90355275  1
  N  N399  1  0.67560509  0.22295209  0.89931089  1
  N  N400  1  0.68602037  0.55553452  0.89959842  1
  N  N401  1  0.69612774  0.89071200  0.91056891  1
  N  N402  1  0.31505077  0.10916427  0.41010837  1
  N  N403  1  0.30528981  0.44023770  0.41040207  1
  N  N404  1  0.30574314  0.77818675  0.40843182  1
  N  N405  1  0.82503840  0.11196711  0.39544602  1
  N  N406  1  0.81573790  0.44346923  0.39768841  1
  N  N407  1  0.80509315  0.77668643  0.40524597  1
  N  N408  1  0.43357098  0.27403851  0.40849366  1
  N  N409  1  0.42979561  0.61234734  0.39950859  1
  N  N410  1  0.44427682  0.94112860  0.41537381  1
  N  N411  1  0.92919273  0.27837764  0.39968370  1
  N  N412  1  0.92916359  0.61172165  0.39319103  1
  N  N413  1  0.94680558  0.94349615  0.40484644  1
  N  N414  1  0.05420365  0.05659531  0.90698663  1
  N  N415  1  0.06311450  0.38940845  0.90266053  1
  N  N416  1  0.05537022  0.72217024  0.91165190  1
  N  N417  1  0.55686123  0.05913586  0.90520260  1
  N  N418  1  0.56425015  0.38805981  0.89987304  1
  N  N419  1  0.56517433  0.72255527  0.89520590  1
  N  N420  1  0.07853375  0.28040502  0.10622407  1
  N  N421  1  0.06705592  0.61087895  0.10566163  1
  N  N422  1  0.05901419  0.94253520  0.09399209  1
  N  N423  1  0.57068106  0.27408409  0.09508896  1
  N  N424  1  0.55789038  0.60946119  0.09120874  1
  N  N425  1  0.55831680  0.94432471  0.09659173  1
  N  N426  1  0.42712719  0.05461878  0.60033308  1
  N  N427  1  0.44341714  0.38871211  0.59117604  1
  N  N428  1  0.43538851  0.72109923  0.59804370  1
  N  N429  1  0.92601195  0.05455528  0.60069331  1
  N  N430  1  0.93973630  0.39115429  0.59249286  1
  N  N431  1  0.94972188  0.72471062  0.58593705  1
  N  N432  1  0.18752700  0.11224241  0.39967527  1
  N  N433  1  0.17823247  0.44550109  0.39489300  1
  N  N434  1  0.17611505  0.78105682  0.40016194  1
  N  N435  1  0.69963884  0.10926412  0.41388214  1
  N  N436  1  0.68887953  0.43896516  0.41185774  1
  N  N437  1  0.67733581  0.77830973  0.39806695  1
  N  N438  1  0.30335615  0.22620527  0.91120124  1
  N  N439  1  0.31442000  0.55559659  0.90218359  1
  N  N440  1  0.31620068  0.88865264  0.89887305  1
  N  N441  1  0.80547664  0.22446744  0.90613384  1
  N  N442  1  0.81636125  0.55325094  0.90057266  1
  N  N443  1  0.82129166  0.88962683  0.89368266  1
  N  N444  1  0.31836043  0.11096645  0.09844232  1
  N  N445  1  0.31534194  0.44395746  0.10205194  1
  N  N446  1  0.31638650  0.78057171  0.09825588  1
  N  N447  1  0.82551802  0.11112824  0.10405603  1
  N  N448  1  0.81173382  0.44259331  0.09438545  1
  N  N449  1  0.82110152  0.77944990  0.10567709  1
  N  N450  1  0.18426605  0.22192784  0.59727944  1
  N  N451  1  0.19379370  0.55675456  0.59283765  1
  N  N452  1  0.18304026  0.89065406  0.59724541  1
  N  N453  1  0.69119202  0.22760919  0.58895015  1
  N  N454  1  0.69115986  0.55594876  0.59627339  1
  N  N455  1  0.67925404  0.88735878  0.60557332  1
  Cl  Cl456  1  0.24330361  0.05199827  0.61837578  1
  Cl  Cl457  1  0.25758358  0.38880271  0.60884012  1
  Cl  Cl458  1  0.25388248  0.71305597  0.62405177  1
  Cl  Cl459  1  0.73654259  0.06245692  0.60708883  1
  Cl  Cl460  1  0.75458957  0.38316856  0.61881656  1
  Cl  Cl461  1  0.76575923  0.72763333  0.60961347  1
  Cl  Cl462  1  0.25918649  0.28347341  0.12150172  1
  Cl  Cl463  1  0.25097657  0.61410461  0.12684171  1
  Cl  Cl464  1  0.24207204  0.94808759  0.12320046  1
  Cl  Cl465  1  0.76126449  0.27758349  0.11321098  1
  Cl  Cl466  1  0.74602373  0.60837289  0.11044116  1
  Cl  Cl467  1  0.74495659  0.94463697  0.10724240  1
  Cl  Cl468  1  0.23914395  0.05541015  0.88472485  1
  Cl  Cl469  1  0.24862346  0.38640369  0.87777471  1
  Cl  Cl470  1  0.24190828  0.72511163  0.89155945  1
  Cl  Cl471  1  0.74167066  0.05893914  0.89266935  1
  Cl  Cl472  1  0.74958450  0.38620292  0.88645635  1
  Cl  Cl473  1  0.74771538  0.72000452  0.88046891  1
  Cl  Cl474  1  0.24767208  0.28215591  0.38459097  1
  Cl  Cl475  1  0.24083879  0.60860026  0.39495522  1
  Cl  Cl476  1  0.26309840  0.94786437  0.38660674  1
  Cl  Cl477  1  0.74759437  0.27922581  0.38146275  1
  Cl  Cl478  1  0.73934240  0.60962420  0.38224948  1
  Cl  Cl479  1  0.76240614  0.94262365  0.38654059  1
  Cl  Cl480  1  0.00062150  0.22151082  0.61918565  1
  Cl  Cl481  1  0.01040862  0.55511267  0.61182130  1
  Cl  Cl482  1  -0.01274501  0.88970504  0.61141671  1
  Cl  Cl483  1  0.50434594  0.21989545  0.61231424  1
  Cl  Cl484  1  0.50776121  0.55729772  0.61282606  1
  Cl  Cl485  1  0.49492200  0.88140434  0.62391512  1
  Cl  Cl486  1  0.00522783  0.11256977  0.11637850  1
  Cl  Cl487  1  -0.00263767  0.44684753  0.11960173  1
  Cl  Cl488  1  0.00411003  0.77328427  0.11380492  1
  Cl  Cl489  1  0.51326011  0.11109049  0.11671263  1
  Cl  Cl490  1  0.50180995  0.44758808  0.12259507  1
  Cl  Cl491  1  0.50717037  0.77434793  0.10997532  1
  Cl  Cl492  1  -0.00656405  0.21792458  0.88485649  1
  Cl  Cl493  1  0.00013987  0.55747935  0.88110085  1
  Cl  Cl494  1  0.00480288  0.88610173  0.88100604  1
  Cl  Cl495  1  0.48940795  0.21938497  0.87945737  1
  Cl  Cl496  1  0.50218930  0.55780225  0.88825077  1
  Cl  Cl497  1  0.50994666  0.88996328  0.89145321  1
  Cl  Cl498  1  0.00489803  0.11511902  0.37989585  1
  Cl  Cl499  1  -0.00211012  0.44315569  0.38670021  1
  Cl  Cl500  1  -0.01053190  0.77296418  0.39013431  1
  Cl  Cl501  1  0.51517629  0.10579706  0.39524113  1
  Cl  Cl502  1  0.49283999  0.44126632  0.39493040  1
  Cl  Cl503  1  0.49207783  0.78192877  0.37627240  1
  Cl  Cl504  1  0.35815547  0.14639239  0.74900208  1
  Cl  Cl505  1  0.36124999  0.47902714  0.74570598  1
  Cl  Cl506  1  0.36079140  0.81242208  0.75453347  1
  Cl  Cl507  1  0.86171982  0.14454986  0.74510081  1
  Cl  Cl508  1  0.86117274  0.48020982  0.74640865  1
  Cl  Cl509  1  0.85921208  0.81091190  0.75539495  1
  Cl  Cl510  1  0.13949305  0.18838089  0.24884282  1
  Cl  Cl511  1  0.13452685  0.52200435  0.25621345  1
  Cl  Cl512  1  0.13556372  0.85568056  0.25572210  1
  Cl  Cl513  1  0.64255620  0.18458422  0.25112827  1
  Cl  Cl514  1  0.63973586  0.51985146  0.24839221  1
  Cl  Cl515  1  0.64103225  0.85257898  0.25077633  1
  Cl  Cl516  1  0.13783606  0.14757080  0.75160780  1
  Cl  Cl517  1  0.13981723  0.48021650  0.74817148  1
  Cl  Cl518  1  0.13661272  0.81228951  0.74381769  1
  Cl  Cl519  1  0.64224871  0.14537108  0.75218625  1
  Cl  Cl520  1  0.63810531  0.47868778  0.75090588  1
  Cl  Cl521  1  0.64105694  0.81220939  0.74836716  1
  Cl  Cl522  1  0.36402161  0.18623450  0.25205114  1
  Cl  Cl523  1  0.35660788  0.52182499  0.25102692  1
  Cl  Cl524  1  0.35981571  0.85381821  0.24594893  1
  Cl  Cl525  1  0.86211214  0.18816401  0.25295811  1
  Cl  Cl526  1  0.86227626  0.52121808  0.25511117  1
  Cl  Cl527  1  0.86407910  0.85378277  0.24311760  1
  Cl  Cl528  1  0.11007415  0.31296719  0.74746092  1
  Cl  Cl529  1  0.11065291  0.64750425  0.74661414  1
  Cl  Cl530  1  0.10520085  0.98135795  0.75058132  1
  Cl  Cl531  1  0.61315695  0.31114958  0.75043222  1
  Cl  Cl532  1  0.60943800  0.64445347  0.75164609  1
  Cl  Cl533  1  0.61370058  0.97831851  0.74611995  1
  Cl  Cl534  1  0.39136644  0.01994540  0.24750981  1
  Cl  Cl535  1  0.38912180  0.35432638  0.24989085  1
  Cl  Cl536  1  0.38793461  0.68652736  0.24825185  1
  Cl  Cl537  1  0.88636906  0.02330627  0.24781079  1
  Cl  Cl538  1  0.88914885  0.35355708  0.25502590  1
  Cl  Cl539  1  0.88915079  0.68840083  0.25113371  1
  Cl  Cl540  1  0.39213712  0.31460591  0.74772729  1
  Cl  Cl541  1  0.38849813  0.64639986  0.74697683  1
  Cl  Cl542  1  0.39397905  0.97904413  0.75382095  1
  Cl  Cl543  1  0.88779025  0.31176965  0.74927151  1
  Cl  Cl544  1  0.89050680  0.64763475  0.75135246  1
  Cl  Cl545  1  0.88319887  0.97923570  0.75064479  1
  Cl  Cl546  1  0.10659600  0.02038901  0.25167473  1
  Cl  Cl547  1  0.11434864  0.35508502  0.24771356  1
  Cl  Cl548  1  0.10943484  0.68936998  0.24792554  1
  Cl  Cl549  1  0.61551259  0.01938944  0.25643824  1
  Cl  Cl550  1  0.60861127  0.35592746  0.25262302  1
  Cl  Cl551  1  0.60939168  0.68662463  0.25135637  1
