# generated using pymatgen
data_H8PbC4(N3Cl2)2
_symmetry_space_group_name_H-M   'P 1'
_cell_length_a   16.62694956
_cell_length_b   22.51576739
_cell_length_c   21.59581670
_cell_angle_alpha   89.99969068
_cell_angle_beta   89.98732787
_cell_angle_gamma   89.99187404
_symmetry_Int_Tables_number   1
_chemical_formula_structural   H8PbC4(N3Cl2)2
_chemical_formula_sum   'H192 Pb24 C96 N144 Cl96'
_cell_volume   8084.79384454
_cell_formula_units_Z   24
loop_
 _symmetry_equiv_pos_site_id
 _symmetry_equiv_pos_as_xyz
  1  'x, y, z'
loop_
 _atom_site_type_symbol
 _atom_site_label
 _atom_site_symmetry_multiplicity
 _atom_site_fract_x
 _atom_site_fract_y
 _atom_site_fract_z
 _atom_site_occupancy
  H  H0  1  -0.00619777  0.02812283  0.67637943  1
  H  H1  1  0.00191502  0.36189983  0.67069505  1
  H  H2  1  0.00791011  0.69865051  0.68055870  1
  H  H3  1  0.49608949  0.02798005  0.67432271  1
  H  H4  1  0.49762227  0.36381827  0.68135016  1
  H  H5  1  0.49161508  0.69817938  0.67694932  1
  H  H6  1  0.01196840  0.30072810  0.17491092  1
  H  H7  1  0.00224383  0.63792000  0.17962853  1
  H  H8  1  0.01012053  0.97104953  0.17595883  1
  H  H9  1  0.48638460  0.30369558  0.17804210  1
  H  H10  1  0.48861666  0.64085819  0.17610097  1
  H  H11  1  0.49675405  0.97303943  0.17747224  1
  H  H12  1  -0.00382010  0.02580516  0.82375524  1
  H  H13  1  0.00263948  0.36330625  0.81975821  1
  H  H14  1  0.00196740  0.69671178  0.81772859  1
  H  H15  1  0.50085467  0.02600490  0.82236850  1
  H  H16  1  0.49985796  0.36164264  0.82041126  1
  H  H17  1  0.50447830  0.69861122  0.82035136  1
  H  H18  1  -0.00292682  0.30328882  0.32181453  1
  H  H19  1  0.01648452  0.63716754  0.31766481  1
  H  H20  1  -0.00045673  0.96972323  0.31899832  1
  H  H21  1  0.48461824  0.30240021  0.31964377  1
  H  H22  1  0.49052775  0.63508642  0.31879200  1
  H  H23  1  0.49574461  0.97201581  0.31805865  1
  H  H24  1  0.25779419  0.19304903  0.67818765  1
  H  H25  1  0.25470663  0.53033504  0.68224750  1
  H  H26  1  0.26012889  0.86296151  0.68202287  1
  H  H27  1  0.76159830  0.19862913  0.67749456  1
  H  H28  1  0.75193266  0.53098637  0.67963878  1
  H  H29  1  0.74974877  0.86171756  0.68060501  1
  H  H30  1  0.25108456  0.13944406  0.17481507  1
  H  H31  1  0.24892893  0.46933534  0.17706177  1
  H  H32  1  0.24159579  0.80246752  0.17927718  1
  H  H33  1  0.74173015  0.13673908  0.18117497  1
  H  H34  1  0.74382123  0.47008617  0.18350535  1
  H  H35  1  0.74938802  0.80653840  0.17826343  1
  H  H36  1  0.24634547  0.19456610  0.82383264  1
  H  H37  1  0.25471172  0.53011957  0.82014930  1
  H  H38  1  0.25444597  0.86283184  0.82111773  1
  H  H39  1  0.74548319  0.19606207  0.82023395  1
  H  H40  1  0.74747516  0.53268903  0.82289127  1
  H  H41  1  0.74412242  0.86348519  0.82695054  1
  H  H42  1  0.24986697  0.13309394  0.32028162  1
  H  H43  1  0.27317714  0.46903012  0.32624285  1
  H  H44  1  0.25129460  0.80159687  0.32058190  1
  H  H45  1  0.76031813  0.13799214  0.32464554  1
  H  H46  1  0.73147016  0.47001366  0.32336622  1
  H  H47  1  0.75554368  0.80410388  0.31960865  1
  H  H48  1  0.13320334  0.04741073  0.62170947  1
  H  H49  1  0.12133933  0.38477001  0.59515203  1
  H  H50  1  0.11535357  0.72330037  0.59844990  1
  H  H51  1  0.62951240  0.05431894  0.61494842  1
  H  H52  1  0.62455059  0.38425331  0.61264947  1
  H  H53  1  0.61767139  0.71880908  0.61049644  1
  H  H54  1  0.37274455  0.27320337  0.10102223  1
  H  H55  1  0.38782371  0.60749206  0.09067761  1
  H  H56  1  0.37172601  0.94712782  0.10636550  1
  H  H57  1  0.87282176  0.28367853  0.12221640  1
  H  H58  1  0.88726855  0.61167565  0.10027939  1
  H  H59  1  0.87239321  0.94947300  0.11944945  1
  H  H60  1  0.37501679  0.05409361  0.88838517  1
  H  H61  1  0.36317039  0.38153446  0.87907925  1
  H  H62  1  0.37088334  0.72053752  0.88396400  1
  H  H63  1  0.87740647  0.05416028  0.89666907  1
  H  H64  1  0.86533715  0.38277206  0.87437625  1
  H  H65  1  0.86889096  0.71686377  0.87855527  1
  H  H66  1  0.12412768  0.28021517  0.38645238  1
  H  H67  1  0.12148651  0.61021969  0.40193341  1
  H  H68  1  0.12519235  0.94460646  0.38781680  1
  H  H69  1  0.62586515  0.28437744  0.37251128  1
  H  H70  1  0.62717181  0.61567683  0.37587071  1
  H  H71  1  0.62457674  0.94770265  0.38606571  1
  H  H72  1  0.36257699  0.22252378  0.59227423  1
  H  H73  1  0.37631096  0.55452569  0.61140214  1
  H  H74  1  0.37621373  0.88736136  0.60473807  1
  H  H75  1  0.87138938  0.22472027  0.59676637  1
  H  H76  1  0.87468152  0.55421431  0.60735293  1
  H  H77  1  0.87394597  0.88885472  0.60974742  1
  H  H78  1  0.12340407  0.11446966  0.10956909  1
  H  H79  1  0.13748584  0.43736652  0.09840584  1
  H  H80  1  0.13778485  0.77918535  0.09443068  1
  H  H81  1  0.62431380  0.11303479  0.10681027  1
  H  H82  1  0.63167765  0.44270157  0.10449919  1
  H  H83  1  0.63395157  0.77750118  0.10224572  1
  H  H84  1  0.12619142  0.22310251  0.89578895  1
  H  H85  1  0.11629166  0.54968029  0.87684523  1
  H  H86  1  0.12907917  0.88809399  0.89214558  1
  H  H87  1  0.62766581  0.21946820  0.89505674  1
  H  H88  1  0.61930567  0.55773757  0.88968406  1
  H  H89  1  0.63022170  0.89099875  0.90429015  1
  H  H90  1  0.36353228  0.10910854  0.40135682  1
  H  H91  1  0.36571648  0.43671790  0.41701303  1
  H  H92  1  0.38511605  0.78163991  0.38173152  1
  H  H93  1  0.85998922  0.10776325  0.41177076  1
  H  H94  1  0.87800001  0.45073187  0.36376146  1
  H  H95  1  0.88451057  0.78042678  0.38521357  1
  H  H96  1  0.38226923  0.27227664  0.40660183  1
  H  H97  1  0.37983391  0.61423638  0.39913683  1
  H  H98  1  0.37619216  0.94488805  0.39292735  1
  H  H99  1  0.87540087  0.27790600  0.39354594  1
  H  H100  1  0.87586416  0.61570107  0.37167345  1
  H  H101  1  0.87602302  0.94595457  0.39132667  1
  H  H102  1  0.12638231  0.05412877  0.88698227  1
  H  H103  1  0.11176786  0.38683086  0.90167755  1
  H  H104  1  0.11736627  0.72111948  0.89385597  1
  H  H105  1  0.62350275  0.05260320  0.89404547  1
  H  H106  1  0.61004809  0.38948528  0.90113877  1
  H  H107  1  0.61878758  0.72390589  0.90128508  1
  H  H108  1  0.11789908  0.27435551  0.09340160  1
  H  H109  1  0.13509314  0.61380175  0.11529114  1
  H  H110  1  0.11863749  0.94078073  0.09513700  1
  H  H111  1  0.62074136  0.28236627  0.11679179  1
  H  H112  1  0.62957036  0.62019677  0.12555714  1
  H  H113  1  0.62061180  0.94493878  0.10603161  1
  H  H114  1  0.38274863  0.05771254  0.59811646  1
  H  H115  1  0.37662997  0.38877455  0.60922121  1
  H  H116  1  0.36842419  0.72169804  0.60524310  1
  H  H117  1  0.88803584  0.06172844  0.59445000  1
  H  H118  1  0.87376542  0.38962700  0.60548564  1
  H  H119  1  0.86915719  0.71604885  0.62730923  1
  H  H120  1  0.11610908  0.11334516  0.38503226  1
  H  H121  1  0.12679772  0.45161703  0.36781694  1
  H  H122  1  0.13676248  0.77851291  0.39694075  1
  H  H123  1  0.61709837  0.11770781  0.37213127  1
  H  H124  1  0.63809227  0.44344049  0.41369240  1
  H  H125  1  0.63561198  0.77695220  0.39396887  1
  H  H126  1  0.37507965  0.21872576  0.89015325  1
  H  H127  1  0.36321210  0.55882126  0.90107213  1
  H  H128  1  0.37789968  0.88925762  0.89358046  1
  H  H129  1  0.87639890  0.21707269  0.88269349  1
  H  H130  1  0.86718492  0.55480666  0.89727611  1
  H  H131  1  0.87788409  0.88636374  0.88728270  1
  H  H132  1  0.37240006  0.11262248  0.10263991  1
  H  H133  1  0.38426357  0.44828919  0.11815272  1
  H  H134  1  0.38250660  0.78573210  0.12886734  1
  H  H135  1  0.87319026  0.11596158  0.11794497  1
  H  H136  1  0.87905671  0.44696274  0.12350976  1
  H  H137  1  0.88209114  0.78311480  0.11561709  1
  H  H138  1  0.11853133  0.21790476  0.62589650  1
  H  H139  1  0.12669327  0.55118740  0.61630508  1
  H  H140  1  0.12769941  0.88552666  0.61789480  1
  H  H141  1  0.62589986  0.21498197  0.62244145  1
  H  H142  1  0.62569012  0.55391348  0.60904120  1
  H  H143  1  0.62476291  0.88516009  0.61045530  1
  H  H144  1  0.16629947  0.58250457  0.50464046  1
  H  H145  1  0.67330638  0.91436737  0.50167235  1
  H  H146  1  0.31566474  0.91651245  0.49857729  1
  H  H147  1  0.84496515  0.91559283  0.99517671  1
  H  H148  1  0.32625223  0.58449200  0.50058654  1
  H  H149  1  0.84848017  0.24682905  0.99485534  1
  H  H150  1  0.88537873  0.74542563  0.51286824  1
  H  H151  1  0.19657630  0.75143166  0.50715497  1
  H  H152  1  0.20769134  0.41856395  -0.00436866  1
  H  H153  1  0.14065128  0.57997495  0.98468278  1
  H  H154  1  0.82391304  0.58438039  0.49949727  1
  H  H155  1  0.07793708  0.91388887  0.49649043  1
  H  H156  1  0.08612907  0.24880021  0.49866839  1
  H  H157  1  0.46949812  0.58392655  -0.00732624  1
  H  H158  1  0.59925936  0.08313315  0.50531623  1
  H  H159  1  0.96421547  0.08002355  0.49357707  1
  H  H160  1  0.67878099  0.08134305  -0.00161199  1
  H  H161  1  0.06955129  0.41890831  0.49391681  1
  H  H162  1  0.35497625  0.41112260  0.01260532  1
  H  H163  1  0.64729090  0.24755709  0.50721855  1
  H  H164  1  0.46338375  0.24748523  0.50423339  1
  H  H165  1  0.68069329  0.24780278  1.00357973  1
  H  H166  1  0.21026099  0.75467915  -0.01065968  1
  H  H167  1  0.43623345  0.43590737  0.51555456  1
  H  H168  1  0.57653090  0.74998021  0.49809718  1
  H  H169  1  0.44536919  0.59120580  0.50857656  1
  H  H170  1  0.92994293  0.08919849  1.00300706  1
  H  H171  1  0.28304802  0.24812316  0.49420942  1
  H  H172  1  0.77827764  0.08454368  0.51039553  1
  H  H173  1  0.54108091  0.41299823  1.00744642  1
  H  H174  1  0.37005225  0.75898881  1.01484115  1
  H  H175  1  0.88543141  0.40951580  -0.01122406  1
  H  H176  1  0.27652323  0.41217270  0.51128893  1
  H  H177  1  0.05869724  0.75130192  1.00235487  1
  H  H178  1  0.32008075  0.08389699  -0.00097642  1
  H  H179  1  0.80855507  0.59782527  0.99371982  1
  H  H180  1  0.11066348  0.08564778  0.51631238  1
  H  H181  1  0.29531420  0.58777683  1.00602998  1
  H  H182  1  0.89802184  0.74659096  0.99071199  1
  H  H183  1  0.04487094  0.58391689  0.50557477  1
  H  H184  1  0.04651029  0.75126737  0.49265735  1
  H  H185  1  0.08996097  0.08231248  0.99290894  1
  H  H186  1  0.72341715  0.41464452  0.51293330  1
  H  H187  1  0.66003583  0.58032553  0.99660349  1
  H  H188  1  0.91009862  0.41487816  0.49711565  1
  H  H189  1  0.69888877  0.41194415  -0.00081854  1
  H  H190  1  0.57199446  0.39038852  0.50495723  1
  H  H191  1  0.04473625  0.41110933  1.00857778  1
  Pb  Pb192  1  0.24990949  0.04652626  0.75279043  1
  Pb  Pb193  1  0.23864320  0.38305092  0.75263541  1
  Pb  Pb194  1  0.24517182  0.71367914  0.74670588  1
  Pb  Pb195  1  0.74878340  0.04772046  0.74682431  1
  Pb  Pb196  1  0.74369140  0.37916011  0.75361770  1
  Pb  Pb197  1  0.74004389  0.71714670  0.75749531  1
  Pb  Pb198  1  0.25638080  0.28332050  0.25237559  1
  Pb  Pb199  1  0.25586079  0.61770899  0.25345277  1
  Pb  Pb200  1  0.25560876  0.95074398  0.24891898  1
  Pb  Pb201  1  0.75591260  0.28375346  0.25050407  1
  Pb  Pb202  1  0.75799652  0.61945280  0.24008624  1
  Pb  Pb203  1  0.75111805  0.95360605  0.24925322  1
  Pb  Pb204  1  -0.00362487  0.21384702  0.74777636  1
  Pb  Pb205  1  -0.01153993  0.54933375  0.74765216  1
  Pb  Pb206  1  -0.00206813  0.88116316  0.74993357  1
  Pb  Pb207  1  0.49314002  0.21375815  0.74499944  1
  Pb  Pb208  1  0.49629998  0.54669847  0.75510839  1
  Pb  Pb209  1  0.49783250  0.88118983  0.75066026  1
  Pb  Pb210  1  0.00449455  0.11697703  0.25422256  1
  Pb  Pb211  1  0.00804851  0.45006039  0.24671528  1
  Pb  Pb212  1  0.00613926  0.78703181  0.24617091  1
  Pb  Pb213  1  0.49996527  0.12020620  0.25103290  1
  Pb  Pb214  1  0.50930300  0.45012971  0.26122657  1
  Pb  Pb215  1  0.50981102  0.78473152  0.25165003  1
  C  C216  1  0.00523547  0.04489769  0.62995056  1
  C  C217  1  -0.00098875  0.37845061  0.62338077  1
  C  C218  1  -0.00305738  0.71279389  0.63316557  1
  C  C219  1  0.50352502  0.04531890  0.62791802  1
  C  C220  1  0.49980971  0.37923238  0.63366432  1
  C  C221  1  0.49304347  0.71292247  0.62922392  1
  C  C222  1  0.00052050  0.28610730  0.12801835  1
  C  C223  1  0.00839368  0.62182907  0.13242349  1
  C  C224  1  -0.00000961  0.95444271  0.12970584  1
  C  C225  1  0.49353528  0.28699516  0.13144146  1
  C  C226  1  0.50192268  0.62382915  0.13025022  1
  C  C227  1  0.49630118  0.95565648  0.13064750  1
  C  C228  1  0.00057460  0.04369749  0.87045516  1
  C  C229  1  -0.00721428  0.37715784  0.86733445  1
  C  C230  1  -0.00424608  0.71182423  0.86525457  1
  C  C231  1  0.49998434  0.04347198  0.86886667  1
  C  C232  1  0.49054349  0.37677180  0.86763623  1
  C  C233  1  0.49802604  0.71410297  0.86766678  1
  C  C234  1  -0.00044433  0.28684267  0.36887000  1
  C  C235  1  0.00429936  0.62148265  0.36428799  1
  C  C236  1  0.00016857  0.95349741  0.36626422  1
  C  C237  1  0.49748748  0.28768136  0.36642289  1
  C  C238  1  0.49907862  0.62159391  0.36648599  1
  C  C239  1  0.49899358  0.95552590  0.36522643  1
  C  C240  1  0.24653884  0.20987816  0.63194466  1
  C  C241  1  0.25238040  0.54573066  0.63459428  1
  C  C242  1  0.25436244  0.87824510  0.63454181  1
  C  C243  1  0.75188588  0.21307518  0.63023020  1
  C  C244  1  0.75055473  0.54654072  0.63208080  1
  C  C245  1  0.74967302  0.87841858  0.63351992  1
  C  C246  1  0.24933050  0.12256729  0.12782802  1
  C  C247  1  0.25697127  0.45225806  0.13029473  1
  C  C248  1  0.25457645  0.78904607  0.13203244  1
  C  C249  1  0.74614899  0.12179944  0.13359045  1
  C  C250  1  0.75192311  0.45441341  0.13647579  1
  C  C251  1  0.75550073  0.78961335  0.13170534  1
  C  C252  1  0.24945603  0.21209168  0.87035835  1
  C  C253  1  0.24403702  0.54541182  0.86719859  1
  C  C254  1  0.25379962  0.87908032  0.86843002  1
  C  C255  1  0.74999775  0.21120136  0.86792549  1
  C  C256  1  0.74439954  0.54834260  0.87050058  1
  C  C257  1  0.75131191  0.87931413  0.87397666  1
  C  C258  1  0.24282835  0.11940825  0.36823689  1
  C  C259  1  0.25519451  0.45351830  0.37180475  1
  C  C260  1  0.25760382  0.78754343  0.36831079  1
  C  C261  1  0.74588395  0.12261388  0.37100871  1
  C  C262  1  0.74932574  0.45473949  0.36903323  1
  C  C263  1  0.75833718  0.78781966  0.36664483  1
  C  C264  1  0.77525062  0.24182121  0.53423392  1
  C  C265  1  0.28925037  0.57315888  0.54040084  1
  C  C266  1  0.71539167  0.09326251  0.03811669  1
  C  C267  1  0.72952454  0.42463348  0.04181703  1
  C  C268  1  0.80033824  0.23685847  0.95920796  1
  C  C269  1  0.03832681  0.92525290  0.45814731  1
  C  C270  1  0.21717659  0.24546724  0.96191885  1
  C  C271  1  0.78556513  0.57341625  0.53874883  1
  C  C272  1  0.93525780  0.73682975  0.54580549  1
  C  C273  1  0.69428048  0.23874626  0.54132033  1
  C  C274  1  0.31950934  0.76657700  0.04601396  1
  C  C275  1  0.71239820  0.90513487  0.54089295  1
  C  C276  1  0.93301263  0.40068358  0.95538149  1
  C  C277  1  0.67735448  0.09516983  0.45398536  1
  C  C278  1  0.46903161  0.25324031  0.03846107  1
  C  C279  1  0.51088972  0.40235346  0.96400346  1
  C  C280  1  0.71842350  0.23762793  0.96370130  1
  C  C281  1  0.01933980  0.92077533  0.03556890  1
  C  C282  1  0.01836267  0.59398042  0.46060155  1
  C  C283  1  0.47665468  0.59832577  0.46493352  1
  C  C284  1  0.55682434  0.59822574  0.45476412  1
  C  C285  1  0.93896580  0.26020907  0.04215461  1
  C  C286  1  0.28133857  0.90542165  0.53990494  1
  C  C287  1  0.01637321  0.73953106  0.53568718  1
  C  C288  1  0.82485120  0.42899864  0.44869701  1
  C  C289  1  0.04378170  0.25803304  0.46132046  1
  C  C290  1  0.23037207  0.76188303  0.46533266  1
  C  C291  1  0.94315830  0.73727670  0.95545413  1
  C  C292  1  0.79657335  0.09506798  0.04328956  1
  C  C293  1  0.45920372  0.07617394  0.95916519  1
  C  C294  1  0.31163913  0.76339520  0.45844224  1
  C  C295  1  0.20268072  0.09242982  0.03662796  1
  C  C296  1  0.17916573  0.42861310  0.45256295  1
  C  C297  1  0.26573493  0.57524345  0.96294378  1
  C  C298  1  0.53545989  0.73967338  0.53573436  1
  C  C299  1  0.01401271  0.40176902  0.96516213  1
  C  C300  1  0.96220416  0.25667626  0.46187064  1
  C  C301  1  0.45387281  0.74032696  0.53572191  1
  C  C302  1  0.72835292  0.75656720  0.03872717  1
  C  C303  1  0.96699676  0.07610454  0.96327080  1
  C  C304  1  0.72234281  0.91102956  0.96887695  1
  C  C305  1  0.01830289  0.25712240  0.03250887  1
  C  C306  1  0.74694407  0.42639214  0.46741468  1
  C  C307  1  0.47502243  0.07910871  0.53372800  1
  C  C308  1  0.02497170  0.73933504  0.96104682  1
  C  C309  1  0.23901942  0.76444701  0.03348331  1
  C  C310  1  0.20740686  0.57196120  0.54220210  1
  C  C311  1  0.80210779  0.75931683  0.45737828  1
  N  N312  1  0.94240467  0.92476753  0.04214307  1
  N  N313  1  0.06480889  0.06834232  0.54444976  1
  N  N314  1  0.43231754  0.39952058  0.95685083  1
  N  N315  1  0.94030364  0.59486674  0.45014285  1
  N  N316  1  0.54375163  0.40734693  0.54334085  1
  N  N317  1  0.70635709  0.57291731  0.53876303  1
  N  N318  1  0.45754477  0.92393278  0.03885753  1
  N  N319  1  0.31117124  0.42911722  0.04257200  1
  N  N320  1  0.05706860  0.59418277  0.04220182  1
  N  N321  1  0.56291880  0.26125559  0.45031515  1
  N  N322  1  0.72466305  0.75753159  0.46165954  1
  N  N323  1  0.29063349  0.90859845  0.96148745  1
  N  N324  1  0.23375892  0.41649019  0.03890274  1
  N  N325  1  0.54256737  0.92627371  0.45661586  1
  N  N326  1  0.25947179  0.24165589  0.53841565  1
  N  N327  1  0.26912810  0.09553082  0.46493734  1
  N  N328  1  0.95902546  0.92555037  0.45979996  1
  N  N329  1  0.80815914  0.42637357  0.04838609  1
  N  N330  1  0.79163151  0.90747936  0.54046379  1
  N  N331  1  0.56867767  0.59379100  0.04791021  1
  N  N332  1  0.21451827  0.90767086  0.96115233  1
  N  N333  1  0.49191751  0.58976232  0.03728097  1
  N  N334  1  0.29457301  0.24393612  0.96149425  1
  N  N335  1  0.53367592  0.92342163  0.03873112  1
  N  N336  1  0.95432387  0.41075578  0.53500111  1
  N  N337  1  0.20210130  0.90450573  0.54390987  1
  N  N338  1  0.04661076  0.07610403  0.95868450  1
  N  N339  1  0.25552230  0.42338199  0.46761677  1
  N  N340  1  0.18718236  0.57157208  0.95362349  1
  N  N341  1  0.46227375  0.40202131  0.54020375  1
  N  N342  1  0.28203116  0.09205704  0.03555376  1
  N  N343  1  0.18259876  0.24006238  0.54842828  1
  N  N344  1  0.46589831  0.92513806  0.45879991  1
  N  N345  1  0.98777850  0.08161312  0.53813249  1
  N  N346  1  0.80562430  0.75844316  0.04218244  1
  N  N347  1  0.44840746  0.74163325  0.95701144  1
  N  N348  1  0.54629363  0.25671463  0.04196558  1
  N  N349  1  0.53700137  0.07587588  0.96209127  1
  N  N350  1  0.48648946  0.25635306  0.46017587  1
  N  N351  1  0.69980923  0.57841073  0.95928933  1
  N  N352  1  0.98067133  0.59267762  0.03747586  1
  N  N353  1  0.75474601  0.09185615  0.46625386  1
  N  N354  1  0.77825299  0.56919901  0.96509688  1
  N  N355  1  0.03194983  0.40072843  0.52869584  1
  N  N356  1  0.19278230  0.09813188  0.45974953  1
  N  N357  1  0.55337553  0.07587139  0.53998892  1
  N  N358  1  0.80083974  0.90852250  0.96209122  1
  N  N359  1  0.52414738  0.74259723  0.96289937  1
  N  N360  1  0.07611264  0.05486996  0.60415891  1
  N  N361  1  0.06043269  0.38812114  0.58551555  1
  N  N362  1  0.05354003  0.72432653  0.59044615  1
  N  N363  1  0.57165828  0.05396326  0.59800129  1
  N  N364  1  0.56468513  0.38314909  0.59842961  1
  N  N365  1  0.55860335  0.72238554  0.59497654  1
  N  N366  1  0.43405794  0.27169209  0.09184713  1
  N  N367  1  0.45000965  0.61042701  0.08611710  1
  N  N368  1  0.43269804  0.94369960  0.09587607  1
  N  N369  1  0.92821709  0.27773118  0.10121594  1
  N  N370  1  0.94938325  0.60961115  0.09319575  1
  N  N371  1  0.93031725  0.94601279  0.10193122  1
  N  N372  1  0.43438993  0.05694238  0.90266220  1
  N  N373  1  0.42113937  0.38383314  0.89638603  1
  N  N374  1  0.43041541  0.72450437  0.89820664  1
  N  N375  1  0.93818602  0.05696685  0.90809613  1
  N  N376  1  0.92129415  0.38559877  0.89474277  1
  N  N377  1  0.92667950  0.72053651  0.89585268  1
  N  N378  1  0.06578225  0.27658629  0.40209527  1
  N  N379  1  0.05926962  0.60984393  0.40820173  1
  N  N380  1  0.06523348  0.94209676  0.40099618  1
  N  N381  1  0.56946481  0.27890442  0.39152705  1
  N  N382  1  0.57016016  0.61203293  0.39550555  1
  N  N383  1  0.56414469  0.94439914  0.39845688  1
  N  N384  1  0.29967066  0.22079985  0.58793031  1
  N  N385  1  0.31606869  0.55691526  0.59823859  1
  N  N386  1  0.31476927  0.88956179  0.59512613  1
  N  N387  1  0.80964660  0.22630883  0.58775425  1
  N  N388  1  0.81424410  0.55743617  0.59574316  1
  N  N389  1  0.81302523  0.89074957  0.59848703  1
  N  N390  1  0.18248413  0.11077080  0.09398166  1
  N  N391  1  0.19932667  0.44066577  0.08964206  1
  N  N392  1  0.19994786  0.77842663  0.08761551  1
  N  N393  1  0.68498758  0.11018924  0.09544155  1
  N  N394  1  0.69349206  0.44197407  0.09557773  1
  N  N395  1  0.69529953  0.77544817  0.09247463  1
  N  N396  1  0.18673831  0.22635931  0.90715245  1
  N  N397  1  0.17406335  0.55279294  0.89490812  1
  N  N398  1  0.18999550  0.88905625  0.90373185  1
  N  N399  1  0.68848631  0.22173955  0.90646705  1
  N  N400  1  0.67860522  0.55650409  0.90404210  1
  N  N401  1  0.69132415  0.89313684  0.91434233  1
  N  N402  1  0.30124510  0.10850978  0.40845975  1
  N  N403  1  0.30337080  0.44035703  0.41844536  1
  N  N404  1  0.32733740  0.77847059  0.39959522  1
  N  N405  1  0.79763527  0.11187875  0.41594733  1
  N  N406  1  0.82550543  0.44576616  0.38893572  1
  N  N407  1  0.82532697  0.77723281  0.39993902  1
  N  N408  1  0.44499208  0.27527553  0.41062070  1
  N  N409  1  0.44111424  0.61263555  0.40831307  1
  N  N410  1  0.43775915  0.94372711  0.40256002  1
  N  N411  1  0.93585763  0.27406031  0.40614657  1
  N  N412  1  0.93344563  0.61177403  0.39018413  1
  N  N413  1  0.93701397  0.94287109  0.40208321  1
  N  N414  1  0.06693033  0.05427819  0.90216532  1
  N  N415  1  0.04999031  0.38692539  0.90983075  1
  N  N416  1  0.05637174  0.72351559  0.90448177  1
  N  N417  1  0.56246178  0.05506620  0.90469648  1
  N  N418  1  0.54793870  0.38879335  0.90954867  1
  N  N419  1  0.55645330  0.72554303  0.90767892  1
  N  N420  1  0.05636675  0.27289166  0.08481319  1
  N  N421  1  0.07551430  0.61219702  0.10105475  1
  N  N422  1  0.05682863  0.93901838  0.08796465  1
  N  N423  1  0.56154911  0.27809844  0.10134953  1
  N  N424  1  0.57409431  0.61313448  0.10646807  1
  N  N425  1  0.55937618  0.94328898  0.09543512  1
  N  N426  1  0.44377318  0.06033263  0.58789266  1
  N  N427  1  0.43746570  0.39516976  0.59949558  1
  N  N428  1  0.42856386  0.72416025  0.59226954  1
  N  N429  1  0.95014088  0.05737330  0.58744193  1
  N  N430  1  0.93335686  0.38999771  0.59080725  1
  N  N431  1  0.92505953  0.72046298  0.60651785  1
  N  N432  1  0.17520601  0.11299189  0.39984435  1
  N  N433  1  0.17924302  0.44615694  0.39274407  1
  N  N434  1  0.19768797  0.77704594  0.40803437  1
  N  N435  1  0.67158557  0.11267938  0.39437960  1
  N  N436  1  0.70028400  0.44297264  0.41635738  1
  N  N437  1  0.69730355  0.77598656  0.40359594  1
  N  N438  1  0.31491091  0.22294845  0.90308632  1
  N  N439  1  0.30142088  0.55893145  0.90926507  1
  N  N440  1  0.31666048  0.89103438  0.90402058  1
  N  N441  1  0.81806291  0.22067000  0.89938325  1
  N  N442  1  0.80617170  0.56083214  0.90678379  1
  N  N443  1  0.81939862  0.88795119  0.90393603  1
  N  N444  1  0.31128091  0.11142284  0.09161395  1
  N  N445  1  0.32609753  0.44190431  0.10197743  1
  N  N446  1  0.32745013  0.78129694  0.10712765  1
  N  N447  1  0.81485340  0.11203235  0.10112000  1
  N  N448  1  0.82069393  0.44502852  0.10731516  1
  N  N449  1  0.82287906  0.77904441  0.10120150  1
  N  N450  1  0.17534749  0.22240029  0.60721575  1
  N  N451  1  0.18575505  0.55498231  0.60110428  1
  N  N452  1  0.18724197  0.88765899  0.60305902  1
  N  N453  1  0.68117783  0.22098102  0.60221487  1
  N  N454  1  0.68631397  0.55629366  0.59717917  1
  N  N455  1  0.68502786  0.88806027  0.59778589  1
  Cl  Cl456  1  0.25914928  0.05180646  0.62148038  1
  Cl  Cl457  1  0.25286778  0.38897076  0.60492800  1
  Cl  Cl458  1  0.24058484  0.72127831  0.61376492  1
  Cl  Cl459  1  0.76612250  0.06394008  0.60382222  1
  Cl  Cl460  1  0.74885694  0.38908447  0.61856262  1
  Cl  Cl461  1  0.74158786  0.71739685  0.63061536  1
  Cl  Cl462  1  0.24607250  0.27818485  0.12065527  1
  Cl  Cl463  1  0.26414356  0.60464020  0.11127660  1
  Cl  Cl464  1  0.24435969  0.95071607  0.11733752  1
  Cl  Cl465  1  0.74379809  0.28143536  0.11897049  1
  Cl  Cl466  1  0.76395012  0.61238711  0.10269380  1
  Cl  Cl467  1  0.74437476  0.94389077  0.11449777  1
  Cl  Cl468  1  0.25046682  0.06090465  0.88931928  1
  Cl  Cl469  1  0.23413674  0.39360564  0.89197935  1
  Cl  Cl470  1  0.24285413  0.71715742  0.88189686  1
  Cl  Cl471  1  0.75041393  0.05135119  0.87962299  1
  Cl  Cl472  1  0.73069493  0.39357134  0.88731503  1
  Cl  Cl473  1  0.73990771  0.71969725  0.89301041  1
  Cl  Cl474  1  0.26388697  0.27271297  0.39877050  1
  Cl  Cl475  1  0.24892402  0.60875622  0.38756863  1
  Cl  Cl476  1  0.25339140  0.94310113  0.38446368  1
  Cl  Cl477  1  0.75332899  0.28242182  0.38222036  1
  Cl  Cl478  1  0.75171172  0.61425369  0.37027972  1
  Cl  Cl479  1  0.74908279  0.95004837  0.38257981  1
  Cl  Cl480  1  -0.00769396  0.22294951  0.61255819  1
  Cl  Cl481  1  0.00083169  0.55150100  0.61203437  1
  Cl  Cl482  1  0.00065932  0.88983914  0.61774774  1
  Cl  Cl483  1  0.47960130  0.22696480  0.59847962  1
  Cl  Cl484  1  0.49935388  0.55068054  0.62194171  1
  Cl  Cl485  1  0.49984346  0.88602730  0.61847750  1
  Cl  Cl486  1  0.00105018  0.11280086  0.12049250  1
  Cl  Cl487  1  0.01596014  0.44049269  0.11408967  1
  Cl  Cl488  1  0.01519790  0.77995165  0.11165409  1
  Cl  Cl489  1  0.49547830  0.11560926  0.11959329  1
  Cl  Cl490  1  0.50903887  0.44384465  0.12042344  1
  Cl  Cl491  1  0.51244229  0.77762087  0.12225101  1
  Cl  Cl492  1  0.00353264  0.21740533  0.87789973  1
  Cl  Cl493  1  -0.01051950  0.55169590  0.87959927  1
  Cl  Cl494  1  0.00491369  0.89288969  0.88304198  1
  Cl  Cl495  1  0.50179470  0.21756961  0.87530841  1
  Cl  Cl496  1  0.48929005  0.56040980  0.89700681  1
  Cl  Cl497  1  0.50379516  0.88991446  0.88199592  1
  Cl  Cl498  1  -0.01697290  0.10289734  0.39669867  1
  Cl  Cl499  1  0.00361869  0.44259449  0.38202370  1
  Cl  Cl500  1  0.01153328  0.77743872  0.38045446  1
  Cl  Cl501  1  0.48652583  0.11236143  0.38713173  1
  Cl  Cl502  1  0.49724369  0.43966509  0.40337086  1
  Cl  Cl503  1  0.51214429  0.77571417  0.38563640  1
  Cl  Cl504  1  0.35444470  0.15153785  0.75306564  1
  Cl  Cl505  1  0.35758331  0.47967062  0.75368321  1
  Cl  Cl506  1  0.35881051  0.81338571  0.75276149  1
  Cl  Cl507  1  0.85617729  0.15091016  0.75174344  1
  Cl  Cl508  1  0.85337155  0.48126788  0.75541711  1
  Cl  Cl509  1  0.86291007  0.81134375  0.75654069  1
  Cl  Cl510  1  0.13695936  0.18636647  0.25527823  1
  Cl  Cl511  1  0.14215614  0.51810331  0.25297042  1
  Cl  Cl512  1  0.14629320  0.84885926  0.25018136  1
  Cl  Cl513  1  0.63337920  0.19032882  0.26039183  1
  Cl  Cl514  1  0.64295898  0.51953797  0.24729770  1
  Cl  Cl515  1  0.64746395  0.84903806  0.25336232  1
  Cl  Cl516  1  0.13449722  0.14619532  0.74500084  1
  Cl  Cl517  1  0.13798187  0.47948801  0.74810666  1
  Cl  Cl518  1  0.13638133  0.81535794  0.74815612  1
  Cl  Cl519  1  0.63513057  0.14720388  0.73667911  1
  Cl  Cl520  1  0.63595458  0.48285102  0.74907052  1
  Cl  Cl521  1  0.64477911  0.81791156  0.75424521  1
  Cl  Cl522  1  0.35322707  0.18534040  0.25030503  1
  Cl  Cl523  1  0.35841776  0.51625536  0.24672399  1
  Cl  Cl524  1  0.36405438  0.85377100  0.24767846  1
  Cl  Cl525  1  0.85483977  0.18556715  0.24852683  1
  Cl  Cl526  1  0.86698750  0.51998548  0.25071780  1
  Cl  Cl527  1  0.86771336  0.85556574  0.24389071  1
  Cl  Cl528  1  0.10724873  0.31554658  0.73844921  1
  Cl  Cl529  1  0.10681186  0.64620954  0.74915224  1
  Cl  Cl530  1  0.11120317  0.98125423  0.74717759  1
  Cl  Cl531  1  0.60651736  0.31356892  0.74315784  1
  Cl  Cl532  1  0.60318561  0.64949616  0.75638157  1
  Cl  Cl533  1  0.61306506  0.98081831  0.74223807  1
  Cl  Cl534  1  0.39050721  0.01844813  0.24838869  1
  Cl  Cl535  1  0.39044964  0.35341096  0.24957492  1
  Cl  Cl536  1  0.39112788  0.68733652  0.24940760  1
  Cl  Cl537  1  0.88688055  0.02072585  0.24297656  1
  Cl  Cl538  1  0.88787280  0.35494674  0.24315773  1
  Cl  Cl539  1  0.89114268  0.68828911  0.25119867  1
  Cl  Cl540  1  0.38968931  0.31683258  0.74954731  1
  Cl  Cl541  1  0.38295660  0.64611629  0.75233308  1
  Cl  Cl542  1  0.39321424  0.98522984  0.75027479  1
  Cl  Cl543  1  0.88754407  0.31677987  0.75313447  1
  Cl  Cl544  1  0.88559383  0.64531760  0.74982088  1
  Cl  Cl545  1  0.89052791  0.98465019  0.74839511  1
  Cl  Cl546  1  0.10596778  0.02030923  0.25300235  1
  Cl  Cl547  1  0.10740937  0.35129579  0.25747491  1
  Cl  Cl548  1  0.11433910  0.68325119  0.24548548  1
  Cl  Cl549  1  0.61265163  0.02175823  0.25331729  1
  Cl  Cl550  1  0.61035203  0.35619883  0.25537190  1
  Cl  Cl551  1  0.61475313  0.68136629  0.24674133  1
