# generated using pymatgen
data_H8PbC4(N3Cl2)2
_symmetry_space_group_name_H-M   'P 1'
_cell_length_a   16.62063180
_cell_length_b   22.49928071
_cell_length_c   21.58704617
_cell_angle_alpha   90.00102850
_cell_angle_beta   90.00576802
_cell_angle_gamma   89.99879860
_symmetry_Int_Tables_number   1
_chemical_formula_structural   H8PbC4(N3Cl2)2
_chemical_formula_sum   'H192 Pb24 C96 N144 Cl96'
_cell_volume   8072.52466690
_cell_formula_units_Z   24
loop_
 _symmetry_equiv_pos_site_id
 _symmetry_equiv_pos_as_xyz
  1  'x, y, z'
loop_
 _atom_site_type_symbol
 _atom_site_label
 _atom_site_symmetry_multiplicity
 _atom_site_fract_x
 _atom_site_fract_y
 _atom_site_fract_z
 _atom_site_occupancy
  H  H0  1  -0.00510663  0.03413107  0.67877098  1
  H  H1  1  -0.00022745  0.36639457  0.68146168  1
  H  H2  1  0.00114382  0.69967630  0.68063159  1
  H  H3  1  0.50017096  0.03318251  0.68087992  1
  H  H4  1  0.50053157  0.36558217  0.67916121  1
  H  H5  1  0.49877279  0.69448464  0.67845245  1
  H  H6  1  0.00605649  0.29964073  0.17924670  1
  H  H7  1  0.00645097  0.63355921  0.18023255  1
  H  H8  1  0.00356335  0.96786106  0.18218759  1
  H  H9  1  0.50142464  0.30037217  0.17805753  1
  H  H10  1  0.49670214  0.63406376  0.18449043  1
  H  H11  1  0.49113690  0.96575519  0.17909109  1
  H  H12  1  0.00450036  0.03380651  0.82046421  1
  H  H13  1  0.00222414  0.36551741  0.81657888  1
  H  H14  1  -0.00164667  0.70074122  0.81830673  1
  H  H15  1  0.50205874  0.03251104  0.81980209  1
  H  H16  1  0.49546203  0.36516919  0.81916875  1
  H  H17  1  0.50261741  0.69995149  0.82021261  1
  H  H18  1  -0.00181727  0.30291003  0.31805544  1
  H  H19  1  -0.00466346  0.63281142  0.32017177  1
  H  H20  1  -0.00685813  0.96790917  0.31762244  1
  H  H21  1  0.49282852  0.30170391  0.31991072  1
  H  H22  1  0.49269268  0.63169173  0.32215816  1
  H  H23  1  0.50223769  0.96799227  0.32034589  1
  H  H24  1  0.24188949  0.19930770  0.68077145  1
  H  H25  1  0.25434195  0.53101358  0.67761205  1
  H  H26  1  0.24428550  0.86588624  0.68238554  1
  H  H27  1  0.75684632  0.19858868  0.68061657  1
  H  H28  1  0.75395114  0.53099113  0.68058434  1
  H  H29  1  0.75512189  0.86624071  0.68090448  1
  H  H30  1  0.24573725  0.13394678  0.17876177  1
  H  H31  1  0.24194753  0.46603890  0.18146223  1
  H  H32  1  0.24521892  0.80121929  0.17887273  1
  H  H33  1  0.74672461  0.13416516  0.17862964  1
  H  H34  1  0.74783991  0.46706533  0.18195221  1
  H  H35  1  0.75570426  0.80164291  0.18019552  1
  H  H36  1  0.24397135  0.19951993  0.82122952  1
  H  H37  1  0.25417200  0.53323543  0.81697432  1
  H  H38  1  0.24632762  0.86549415  0.81993425  1
  H  H39  1  0.74884112  0.19904100  0.82225340  1
  H  H40  1  0.74308138  0.53263595  0.82119389  1
  H  H41  1  0.75408859  0.86584340  0.81800572  1
  H  H42  1  0.25146234  0.13356084  0.31785890  1
  H  H43  1  0.25044093  0.46912156  0.32099967  1
  H  H44  1  0.25972229  0.79960799  0.31739593  1
  H  H45  1  0.75453166  0.13399788  0.32191468  1
  H  H46  1  0.74951282  0.46775142  0.31866241  1
  H  H47  1  0.74125558  0.79974631  0.31958963  1
  H  H48  1  0.12681662  0.05212342  0.61687392  1
  H  H49  1  0.12444452  0.38826691  0.60874937  1
  H  H50  1  0.11911526  0.72102784  0.60611136  1
  H  H51  1  0.62843833  0.05349895  0.61410508  1
  H  H52  1  0.62396736  0.38787975  0.60779704  1
  H  H53  1  0.62325182  0.72072043  0.60935394  1
  H  H54  1  0.37116708  0.27922903  0.11232700  1
  H  H55  1  0.37531537  0.61307905  0.11208096  1
  H  H56  1  0.37671953  0.94400066  0.10162614  1
  H  H57  1  0.87214658  0.28072360  0.11636591  1
  H  H58  1  0.86997576  0.61511232  0.12054888  1
  H  H59  1  0.87212911  0.94693791  0.11662539  1
  H  H60  1  0.36782960  0.05217753  0.88280931  1
  H  H61  1  0.37303212  0.38770842  0.89338078  1
  H  H62  1  0.37448256  0.72029394  0.88829270  1
  H  H63  1  0.87110596  0.05365115  0.88368689  1
  H  H64  1  0.87209886  0.38469542  0.88111844  1
  H  H65  1  0.87996378  0.72144800  0.89242930  1
  H  H66  1  0.12441924  0.27932481  0.38793671  1
  H  H67  1  0.13481568  0.61619250  0.37507516  1
  H  H68  1  0.12822272  0.94768958  0.37999313  1
  H  H69  1  0.62476652  0.28025235  0.38444330  1
  H  H70  1  0.62804918  0.61451706  0.38031056  1
  H  H71  1  0.62542800  0.94603713  0.39182067  1
  H  H72  1  0.37732312  0.21843804  0.61938196  1
  H  H73  1  0.36796131  0.55553758  0.59727325  1
  H  H74  1  0.37394864  0.88645105  0.61462471  1
  H  H75  1  0.87128076  0.22303574  0.60096850  1
  H  H76  1  0.86835408  0.55738955  0.60174835  1
  H  H77  1  0.87153848  0.89034553  0.60291381  1
  H  H78  1  0.13108176  0.11139310  0.09975373  1
  H  H79  1  0.13108937  0.44187420  0.09875845  1
  H  H80  1  0.12962786  0.77618019  0.09989630  1
  H  H81  1  0.63271131  0.10809040  0.10048545  1
  H  H82  1  0.62556824  0.44392056  0.10824427  1
  H  H83  1  0.62173795  0.78216855  0.11979391  1
  H  H84  1  0.12973857  0.22230023  0.90018302  1
  H  H85  1  0.12534830  0.55513061  0.88517091  1
  H  H86  1  0.12912474  0.88903513  0.89821156  1
  H  H87  1  0.62997651  0.22360123  0.89687678  1
  H  H88  1  0.63402384  0.55817915  0.90359073  1
  H  H89  1  0.62507901  0.88633791  0.88485524  1
  H  H90  1  0.37324890  0.11346246  0.38997546  1
  H  H91  1  0.37530196  0.44713791  0.39210431  1
  H  H92  1  0.36964207  0.77717032  0.39788342  1
  H  H93  1  0.87147322  0.10991546  0.39819275  1
  H  H94  1  0.87463794  0.44553680  0.39082628  1
  H  H95  1  0.87933478  0.78126729  0.37695152  1
  H  H96  1  0.37638308  0.27867659  0.39763908  1
  H  H97  1  0.38113475  0.61029521  0.40100131  1
  H  H98  1  0.37630067  0.94530963  0.38969354  1
  H  H99  1  0.87443576  0.27939360  0.38830399  1
  H  H100  1  0.88751027  0.60981377  0.40212998  1
  H  H101  1  0.88008588  0.94620806  0.39807994  1
  H  H102  1  0.11914114  0.05755361  0.89889805  1
  H  H103  1  0.12127621  0.38594466  0.89132641  1
  H  H104  1  0.12915865  0.71928927  0.88334038  1
  H  H105  1  0.61700635  0.05578015  0.89794713  1
  H  H106  1  0.62151163  0.38594996  0.88939373  1
  H  H107  1  0.62384406  0.72185213  0.89328910  1
  H  H108  1  0.12013757  0.27539886  0.10076801  1
  H  H109  1  0.11788844  0.61158793  0.09888392  1
  H  H110  1  0.12107786  0.94592300  0.10508168  1
  H  H111  1  0.62003174  0.27662154  0.10338887  1
  H  H112  1  0.62478248  0.61396622  0.11832762  1
  H  H113  1  0.62444119  0.94841687  0.11855319  1
  H  H114  1  0.37973079  0.05572728  0.60568365  1
  H  H115  1  0.37489744  0.38718989  0.60870102  1
  H  H116  1  0.37448264  0.71959017  0.60826173  1
  H  H117  1  0.87904278  0.05596274  0.60316836  1
  H  H118  1  0.87544278  0.38784689  0.60830559  1
  H  H119  1  0.87038317  0.71925157  0.61637663  1
  H  H120  1  0.12375590  0.11378987  0.38491508  1
  H  H121  1  0.12613584  0.44521511  0.39113547  1
  H  H122  1  0.12245248  0.78214999  0.37432459  1
  H  H123  1  0.62278531  0.11421103  0.38576216  1
  H  H124  1  0.62553126  0.44646606  0.39238154  1
  H  H125  1  0.63197805  0.77514441  0.40208266  1
  H  H126  1  0.37767822  0.21937039  0.88384619  1
  H  H127  1  0.37530311  0.55403145  0.89044944  1
  H  H128  1  0.37749824  0.88632474  0.88549709  1
  H  H129  1  0.87893735  0.21991137  0.88794872  1
  H  H130  1  0.88055938  0.55177365  0.87751091  1
  H  H131  1  0.87390132  0.88877589  0.89411093  1
  H  H132  1  0.37898285  0.11340273  0.11592922  1
  H  H133  1  0.37744978  0.44792660  0.12108955  1
  H  H134  1  0.37739306  0.78207884  0.11622139  1
  H  H135  1  0.88037033  0.11691042  0.11526567  1
  H  H136  1  0.87365229  0.44551454  0.11141113  1
  H  H137  1  0.86974484  0.77667434  0.10046082  1
  H  H138  1  0.13000295  0.22315600  0.59812713  1
  H  H139  1  0.12062241  0.55256528  0.61476407  1
  H  H140  1  0.12523596  0.88852050  0.60707461  1
  H  H141  1  0.62301686  0.21859272  0.62011119  1
  H  H142  1  0.62014413  0.55008590  0.61967241  1
  H  H143  1  0.62238932  0.88638402  0.61848537  1
  H  H144  1  0.56725319  0.73610406  0.50121141  1
  H  H145  1  0.58482120  0.58858156  0.00456697  1
  H  H146  1  0.40062454  0.07847487  0.99026057  1
  H  H147  1  0.16967878  0.58307784  0.99147135  1
  H  H148  1  0.15966566  0.08451065  0.49628739  1
  H  H149  1  0.83908349  0.24978501  0.99433074  1
  H  H150  1  0.66359351  0.91494519  0.99535601  1
  H  H151  1  0.07529464  0.25985897  0.49573794  1
  H  H152  1  0.43218259  0.73307521  0.50120451  1
  H  H153  1  0.32071017  0.57388614  1.00338541  1
  H  H154  1  0.41100257  0.25045094  0.00557064  1
  H  H155  1  0.65816028  0.08427821  0.49282486  1
  H  H156  1  0.81007697  0.92014624  0.50070681  1
  H  H157  1  0.32641558  0.08637479  0.50018376  1
  H  H158  1  0.05107351  0.58859449  -0.00924115  1
  H  H159  1  0.57609174  0.75192252  1.00197047  1
  H  H160  1  0.69923187  0.09259772  -0.00352958  1
  H  H161  1  0.80681459  0.24529935  0.49738353  1
  H  H162  1  0.41444275  0.75066717  0.99385019  1
  H  H163  1  0.64532493  0.58064893  0.50739822  1
  H  H164  1  0.80443144  0.57581970  0.49738357  1
  H  H165  1  0.06027582  0.91847466  -0.00257285  1
  H  H166  1  0.06915799  0.74948542  0.49711471  1
  H  H167  1  0.84714198  0.08116917  0.01091230  1
  H  H168  1  0.42278484  0.91901226  0.49574542  1
  H  H169  1  0.80306123  0.75296018  -0.00289957  1
  H  H170  1  0.20261234  0.41217162  -0.00048589  1
  H  H171  1  0.89613916  0.58742848  0.01101334  1
  H  H172  1  0.20166187  0.24926485  0.49716854  1
  H  H173  1  0.92392249  0.25501121  0.50068553  1
  H  H174  1  0.55656722  0.07986626  1.00667143  1
  H  H175  1  0.85894992  0.75296160  0.48663625  1
  H  H176  1  0.06827512  0.41083405  1.00184818  1
  H  H177  1  0.95551736  0.58283669  0.50860296  1
  H  H178  1  0.70562439  0.58275136  1.00548120  1
  H  H179  1  0.70062201  0.75004215  0.50801832  1
  H  H180  1  0.65350886  0.91592935  0.50627303  1
  H  H181  1  0.42670674  0.59227026  -0.00128883  1
  H  H182  1  0.94617730  0.92165922  0.50513619  1
  H  H183  1  0.65215712  0.24935726  0.50808059  1
  H  H184  1  0.90650146  0.41137558  0.99363344  1
  H  H185  1  0.18050153  0.91554535  0.49940816  1
  H  H186  1  0.15087467  0.58204250  0.50685859  1
  H  H187  1  0.19384241  0.91439518  1.00158662  1
  H  H188  1  0.42633980  0.41548306  0.99641192  1
  H  H189  1  0.67966213  0.41425888  0.00506092  1
  H  H190  1  0.30406244  0.75166713  0.50624684  1
  H  H191  1  0.93442528  0.74881488  1.00381720  1
  Pb  Pb192  1  0.25026064  0.04760349  0.74931729  1
  Pb  Pb193  1  0.25255413  0.38006513  0.75426278  1
  Pb  Pb194  1  0.25238303  0.71321427  0.74721608  1
  Pb  Pb195  1  0.75154975  0.04858925  0.75207533  1
  Pb  Pb196  1  0.74818035  0.37975148  0.75207905  1
  Pb  Pb197  1  0.74887872  0.71526774  0.75386693  1
  Pb  Pb198  1  0.25294516  0.28570292  0.25319172  1
  Pb  Pb199  1  0.24891259  0.61780883  0.24364491  1
  Pb  Pb200  1  0.24926012  0.95422746  0.24530539  1
  Pb  Pb201  1  0.74736451  0.28496743  0.25015948  1
  Pb  Pb202  1  0.75233320  0.61832109  0.25389867  1
  Pb  Pb203  1  0.75211559  0.95283204  0.25639874  1
  Pb  Pb204  1  0.00330427  0.21501578  0.74629920  1
  Pb  Pb205  1  0.00001279  0.54667050  0.74980056  1
  Pb  Pb206  1  0.00363379  0.88181184  0.74980892  1
  Pb  Pb207  1  0.50074766  0.21221406  0.75488269  1
  Pb  Pb208  1  0.49983626  0.54536913  0.75344885  1
  Pb  Pb209  1  0.49871077  0.88196347  0.74738144  1
  Pb  Pb210  1  0.00037452  0.12162573  0.24877789  1
  Pb  Pb211  1  0.00119540  0.44938883  0.24605965  1
  Pb  Pb212  1  0.00137992  0.78674279  0.24320212  1
  Pb  Pb213  1  0.50127711  0.11807587  0.24647472  1
  Pb  Pb214  1  0.49988326  0.45281809  0.24964491  1
  Pb  Pb215  1  0.49846579  0.78559548  0.25598290  1
  C  C216  1  0.00037966  0.04761703  0.63083394  1
  C  C217  1  -0.00013360  0.38081007  0.63351538  1
  C  C218  1  -0.00279893  0.71353708  0.63264565  1
  C  C219  1  0.50264606  0.04731095  0.63311233  1
  C  C220  1  0.49961859  0.38033645  0.63157499  1
  C  C221  1  0.49883092  0.71048306  0.63084224  1
  C  C222  1  -0.00092323  0.28555429  0.13175247  1
  C  C223  1  -0.00256136  0.61959818  0.13249877  1
  C  C224  1  -0.00125169  0.95339045  0.13446183  1
  C  C225  1  0.49709616  0.28566819  0.13040376  1
  C  C226  1  0.49899814  0.61978710  0.13646161  1
  C  C227  1  0.49756646  0.95250511  0.13113274  1
  C  C228  1  -0.00221067  0.04790912  0.86797502  1
  C  C229  1  -0.00170615  0.37948417  0.86464255  1
  C  C230  1  0.00219032  0.71416730  0.86637509  1
  C  C231  1  0.49496555  0.04683895  0.86760944  1
  C  C232  1  0.49629070  0.37992672  0.86696528  1
  C  C233  1  0.49991806  0.71464648  0.86825583  1
  C  C234  1  -0.00034021  0.28783058  0.36585491  1
  C  C235  1  0.00575083  0.61955405  0.36775945  1
  C  C236  1  0.00073439  0.95392358  0.36535371  1
  C  C237  1  0.49833666  0.28715635  0.36738954  1
  C  C238  1  0.50088891  0.61896080  0.36999828  1
  C  C239  1  0.50085132  0.95309040  0.36805490  1
  C  C240  1  0.24930279  0.21363451  0.63311553  1
  C  C241  1  0.24716875  0.54601077  0.63015203  1
  C  C242  1  0.24806355  0.88031831  0.63452189  1
  C  C243  1  0.75078979  0.21311583  0.63276423  1
  C  C244  1  0.74786322  0.54562100  0.63281122  1
  C  C245  1  0.74985083  0.88124975  0.63313587  1
  C  C246  1  0.25236046  0.11958403  0.13131742  1
  C  C247  1  0.24989215  0.45173456  0.13385909  1
  C  C248  1  0.25049036  0.78652003  0.13138661  1
  C  C249  1  0.75350507  0.11984987  0.13076338  1
  C  C250  1  0.74879155  0.45204815  0.13418847  1
  C  C251  1  0.74944433  0.78714230  0.13256328  1
  C  C252  1  0.25083484  0.21380713  0.86869089  1
  C  C253  1  0.25116923  0.54778075  0.86496046  1
  C  C254  1  0.25067041  0.88006958  0.86771710  1
  C  C255  1  0.75299711  0.21410950  0.86978356  1
  C  C256  1  0.75234314  0.54689577  0.86870583  1
  C  C257  1  0.75118519  0.88061399  0.86572981  1
  C  C258  1  0.24939992  0.11960997  0.36601654  1
  C  C259  1  0.25081083  0.45369593  0.36837389  1
  C  C260  1  0.25075413  0.78634935  0.36514216  1
  C  C261  1  0.74917352  0.11908408  0.36945514  1
  C  C262  1  0.74991396  0.45319279  0.36656744  1
  C  C263  1  0.75152443  0.78531048  0.36712199  1
  C  C264  1  0.21368021  0.42416360  0.46024901  1
  C  C265  1  0.69340518  0.57095784  0.54348815  1
  C  C266  1  0.69788362  0.90585420  0.54281834  1
  C  C267  1  0.05134477  0.07186652  0.54041766  1
  C  C268  1  0.97046979  0.07325337  0.53567402  1
  C  C269  1  0.02878454  0.73919667  0.53621363  1
  C  C270  1  0.02148703  0.59605218  0.03513102  1
  C  C271  1  0.71804731  0.24371801  0.96431598  1
  C  C272  1  0.47686491  0.59502887  0.46613798  1
  C  C273  1  0.19168900  0.76325849  0.45333904  1
  C  C274  1  0.05151125  0.73792715  0.95787406  1
  C  C275  1  0.27234009  0.76154510  0.46333803  1
  C  C276  1  0.28676730  0.09518677  0.46119600  1
  C  C277  1  0.02476606  0.25781454  0.03641838  1
  C  C278  1  0.98714649  0.59374844  0.46587830  1
  C  C279  1  0.54628489  0.07284907  0.54098806  1
  C  C280  1  0.21717465  0.90506448  0.53966516  1
  C  C281  1  0.70791462  0.90504104  0.95774924  1
  C  C282  1  0.78113994  0.09007301  0.46488808  1
  C  C283  1  0.22604197  0.09183357  0.03612705  1
  C  C284  1  0.97748514  0.93020793  0.46164772  1
  C  C285  1  0.69674140  0.24012679  0.54393048  1
  C  C286  1  0.95951546  0.26130227  0.45894635  1
  C  C287  1  0.54426926  0.59735176  0.04302852  1
  C  C288  1  0.94986596  0.40224563  0.95713138  1
  C  C289  1  0.54176908  0.92639254  0.46220111  1
  C  C290  1  0.29946023  0.76067900  0.04105877  1
  C  C291  1  0.55043945  0.92856211  0.04123336  1
  C  C292  1  0.46958305  0.92683966  0.03545528  1
  C  C293  1  0.94712633  0.73806064  0.54113243  1
  C  C294  1  0.53676906  0.74097624  0.96256053  1
  C  C295  1  0.69344185  0.76091578  0.04300667  1
  C  C296  1  0.81263497  0.57270717  0.95625583  1
  C  C297  1  0.20442441  0.09494979  0.45920877  1
  C  C298  1  0.02656499  0.92822910  0.03940091  1
  C  C299  1  0.97023190  0.73888603  0.96289535  1
  C  C300  1  0.06752817  0.59637592  0.45492144  1
  C  C301  1  0.55659846  0.59614595  0.45909890  1
  C  C302  1  0.52382566  0.07117351  0.96396317  1
  C  C303  1  0.03190785  0.40241454  0.96095197  1
  C  C304  1  0.46232697  0.59791767  0.04054119  1
  C  C305  1  0.28780406  0.57056260  0.96009552  1
  C  C306  1  0.46998236  0.25886368  0.46186174  1
  C  C307  1  0.22516479  0.24127240  0.96401724  1
  C  C308  1  0.53201330  0.25721211  0.03548939  1
  C  C309  1  0.73053234  0.75971492  0.46428863  1
  C  C310  1  0.53576632  0.40811649  0.53889976  1
  C  C311  1  0.02410432  0.07520442  0.96325177  1
  N  N312  1  0.78714030  0.90549390  0.96173026  1
  N  N313  1  0.45689338  0.74003296  0.95987676  1
  N  N314  1  0.53925691  0.74601553  0.54250415  1
  N  N315  1  0.19805923  0.57251624  0.54185810  1
  N  N316  1  0.30340576  0.09239679  0.04032083  1
  N  N317  1  0.94744267  0.92805476  0.04311374  1
  N  N318  1  0.46250268  0.92650242  0.46034301  1
  N  N319  1  0.29112203  0.42479205  0.46188199  1
  N  N320  1  0.71513078  0.42806558  0.04119179  1
  N  N321  1  0.80476451  0.09881415  0.04119344  1
  N  N322  1  0.73423569  0.57472378  0.96417201  1
  N  N323  1  0.30189253  0.90589319  0.95799780  1
  N  N324  1  0.70228858  0.09238401  0.45950485  1
  N  N325  1  0.44468155  0.07075322  0.95726046  1
  N  N326  1  0.03818963  0.40567168  0.53940878  1
  N  N327  1  0.79709636  0.24148296  0.96038834  1
  N  N328  1  0.77287356  0.57410127  0.53826382  1
  N  N329  1  0.20846973  0.57137033  0.95683892  1
  N  N330  1  0.96183912  0.40561289  0.53927400  1
  N  N331  1  0.29655352  0.90428899  0.54164103  1
  N  N332  1  0.45888294  0.74589323  0.54210026  1
  N  N333  1  0.94672754  0.07309188  0.95971253  1
  N  N334  1  0.54133758  0.40482365  0.95972433  1
  N  N335  1  0.30253310  0.24049800  0.95982413  1
  N  N336  1  0.77613135  0.24212669  0.53850603  1
  N  N337  1  0.22212259  0.75828768  0.03474977  1
  N  N338  1  0.77238845  0.75943844  0.03774439  1
  N  N339  1  0.94273624  0.59650693  0.04398295  1
  N  N340  1  0.45841494  0.40820828  0.53792519  1
  N  N341  1  0.77742865  0.90552704  0.53796961  1
  N  N342  1  0.05638850  0.92998405  0.45543745  1
  N  N343  1  0.27550480  0.57397897  0.53473953  1
  N  N344  1  0.30817619  0.42936552  0.04500444  1
  N  N345  1  0.22886130  0.23935937  0.53850578  1
  N  N346  1  0.72664570  0.08687537  0.03869027  1
  N  N347  1  0.45294630  0.25887677  0.03962408  1
  N  N348  1  0.03915339  0.25955165  0.45738966  1
  N  N349  1  0.23032455  0.42802126  0.03858686  1
  N  N350  1  0.46851334  0.07368865  0.53691804  1
  N  N351  1  0.79341982  0.42733977  0.04130255  1
  N  N352  1  0.94742651  0.26000637  0.04025011  1
  N  N353  1  0.80917143  0.76190291  0.45478818  1
  N  N354  1  0.78886727  0.42771100  0.46036649  1
  N  N355  1  0.71255253  0.42792064  0.46076197  1
  N  N356  1  0.30634420  0.23775388  0.54442757  1
  N  N357  1  0.22413423  0.90674760  0.96107552  1
  N  N358  1  0.54733417  0.25926038  0.45898468  1
  N  N359  1  0.46281969  0.40532285  0.95944377  1
  N  N360  1  0.06917639  0.05637709  0.59892441  1
  N  N361  1  0.06333393  0.39050386  0.59775701  1
  N  N362  1  0.05864065  0.72371202  0.59460321  1
  N  N363  1  0.56926717  0.05689077  0.59920049  1
  N  N364  1  0.56401748  0.39139202  0.59529262  1
  N  N365  1  0.56279450  0.72121574  0.59608759  1
  N  N366  1  0.43084862  0.27660114  0.09812380  1
  N  N367  1  0.43525735  0.61158721  0.09904232  1
  N  N368  1  0.43743899  0.94150243  0.09056233  1
  N  N369  1  0.93132259  0.27750718  0.10109016  1
  N  N370  1  0.92835485  0.61039159  0.10396104  1
  N  N371  1  0.93199863  0.94355325  0.10248271  1
  N  N372  1  0.42715395  0.05561577  0.89809732  1
  N  N373  1  0.43404554  0.39045061  0.90348347  1
  N  N374  1  0.43473805  0.72435939  0.90166582  1
  N  N375  1  0.93016253  0.05607266  0.89876591  1
  N  N376  1  0.93062162  0.38828886  0.89713122  1
  N  N377  1  0.94038460  0.72395621  0.90454271  1
  N  N378  1  0.06380114  0.27943785  0.40081449  1
  N  N379  1  0.07821469  0.61184891  0.39531105  1
  N  N380  1  0.06896209  0.94502786  0.39553317  1
  N  N381  1  0.56523676  0.27736872  0.39864002  1
  N  N382  1  0.57150430  0.61082653  0.39962214  1
  N  N383  1  0.56563842  0.94238587  0.40487764  1
  N  N384  1  0.31856112  0.22242477  0.60358528  1
  N  N385  1  0.30597885  0.55739512  0.58983917  1
  N  N386  1  0.31378293  0.88906362  0.60124357  1
  N  N387  1  0.80953231  0.22235139  0.59256530  1
  N  N388  1  0.80656004  0.55560428  0.59280530  1
  N  N389  1  0.80947290  0.89174318  0.59406147  1
  N  N390  1  0.19243920  0.10825295  0.09072294  1
  N  N391  1  0.19329224  0.43961402  0.09278517  1
  N  N392  1  0.19145599  0.77476347  0.09232633  1
  N  N393  1  0.69434637  0.11033399  0.09082933  1
  N  N394  1  0.68659911  0.44144126  0.09778222  1
  N  N395  1  0.67932849  0.77734742  0.10192516  1
  N  N396  1  0.19106436  0.22515128  0.90943575  1
  N  N397  1  0.18591117  0.55795102  0.89811326  1
  N  N398  1  0.19092847  0.88967996  0.90696952  1
  N  N399  1  0.69060083  0.22656171  0.90840823  1
  N  N400  1  0.69608717  0.55715933  0.91050244  1
  N  N401  1  0.68455019  0.89006654  0.89917413  1
  N  N402  1  0.31310728  0.11032792  0.40286022  1
  N  N403  1  0.31450428  0.44349431  0.40344694  1
  N  N404  1  0.30836556  0.77613363  0.40690716  1
  N  N405  1  0.81046670  0.10674849  0.40914424  1
  N  N406  1  0.81359417  0.44305705  0.40191146  1
  N  N407  1  0.82132725  0.77738560  0.39500798  1
  N  N408  1  0.43733687  0.27566038  0.40705213  1
  N  N409  1  0.44228418  0.60863849  0.41191159  1
  N  N410  1  0.43673661  0.94347289  0.40249886  1
  N  N411  1  0.93467863  0.27701450  0.40180448  1
  N  N412  1  0.94949971  0.60869838  0.41021434  1
  N  N413  1  0.94175781  0.94426301  0.40654127  1
  N  N414  1  0.05779147  0.05975180  0.90840329  1
  N  N415  1  0.06064191  0.38849603  0.90289866  1
  N  N416  1  0.07042503  0.72320357  0.89966493  1
  N  N417  1  0.55541500  0.05678188  0.90818767  1
  N  N418  1  0.56118359  0.38925334  0.90178866  1
  N  N419  1  0.56345670  0.72484357  0.90556419  1
  N  N420  1  0.05879951  0.27351590  0.09119634  1
  N  N421  1  0.05608120  0.61006456  0.09015600  1
  N  N422  1  0.05970457  0.94346275  0.09514208  1
  N  N423  1  0.55952942  0.27382999  0.09155369  1
  N  N424  1  0.56562586  0.61086099  0.10287060  1
  N  N425  1  0.56697586  0.94402025  0.09994272  1
  N  N426  1  0.44129791  0.05737578  0.59579933  1
  N  N427  1  0.43556837  0.39053785  0.59688907  1
  N  N428  1  0.43512658  0.72029566  0.59560794  1
  N  N429  1  0.93960522  0.05857431  0.59100055  1
  N  N430  1  0.93655640  0.39043723  0.59761378  1
  N  N431  1  0.92888431  0.72263570  0.59979244  1
  N  N432  1  0.18300964  0.11010468  0.39969495  1
  N  N433  1  0.18600000  0.44166182  0.40395237  1
  N  N434  1  0.17924249  0.77801148  0.39404449  1
  N  N435  1  0.68208290  0.11004064  0.40065269  1
  N  N436  1  0.68680117  0.44368445  0.40274856  1
  N  N437  1  0.69409268  0.77414080  0.40990238  1
  N  N438  1  0.31857288  0.22332775  0.89886427  1
  N  N439  1  0.31501994  0.55608640  0.90303610  1
  N  N440  1  0.31794486  0.89025305  0.89943119  1
  N  N441  1  0.81924509  0.22314594  0.90209956  1
  N  N442  1  0.82401669  0.55620507  0.89685596  1
  N  N443  1  0.81254146  0.89040527  0.90362270  1
  N  N444  1  0.31994446  0.10994571  0.10099542  1
  N  N445  1  0.31936119  0.44501355  0.10416339  1
  N  N446  1  0.31908271  0.77758611  0.09973574  1
  N  N447  1  0.82155465  0.11004296  0.10073040  1
  N  N448  1  0.81357864  0.44309290  0.09916475  1
  N  N449  1  0.80786368  0.77696828  0.09249828  1
  N  N450  1  0.19206883  0.22395199  0.59185206  1
  N  N451  1  0.17953170  0.55545955  0.59961747  1
  N  N452  1  0.18601548  0.89046414  0.59622697  1
  N  N453  1  0.68107980  0.22345008  0.60270210  1
  N  N454  1  0.67816768  0.55492339  0.60255663  1
  N  N455  1  0.68078998  0.89014241  0.60177700  1
  Cl  Cl456  1  0.25563820  0.05441457  0.61619996  1
  Cl  Cl457  1  0.24778464  0.38496706  0.62265633  1
  Cl  Cl458  1  0.25181542  0.72043562  0.61274636  1
  Cl  Cl459  1  0.75199390  0.05306261  0.61797016  1
  Cl  Cl460  1  0.75138418  0.38373420  0.62128448  1
  Cl  Cl461  1  0.74374843  0.72201070  0.61376410  1
  Cl  Cl462  1  0.24599119  0.28143359  0.12033707  1
  Cl  Cl463  1  0.24328917  0.60888022  0.10674391  1
  Cl  Cl464  1  0.24411469  0.94471494  0.10884325  1
  Cl  Cl465  1  0.74647755  0.27803432  0.11584427  1
  Cl  Cl466  1  0.74640931  0.61237973  0.11025592  1
  Cl  Cl467  1  0.74868175  0.94961658  0.12500591  1
  Cl  Cl468  1  0.24333035  0.05226599  0.88249721  1
  Cl  Cl469  1  0.24749533  0.38874280  0.89349622  1
  Cl  Cl470  1  0.25363507  0.71546674  0.87880806  1
  Cl  Cl471  1  0.74058669  0.06128042  0.89272537  1
  Cl  Cl472  1  0.74361954  0.38602107  0.88844883  1
  Cl  Cl473  1  0.75278582  0.72091077  0.89056238  1
  Cl  Cl474  1  0.24670157  0.27702846  0.39219683  1
  Cl  Cl475  1  0.25895826  0.61496228  0.37463345  1
  Cl  Cl476  1  0.25316964  0.94554042  0.37850180  1
  Cl  Cl477  1  0.75258617  0.27293561  0.38982464  1
  Cl  Cl478  1  0.76256991  0.61114246  0.38998135  1
  Cl  Cl479  1  0.75424014  0.94463057  0.39641507  1
  Cl  Cl480  1  0.00333064  0.22460919  0.60229444  1
  Cl  Cl481  1  -0.00638652  0.55651617  0.61584037  1
  Cl  Cl482  1  -0.00569522  0.88944327  0.61409441  1
  Cl  Cl483  1  0.50006677  0.21591779  0.62474142  1
  Cl  Cl484  1  0.49214335  0.55280106  0.62120913  1
  Cl  Cl485  1  0.49772659  0.88693223  0.61189093  1
  Cl  Cl486  1  0.00509488  0.11642110  0.11522253  1
  Cl  Cl487  1  0.00538132  0.44573704  0.10964993  1
  Cl  Cl488  1  -0.00251630  0.77685776  0.10920883  1
  Cl  Cl489  1  0.50965632  0.11091024  0.10921666  1
  Cl  Cl490  1  0.50217453  0.44423329  0.11356929  1
  Cl  Cl491  1  0.49887248  0.78048560  0.12101802  1
  Cl  Cl492  1  0.00394588  0.21781447  0.87901847  1
  Cl  Cl493  1  0.00556723  0.55661183  0.88625841  1
  Cl  Cl494  1  0.00597087  0.88769695  0.88513201  1
  Cl  Cl495  1  0.50385612  0.22076075  0.89052864  1
  Cl  Cl496  1  0.50645768  0.55579648  0.88958232  1
  Cl  Cl497  1  0.50087617  0.88301871  0.87860818  1
  Cl  Cl498  1  -0.00456315  0.11722021  0.38032301  1
  Cl  Cl499  1  -0.00139163  0.44851174  0.37682611  1
  Cl  Cl500  1  -0.00116506  0.78179132  0.37581425  1
  Cl  Cl501  1  0.49969272  0.11577901  0.37685101  1
  Cl  Cl502  1  0.50185846  0.44932671  0.38004668  1
  Cl  Cl503  1  0.50452300  0.77353385  0.39901598  1
  Cl  Cl504  1  0.36420395  0.14310313  0.75294927  1
  Cl  Cl505  1  0.35922580  0.47761956  0.75225276  1
  Cl  Cl506  1  0.36354733  0.81001081  0.74902467  1
  Cl  Cl507  1  0.85830595  0.14246904  0.75119712  1
  Cl  Cl508  1  0.86363219  0.47773763  0.75495684  1
  Cl  Cl509  1  0.85757458  0.80997799  0.74903425  1
  Cl  Cl510  1  0.13682332  0.18983013  0.25253108  1
  Cl  Cl511  1  0.14019202  0.52535438  0.24995684  1
  Cl  Cl512  1  0.13624166  0.85606918  0.25223195  1
  Cl  Cl513  1  0.64049186  0.18932189  0.25057218  1
  Cl  Cl514  1  0.63901933  0.52462778  0.24688437  1
  Cl  Cl515  1  0.63941391  0.85514876  0.25040701  1
  Cl  Cl516  1  0.13866717  0.14447434  0.74817660  1
  Cl  Cl517  1  0.13585667  0.47777124  0.75246666  1
  Cl  Cl518  1  0.13791585  0.81084894  0.75117146  1
  Cl  Cl519  1  0.63746273  0.14427521  0.75028026  1
  Cl  Cl520  1  0.63981410  0.47855473  0.75054146  1
  Cl  Cl521  1  0.63763494  0.80944368  0.74661958  1
  Cl  Cl522  1  0.36213214  0.19041608  0.24635333  1
  Cl  Cl523  1  0.36287629  0.52267838  0.24431425  1
  Cl  Cl524  1  0.36357835  0.85520178  0.24906327  1
  Cl  Cl525  1  0.86262968  0.18921710  0.24789564  1
  Cl  Cl526  1  0.85988942  0.52433787  0.24500441  1
  Cl  Cl527  1  0.86162203  0.85656984  0.25309230  1
  Cl  Cl528  1  0.10887644  0.30870331  0.75007517  1
  Cl  Cl529  1  0.11263120  0.64392342  0.75251079  1
  Cl  Cl530  1  0.11051041  0.97669304  0.74757817  1
  Cl  Cl531  1  0.61244619  0.31103979  0.75164608  1
  Cl  Cl532  1  0.61149045  0.64501601  0.74895889  1
  Cl  Cl533  1  0.61140476  0.97668508  0.74942962  1
  Cl  Cl534  1  0.38876356  0.02339659  0.24930853  1
  Cl  Cl535  1  0.38716867  0.35708025  0.24650498  1
  Cl  Cl536  1  0.39289179  0.69054157  0.24975529  1
  Cl  Cl537  1  0.88616968  0.02297029  0.24673208  1
  Cl  Cl538  1  0.88812741  0.35694494  0.24588780  1
  Cl  Cl539  1  0.88623968  0.68971414  0.24731840  1
  Cl  Cl540  1  0.38674215  0.31036730  0.75099738  1
  Cl  Cl541  1  0.38815806  0.64481792  0.75331639  1
  Cl  Cl542  1  0.38783211  0.97584160  0.75069754  1
  Cl  Cl543  1  0.88695347  0.30936830  0.75129767  1
  Cl  Cl544  1  0.88583062  0.64437443  0.74828820  1
  Cl  Cl545  1  0.88438227  0.97743609  0.75203906  1
  Cl  Cl546  1  0.11372203  0.02261757  0.25378717  1
  Cl  Cl547  1  0.11145290  0.35728233  0.24996213  1
  Cl  Cl548  1  0.11112998  0.68983670  0.25195872  1
  Cl  Cl549  1  0.61228967  0.02271061  0.24942316  1
  Cl  Cl550  1  0.61335775  0.35532787  0.24889215  1
  Cl  Cl551  1  0.61472061  0.68987040  0.25153913  1
