# generated using pymatgen
data_H8PbC4(N3Cl2)2
_symmetry_space_group_name_H-M   'P 1'
_cell_length_a   16.62606999
_cell_length_b   22.51162203
_cell_length_c   21.59288949
_cell_angle_alpha   90.00021104
_cell_angle_beta   90.00409356
_cell_angle_gamma   89.99993065
_symmetry_Int_Tables_number   1
_chemical_formula_structural   H8PbC4(N3Cl2)2
_chemical_formula_sum   'H192 Pb24 C96 N144 Cl96'
_cell_volume   8081.78241079
_cell_formula_units_Z   24
loop_
 _symmetry_equiv_pos_site_id
 _symmetry_equiv_pos_as_xyz
  1  'x, y, z'
loop_
 _atom_site_type_symbol
 _atom_site_label
 _atom_site_symmetry_multiplicity
 _atom_site_fract_x
 _atom_site_fract_y
 _atom_site_fract_z
 _atom_site_occupancy
  H  H0  1  -0.00025155  0.03156766  0.68022728  1
  H  H1  1  -0.00797326  0.36610047  0.67863418  1
  H  H2  1  0.00760301  0.69583864  0.67609176  1
  H  H3  1  0.49833405  0.03111900  0.68167396  1
  H  H4  1  0.50410589  0.36773095  0.67583833  1
  H  H5  1  0.49598027  0.69398513  0.67944326  1
  H  H6  1  -0.01163419  0.30183980  0.18158606  1
  H  H7  1  0.01272551  0.63755679  0.17905969  1
  H  H8  1  0.01489190  0.97165638  0.18176269  1
  H  H9  1  0.50813486  0.30095699  0.17790181  1
  H  H10  1  0.49149900  0.63697514  0.18081177  1
  H  H11  1  0.48498045  0.96900344  0.17991268  1
  H  H12  1  0.00730763  0.03160121  0.82345051  1
  H  H13  1  0.00216225  0.36399910  0.82126320  1
  H  H14  1  -0.00559249  0.69726085  0.82395731  1
  H  H15  1  0.49230663  0.02774558  0.82259230  1
  H  H16  1  0.50373191  0.36642756  0.82009177  1
  H  H17  1  0.49848286  0.69683223  0.82264637  1
  H  H18  1  0.00262121  0.30265984  0.32239336  1
  H  H19  1  -0.00411857  0.63903965  0.32301517  1
  H  H20  1  -0.00874214  0.96907679  0.32024310  1
  H  H21  1  0.50068902  0.30634562  0.32344833  1
  H  H22  1  0.49743785  0.63821974  0.32141918  1
  H  H23  1  0.50671665  0.96913405  0.31924722  1
  H  H24  1  0.24379434  0.19563689  0.67735638  1
  H  H25  1  0.25319082  0.52828144  0.67840458  1
  H  H26  1  0.26023563  0.86138426  0.67360270  1
  H  H27  1  0.74520394  0.19787073  0.68034575  1
  H  H28  1  0.76121341  0.53313907  0.67594657  1
  H  H29  1  0.73960143  0.86385877  0.68211248  1
  H  H30  1  0.25499037  0.13458917  0.18059477  1
  H  H31  1  0.25042575  0.46883748  0.18130271  1
  H  H32  1  0.25354679  0.80146344  0.17944181  1
  H  H33  1  0.73636337  0.13571091  0.17616154  1
  H  H34  1  0.74446513  0.47077754  0.18025157  1
  H  H35  1  0.75830464  0.80315149  0.17591512  1
  H  H36  1  0.24573421  0.19892720  0.82188430  1
  H  H37  1  0.26498215  0.53188262  0.81828672  1
  H  H38  1  0.24807846  0.86259607  0.81644420  1
  H  H39  1  0.75005733  0.19542928  0.81877310  1
  H  H40  1  0.73330184  0.53428114  0.82710297  1
  H  H41  1  0.74841214  0.86241082  0.81941470  1
  H  H42  1  0.23679617  0.13327260  0.32455248  1
  H  H43  1  0.25484085  0.47175381  0.32107285  1
  H  H44  1  0.24405063  0.80140705  0.32415375  1
  H  H45  1  0.75387776  0.13654953  0.31790436  1
  H  H46  1  0.75141940  0.47076563  0.31975371  1
  H  H47  1  0.74145954  0.80061826  0.32185848  1
  H  H48  1  0.12439980  0.05573595  0.60871016  1
  H  H49  1  0.13045034  0.38316067  0.62407807  1
  H  H50  1  0.11335090  0.72604881  0.59172629  1
  H  H51  1  0.61829195  0.05565719  0.60604948  1
  H  H52  1  0.62701378  0.38948038  0.60623866  1
  H  H53  1  0.61795030  0.71960176  0.60621850  1
  H  H54  1  0.36719443  0.28152726  0.12503092  1
  H  H55  1  0.37761748  0.61340776  0.10124033  1
  H  H56  1  0.38053387  0.94026189  0.09432114  1
  H  H57  1  0.87131895  0.27643570  0.10294362  1
  H  H58  1  0.87625250  0.61721330  0.11926221  1
  H  H59  1  0.87575002  0.95032821  0.12610329  1
  H  H60  1  0.37990276  0.05740400  0.90158166  1
  H  H61  1  0.36598392  0.38342626  0.87841481  1
  H  H62  1  0.38065055  0.72315806  0.89806250  1
  H  H63  1  0.87473490  0.05456541  0.88694188  1
  H  H64  1  0.86449270  0.38518510  0.87528960  1
  H  H65  1  0.88000508  0.72306858  0.90134150  1
  H  H66  1  0.11265125  0.27217131  0.40241515  1
  H  H67  1  0.12989700  0.61542790  0.38313983  1
  H  H68  1  0.13059422  0.95027505  0.37677856  1
  H  H69  1  0.61416485  0.27844241  0.40126344  1
  H  H70  1  0.63020889  0.61617998  0.38380829  1
  H  H71  1  0.62831158  0.94674910  0.39229642  1
  H  H72  1  0.38353416  0.21725802  0.62338643  1
  H  H73  1  0.37055304  0.55442361  0.60222874  1
  H  H74  1  0.36607606  0.89368536  0.59135119  1
  H  H75  1  0.88279498  0.21654207  0.62200788  1
  H  H76  1  0.86552382  0.55801968  0.59237832  1
  H  H77  1  0.87018492  0.88695194  0.61673178  1
  H  H78  1  0.12152721  0.11652351  0.11851363  1
  H  H79  1  0.13468843  0.44480066  0.10480594  1
  H  H80  1  0.12014462  0.78005323  0.11731075  1
  H  H81  1  0.62812317  0.10694925  0.09418382  1
  H  H82  1  0.63467796  0.44588739  0.09792970  1
  H  H83  1  0.62055115  0.78272943  0.11908951  1
  H  H84  1  0.13485211  0.22282033  0.90088900  1
  H  H85  1  0.12747592  0.55108349  0.87707741  1
  H  H86  1  0.12372725  0.88450188  0.88582315  1
  H  H87  1  0.63465028  0.22008647  0.89621922  1
  H  H88  1  0.63212370  0.56067648  0.91417660  1
  H  H89  1  0.62493924  0.88796737  0.88816179  1
  H  H90  1  0.37733025  0.11724344  0.37499109  1
  H  H91  1  0.36810284  0.44247804  0.39983317  1
  H  H92  1  0.37734565  0.78170770  0.38272187  1
  H  H93  1  0.87663059  0.11169713  0.39076200  1
  H  H94  1  0.86565491  0.44785942  0.39961125  1
  H  H95  1  0.88123086  0.78258639  0.37549767  1
  H  H96  1  0.36722890  0.28398903  0.38508652  1
  H  H97  1  0.38221207  0.61006428  0.39911508  1
  H  H98  1  0.38028806  0.94551408  0.38764863  1
  H  H99  1  0.86629362  0.28278359  0.38145231  1
  H  H100  1  0.88187202  0.60969484  0.40136596  1
  H  H101  1  0.88457367  0.94213536  0.40376888  1
  H  H102  1  0.12210480  0.05823027  0.90204631  1
  H  H103  1  0.11110396  0.38796794  0.90295609  1
  H  H104  1  0.12755330  0.71770489  0.88221270  1
  H  H105  1  0.62741161  0.05238751  0.88017385  1
  H  H106  1  0.61096496  0.39359939  0.90407202  1
  H  H107  1  0.62920828  0.71934440  0.88910580  1
  H  H108  1  0.11902362  0.28021379  0.11558683  1
  H  H109  1  0.12390733  0.61096607  0.09822668  1
  H  H110  1  0.12167176  0.94439450  0.09856583  1
  H  H111  1  0.61278021  0.27393509  0.09405757  1
  H  H112  1  0.62583903  0.61553206  0.11848087  1
  H  H113  1  0.62484767  0.95039240  0.12518619  1
  H  H114  1  0.36959538  0.05275470  0.61565406  1
  H  H115  1  0.37840248  0.38607156  0.60847309  1
  H  H116  1  0.36901363  0.72050326  0.61271383  1
  H  H117  1  0.87563596  0.05430939  0.60670957  1
  H  H118  1  0.88395538  0.39434081  0.59545258  1
  H  H119  1  0.86862728  0.71398139  0.61931298  1
  H  H120  1  0.13303715  0.10875566  0.40803015  1
  H  H121  1  0.12065701  0.44943879  0.38130044  1
  H  H122  1  0.12968801  0.77577128  0.40102662  1
  H  H123  1  0.62715479  0.11431122  0.38634876  1
  H  H124  1  0.61719080  0.44760304  0.38209758  1
  H  H125  1  0.63432903  0.77558251  0.40345815  1
  H  H126  1  0.38250104  0.21669673  0.87952045  1
  H  H127  1  0.37458324  0.55811961  0.90018683  1
  H  H128  1  0.37354096  0.88518676  0.88480188  1
  H  H129  1  0.88323683  0.22013695  0.88169872  1
  H  H130  1  0.87502485  0.55044183  0.87462992  1
  H  H131  1  0.87426854  0.88409066  0.88761645  1
  H  H132  1  0.37018017  0.11143031  0.10404544  1
  H  H133  1  0.38333803  0.44737847  0.11807810  1
  H  H134  1  0.36838362  0.77684257  0.09981281  1
  H  H135  1  0.87422462  0.11582885  0.11967142  1
  H  H136  1  0.88177013  0.44911007  0.12218266  1
  H  H137  1  0.86690487  0.77327063  0.09477142  1
  H  H138  1  0.13980259  0.22392622  0.59114522  1
  H  H139  1  0.12181916  0.55166471  0.61464416  1
  H  H140  1  0.12095430  0.88085830  0.61892624  1
  H  H141  1  0.63652122  0.22629405  0.59900501  1
  H  H142  1  0.62070905  0.54773219  0.62405602  1
  H  H143  1  0.62079989  0.88479961  0.60635253  1
  H  H144  1  0.88921246  0.74495232  0.50891018  1
  H  H145  1  0.05700934  0.58252777  -0.00615431  1
  H  H146  1  0.11181455  0.41441262  0.51035403  1
  H  H147  1  0.44846489  0.08496785  1.00337165  1
  H  H148  1  0.19432373  0.41570610  -0.00371024  1
  H  H149  1  0.67746595  0.90240515  0.49504750  1
  H  H150  1  0.86511673  0.58233889  -0.01070515  1
  H  H151  1  0.67377163  0.08413685  0.49605781  1
  H  H152  1  0.54661495  0.26585420  0.50529073  1
  H  H153  1  0.19830743  0.25095496  1.00869342  1
  H  H154  1  0.53617346  0.42149333  1.00345551  1
  H  H155  1  0.10184280  0.75017944  0.99615815  1
  H  H156  1  0.31102470  0.08431290  -0.00579590  1
  H  H157  1  0.66965252  0.91641749  0.99882954  1
  H  H158  1  0.04805668  0.91637660  -0.00501635  1
  H  H159  1  0.45948849  0.91663537  -0.00462956  1
  H  H160  1  0.30388871  0.58944691  1.00357927  1
  H  H161  1  0.21818757  0.24578809  0.49165017  1
  H  H162  1  0.14395822  0.91988661  0.51346388  1
  H  H163  1  0.04368284  0.41382655  1.00967722  1
  H  H164  1  0.44345443  0.58699423  -0.00528313  1
  H  H165  1  0.58816386  0.74675470  0.99454258  1
  H  H166  1  0.89550009  0.24550430  0.48675259  1
  H  H167  1  0.91223148  0.08226261  0.99356512  1
  H  H168  1  0.70646969  0.25159630  0.49383006  1
  H  H169  1  0.59908192  0.58272477  0.49443651  1
  H  H170  1  0.83286179  0.91352434  0.99839137  1
  H  H171  1  0.39992152  0.24947062  0.49025352  1
  H  H172  1  0.43463509  0.89953803  0.48345136  1
  H  H173  1  0.70430432  0.41898370  -0.00671867  1
  H  H174  1  0.95588383  0.42586666  0.49752896  1
  H  H175  1  0.15785324  0.58350232  0.50469268  1
  H  H176  1  0.28904877  0.91303467  0.49105028  1
  H  H177  1  0.88378591  0.41223390  -0.01093173  1
  H  H178  1  0.69764575  0.24846971  1.00313941  1
  H  H179  1  0.38188485  0.25119493  0.01331423  1
  H  H180  1  0.40433579  0.08337466  0.50410101  1
  H  H181  1  0.32899527  0.90797305  0.99824035  1
  H  H182  1  0.70401558  0.74197885  0.50805165  1
  H  H183  1  0.56840362  0.94789821  0.49833605  1
  H  H184  1  0.34931822  0.41831737  0.01121154  1
  H  H185  1  0.16930294  0.91164815  0.99777146  1
  H  H186  1  0.82977962  0.90799825  0.50847666  1
  H  H187  1  0.53932555  0.24408307  -0.00918728  1
  H  H188  1  0.04230218  0.25366115  0.50484480  1
  H  H189  1  0.79994709  0.42328427  0.50660074  1
  H  H190  1  0.95751432  0.91803311  0.50832570  1
  H  H191  1  0.35096915  0.74889775  0.49666520  1
  Pb  Pb192  1  0.24699034  0.05025862  0.75618528  1
  Pb  Pb193  1  0.24767112  0.37895720  0.75704214  1
  Pb  Pb194  1  0.24989572  0.71291744  0.74429133  1
  Pb  Pb195  1  0.75193602  0.04651920  0.74560569  1
  Pb  Pb196  1  0.74610701  0.38496785  0.74795667  1
  Pb  Pb197  1  0.74855906  0.71226927  0.75226490  1
  Pb  Pb198  1  0.24828494  0.28634719  0.25788609  1
  Pb  Pb199  1  0.25176097  0.62022267  0.24522609  1
  Pb  Pb200  1  0.25182275  0.95300323  0.24469954  1
  Pb  Pb201  1  0.74743533  0.28748173  0.24633280  1
  Pb  Pb202  1  0.75094165  0.62020715  0.25300955  1
  Pb  Pb203  1  0.75526084  0.95098403  0.26031651  1
  Pb  Pb204  1  -0.00057356  0.21635240  0.74427780  1
  Pb  Pb205  1  -0.00012166  0.54705469  0.74619470  1
  Pb  Pb206  1  -0.00028007  0.87889400  0.75115843  1
  Pb  Pb207  1  0.50502845  0.21510593  0.74715986  1
  Pb  Pb208  1  0.49694430  0.54662167  0.75784062  1
  Pb  Pb209  1  0.49651863  0.88253722  0.74525436  1
  Pb  Pb210  1  -0.00004312  0.12061381  0.25262243  1
  Pb  Pb211  1  -0.00016274  0.45445821  0.25663162  1
  Pb  Pb212  1  0.00428549  0.78533869  0.24591686  1
  Pb  Pb213  1  0.50445967  0.11735881  0.24163340  1
  Pb  Pb214  1  0.50083371  0.45362606  0.24343659  1
  Pb  Pb215  1  0.50135119  0.78624142  0.24991025  1
  C  C216  1  -0.00024966  0.04726759  0.63274777  1
  C  C217  1  0.00201808  0.38168946  0.63158497  1
  C  C218  1  -0.00403402  0.71111065  0.62920986  1
  C  C219  1  0.49556662  0.04689774  0.63428205  1
  C  C220  1  0.50307329  0.38125489  0.62751262  1
  C  C221  1  0.49454927  0.71125892  0.63275860  1
  C  C222  1  -0.00727400  0.28694948  0.13387670  1
  C  C223  1  0.00417480  0.62196398  0.13198078  1
  C  C224  1  0.00387449  0.95564530  0.13508621  1
  C  C225  1  0.49509178  0.28596080  0.13098455  1
  C  C226  1  0.49846925  0.62181307  0.13345001  1
  C  C227  1  0.49626714  0.95435983  0.13279379  1
  C  C228  1  0.00111345  0.04761620  0.87062360  1
  C  C229  1  -0.00792060  0.37836240  0.86866647  1
  C  C230  1  0.00138492  0.71287351  0.87111036  1
  C  C231  1  0.49959567  0.04438364  0.86922280  1
  C  C232  1  0.49343791  0.38083065  0.86742181  1
  C  C233  1  0.50332950  0.71277993  0.86988936  1
  C  C234  1  -0.00639913  0.28633359  0.36929955  1
  C  C235  1  0.00240499  0.62179842  0.36945835  1
  C  C236  1  0.00254577  0.95470877  0.36745980  1
  C  C237  1  0.49373176  0.29009323  0.37060776  1
  C  C238  1  0.50329706  0.62184009  0.36834235  1
  C  C239  1  0.50517033  0.95423869  0.36712890  1
  C  C240  1  0.25578563  0.21019155  0.63030182  1
  C  C241  1  0.24833430  0.54485665  0.63141926  1
  C  C242  1  0.24874417  0.87838973  0.62724469  1
  C  C243  1  0.75542971  0.21263131  0.63314342  1
  C  C244  1  0.74876234  0.54656443  0.62878727  1
  C  C245  1  0.74400422  0.87899610  0.63444627  1
  C  C246  1  0.24914203  0.12089338  0.13273677  1
  C  C247  1  0.25687060  0.45365630  0.13375582  1
  C  C248  1  0.24748576  0.78640820  0.13210715  1
  C  C249  1  0.74656816  0.12004831  0.12958403  1
  C  C250  1  0.75390729  0.45540053  0.13324732  1
  C  C251  1  0.74820814  0.78688653  0.12950867  1
  C  C252  1  0.25417665  0.21298958  0.86960414  1
  C  C253  1  0.25545788  0.54635235  0.86562337  1
  C  C254  1  0.24856628  0.87739729  0.86431788  1
  C  C255  1  0.75620343  0.21173051  0.86580588  1
  C  C256  1  0.74782024  0.54846473  0.87371569  1
  C  C257  1  0.74924092  0.87814838  0.86697500  1
  C  C258  1  0.24946926  0.11940355  0.37155689  1
  C  C259  1  0.24795754  0.45501627  0.36769141  1
  C  C260  1  0.25112637  0.78608786  0.37137614  1
  C  C261  1  0.75261404  0.12035657  0.36518717  1
  C  C262  1  0.74459977  0.45599123  0.36734117  1
  C  C263  1  0.75222084  0.78589847  0.36906021  1
  C  C264  1  0.06320306  0.40619939  0.54480982  1
  C  C265  1  0.30414046  0.75854244  0.46153188  1
  C  C266  1  0.76753279  0.75375341  0.03519722  1
  C  C267  1  0.73439377  0.57670826  0.97102468  1
  C  C268  1  0.71021591  0.90096223  0.53852927  1
  C  C269  1  0.19799643  0.76061616  0.04208110  1
  C  C270  1  0.54145111  0.40497277  0.53458048  1
  C  C271  1  0.22688685  0.42641387  0.03854723  1
  C  C272  1  0.98575604  0.92891451  0.46416802  1
  C  C273  1  0.81501994  0.75974686  0.45519281  1
  C  C274  1  0.55137167  0.59346204  0.45767711  1
  C  C275  1  0.93203301  0.40282957  0.95620481  1
  C  C276  1  0.51164192  0.25656977  0.03466284  1
  C  C277  1  0.31289627  0.23724404  0.95851446  1
  C  C278  1  0.19603051  0.09791929  0.04228739  1
  C  C279  1  0.27703612  0.09527481  0.03571111  1
  C  C280  1  0.73632166  0.23919259  0.53689647  1
  C  C281  1  0.02566783  0.59348710  0.03669200  1
  C  C282  1  0.71342950  0.09374883  0.45729271  1
  C  C283  1  0.46123692  0.40408324  0.53523639  1
  C  C284  1  0.05272506  0.59218945  0.45795213  1
  C  C285  1  0.76466941  0.57417454  0.53224745  1
  C  C286  1  0.29002335  0.90065842  0.95854672  1
  C  C287  1  0.23416017  0.09193433  0.46766249  1
  C  C288  1  0.47484622  0.59574934  0.03800440  1
  C  C289  1  0.45168389  0.07313262  0.54271401  1
  C  C290  1  0.20800892  0.90154779  0.95858569  1
  C  C291  1  0.73389519  0.42831515  0.03738020  1
  C  C292  1  0.55651137  0.07645056  0.95620103  1
  C  C293  1  0.02006823  0.92706841  0.03923528  1
  C  C294  1  0.20271266  0.57344637  0.54152595  1
  C  C295  1  0.19729836  0.42623682  0.45618755  1
  C  C296  1  0.23174211  0.23982269  0.96686982  1
  C  C297  1  0.73449462  0.75612156  0.46593270  1
  C  C298  1  0.05450913  0.74060544  0.96125749  1
  C  C299  1  0.79169758  0.90372874  0.96043690  1
  C  C300  1  0.27429630  0.57558104  0.96085877  1
  C  C301  1  0.72765651  0.08800904  0.03477932  1
  C  C302  1  0.76852474  0.43123915  0.46312771  1
  C  C303  1  0.73040969  0.23897466  0.96060332  1
  C  C304  1  0.68539432  0.57029403  0.54292772  1
  C  C305  1  0.45293891  0.74151994  0.54179212  1
  C  C306  1  0.01293788  0.40375443  0.96639848  1
  C  C307  1  0.31352054  0.09500979  0.45684041  1
  C  C308  1  0.70949550  0.90525370  0.96063895  1
  C  C309  1  0.81409567  0.57356721  0.95885547  1
  C  C310  1  0.97323260  0.74224130  0.96601125  1
  C  C311  1  0.22267417  0.75696572  0.46643805  1
  N  N312  1  0.19564844  0.57210289  0.95364675  1
  N  N313  1  0.51016370  0.40578381  0.96289140  1
  N  N314  1  0.30603729  0.42721310  0.04466912  1
  N  N315  1  0.95439566  0.07461831  0.95923207  1
  N  N316  1  0.52014264  0.25768179  0.46308988  1
  N  N317  1  0.43296281  0.40299227  0.95503071  1
  N  N318  1  0.97562519  0.58951048  0.46482747  1
  N  N319  1  0.81478252  0.23509972  0.54424469  1
  N  N320  1  0.96344216  0.26004411  0.03829402  1
  N  N321  1  0.93904089  0.73660241  0.54318773  1
  N  N322  1  0.26614985  0.91486254  0.53541687  1
  N  N323  1  0.31901205  0.23475398  0.54465708  1
  N  N324  1  0.68968021  0.42981995  0.45695401  1
  N  N325  1  0.80462725  0.09129487  0.04149285  1
  N  N326  1  0.01581089  0.74168155  0.53342061  1
  N  N327  1  0.79271922  0.09215359  0.45891555  1
  N  N328  1  0.43336556  0.25919569  0.04605285  1
  N  N329  1  0.78932655  0.90518967  0.54401293  1
  N  N330  1  0.47259878  0.59065955  0.46330000  1
  N  N331  1  0.54378432  0.92802139  0.45986908  1
  N  N332  1  0.27497887  0.75932200  0.03499856  1
  N  N333  1  0.69060603  0.75729591  0.04177877  1
  N  N334  1  0.03863422  0.07568022  0.53986190  1
  N  N335  1  0.48326429  0.92387331  0.03882705  1
  N  N336  1  0.01642520  0.25147815  0.46113546  1
  N  N337  1  0.18915828  0.90225698  0.54192968  1
  N  N338  1  0.24234092  0.23849757  0.53548029  1
  N  N339  1  0.06396310  0.93204110  0.45539141  1
  N  N340  1  0.81212384  0.42773087  0.04613381  1
  N  N341  1  0.46176732  0.93369880  0.45993012  1
  N  N342  1  0.47801418  0.07691766  0.96240758  1
  N  N343  1  0.28179912  0.57475484  0.53666344  1
  N  N344  1  0.53048032  0.74235379  0.53862106  1
  N  N345  1  0.98436278  0.40862524  0.53585360  1
  N  N346  1  0.03225392  0.07569019  0.96579684  1
  N  N347  1  0.46886349  0.74137584  0.96394437  1
  N  N348  1  0.55366078  0.59492170  0.04406119  1
  N  N349  1  0.80924493  0.24009399  0.95555225  1
  N  N350  1  0.93890917  0.26365267  0.45698068  1
  N  N351  1  0.53097487  0.07408734  0.53893302  1
  N  N352  1  0.94723216  0.59492172  0.04396796  1
  N  N353  1  0.27419054  0.42335135  0.46357154  1
  N  N354  1  0.96246112  0.07478074  0.53918800  1
  N  N355  1  0.94191057  0.92781395  0.04867826  1
  N  N356  1  0.03952511  0.26139832  0.04211873  1
  N  N357  1  0.56030567  0.92851174  0.04772084  1
  N  N358  1  0.54699729  0.74009158  0.95912289  1
  N  N359  1  0.44194775  0.26784537  0.45948487  1
  N  N360  1  0.06337428  0.05909185  0.59788693  1
  N  N361  1  0.07405090  0.38923903  0.60420053  1
  N  N362  1  0.05102019  0.72560256  0.58684502  1
  N  N363  1  0.55674785  0.05805861  0.59679206  1
  N  N364  1  0.56796521  0.39156551  0.59098223  1
  N  N365  1  0.55647385  0.72295324  0.59661073  1
  N  N366  1  0.42392426  0.27780592  0.10523556  1
  N  N367  1  0.43921974  0.61154036  0.09258064  1
  N  N368  1  0.44260037  0.94264485  0.08929361  1
  N  N369  1  0.93284680  0.27569812  0.09506985  1
  N  N370  1  0.93516138  0.61277105  0.10320591  1
  N  N371  1  0.93360198  0.94536242  0.10847793  1
  N  N372  1  0.44170844  0.05538130  0.90969378  1
  N  N373  1  0.42310399  0.38704172  0.89591002  1
  N  N374  1  0.44217877  0.72503773  0.90777174  1
  N  N375  1  0.93412400  0.05686549  0.90202345  1
  N  N376  1  0.92054307  0.38736780  0.89571780  1
  N  N377  1  0.94116790  0.72555004  0.91185526  1
  N  N378  1  0.05090514  0.27561739  0.41051356  1
  N  N379  1  0.07167819  0.61123240  0.39986051  1
  N  N380  1  0.07290100  0.94792459  0.39489129  1
  N  N381  1  0.55252942  0.28114874  0.41090081  1
  N  N382  1  0.57156456  0.61214816  0.39956801  1
  N  N383  1  0.56811515  0.95048113  0.40451644  1
  N  N384  1  0.32712420  0.21910783  0.60425653  1
  N  N385  1  0.30861585  0.55646493  0.59306963  1
  N  N386  1  0.30383687  0.89015869  0.58455740  1
  N  N387  1  0.82519160  0.21912703  0.60466013  1
  N  N388  1  0.80373322  0.55961358  0.58468978  1
  N  N389  1  0.81016331  0.89003315  0.60272996  1
  N  N390  1  0.17965436  0.11295303  0.10082355  1
  N  N391  1  0.19596053  0.44262944  0.09390785  1
  N  N392  1  0.17856538  0.77671715  0.10105975  1
  N  N393  1  0.68981349  0.10553019  0.08735324  1
  N  N394  1  0.69666656  0.44472190  0.09081197  1
  N  N395  1  0.67855192  0.77814451  0.10185125  1
  N  N396  1  0.19629874  0.22451698  0.91041330  1
  N  N397  1  0.18598945  0.55412442  0.89437310  1
  N  N398  1  0.18359824  0.88716179  0.89974056  1
  N  N399  1  0.69610239  0.22240275  0.90575287  1
  N  N400  1  0.69412688  0.56149076  0.91973703  1
  N  N401  1  0.68465592  0.88949929  0.90218183  1
  N  N402  1  0.32262860  0.11146462  0.39731029  1
  N  N403  1  0.30599743  0.44217198  0.40713167  1
  N  N404  1  0.32025152  0.77663830  0.40105058  1
  N  N405  1  0.81539406  0.10857172  0.40106730  1
  N  N406  1  0.80393728  0.44639380  0.40826630  1
  N  N407  1  0.82505601  0.77743846  0.39598084  1
  N  N408  1  0.42564907  0.27807432  0.39977790  1
  N  N409  1  0.44408383  0.60869716  0.40712940  1
  N  N410  1  0.44080488  0.94003988  0.39971298  1
  N  N411  1  0.92428051  0.27594298  0.39734675  1
  N  N412  1  0.94408525  0.60850299  0.40854984  1
  N  N413  1  0.94657536  0.94251454  0.41050711  1
  N  N414  1  0.06072559  0.05945696  0.91005159  1
  N  N415  1  0.04925039  0.38839221  0.91120545  1
  N  N416  1  0.07044720  0.72240946  0.90075291  1
  N  N417  1  0.56996397  0.05690839  0.89824690  1
  N  N418  1  0.54842438  0.39339795  0.90962986  1
  N  N419  1  0.56923644  0.72199449  0.90259224  1
  N  N420  1  0.05914273  0.27812343  0.10132268  1
  N  N421  1  0.06216416  0.60960310  0.09066582  1
  N  N422  1  0.05975526  0.94374595  0.09196941  1
  N  N423  1  0.55051319  0.27296981  0.08721331  1
  N  N424  1  0.56650614  0.61107658  0.10348313  1
  N  N425  1  0.56772803  0.94546928  0.10666721  1
  N  N426  1  0.42892681  0.05682618  0.60102188  1
  N  N427  1  0.43705969  0.38996762  0.59194344  1
  N  N428  1  0.42845002  0.72343685  0.59894794  1
  N  N429  1  0.93666199  0.05722700  0.59672824  1
  N  N430  1  0.94664755  0.39488734  0.58986801  1
  N  N431  1  0.92596527  0.71793418  0.60133373  1
  N  N432  1  0.19472657  0.10662454  0.41594270  1
  N  N433  1  0.17845211  0.44468246  0.39783085  1
  N  N434  1  0.19086419  0.77348837  0.41218893  1
  N  N435  1  0.68718119  0.11051961  0.39999472  1
  N  N436  1  0.67659093  0.44566278  0.39753450  1
  N  N437  1  0.69624269  0.77313242  0.41116620  1
  N  N438  1  0.32570779  0.22110569  0.89890568  1
  N  N439  1  0.31257206  0.55949330  0.90742832  1
  N  N440  1  0.31393570  0.88606091  0.89954222  1
  N  N441  1  0.82362260  0.22309751  0.89638996  1
  N  N442  1  0.82095457  0.55606454  0.89759115  1
  N  N443  1  0.81478555  0.88711410  0.90193253  1
  N  N444  1  0.30926689  0.10985145  0.09339457  1
  N  N445  1  0.32431672  0.44412348  0.10316659  1
  N  N446  1  0.30609394  0.77570397  0.09238532  1
  N  N447  1  0.81630857  0.11158300  0.10200418  1
  N  N448  1  0.82338155  0.44478594  0.10567922  1
  N  N449  1  0.80505165  0.77187696  0.08761894  1
  N  N450  1  0.20227911  0.22041591  0.58615319  1
  N  N451  1  0.18083088  0.55588186  0.59971717  1
  N  N452  1  0.17796415  0.88908805  0.60169445  1
  N  N453  1  0.69857908  0.22534044  0.59102347  1
  N  N454  1  0.67582558  0.55363134  0.60241675  1
  N  N455  1  0.68144759  0.88648881  0.59508179  1
  Cl  Cl456  1  0.24616180  0.04883585  0.62370923  1
  Cl  Cl457  1  0.25406628  0.37855548  0.62956868  1
  Cl  Cl458  1  0.23994639  0.72671001  0.60839850  1
  Cl  Cl459  1  0.74625947  0.05131784  0.61201268  1
  Cl  Cl460  1  0.76264341  0.39139042  0.61316250  1
  Cl  Cl461  1  0.74175811  0.71817145  0.61666066  1
  Cl  Cl462  1  0.24180485  0.28180028  0.12471954  1
  Cl  Cl463  1  0.25115239  0.61080647  0.10924555  1
  Cl  Cl464  1  0.25364787  0.94114372  0.10947467  1
  Cl  Cl465  1  0.73853159  0.27695388  0.11096478  1
  Cl  Cl466  1  0.75075877  0.61700113  0.12081886  1
  Cl  Cl467  1  0.74925097  0.95100578  0.12818609  1
  Cl  Cl468  1  0.25323901  0.05805406  0.89161381  1
  Cl  Cl469  1  0.23489427  0.39015277  0.89288063  1
  Cl  Cl470  1  0.25867226  0.71950472  0.87493111  1
  Cl  Cl471  1  0.75222943  0.05529604  0.87763198  1
  Cl  Cl472  1  0.72924319  0.39201109  0.88500418  1
  Cl  Cl473  1  0.75338960  0.72056539  0.88427679  1
  Cl  Cl474  1  0.23519250  0.27169827  0.39807803  1
  Cl  Cl475  1  0.25589802  0.61337538  0.37703732  1
  Cl  Cl476  1  0.25971023  0.93945565  0.38862626  1
  Cl  Cl477  1  0.73677636  0.27682141  0.38491798  1
  Cl  Cl478  1  0.75825629  0.61168027  0.38543813  1
  Cl  Cl479  1  0.75637375  0.93806158  0.39799378  1
  Cl  Cl480  1  0.01914286  0.23269496  0.60200708  1
  Cl  Cl481  1  -0.00662863  0.55020421  0.61602682  1
  Cl  Cl482  1  -0.00621352  0.88662732  0.61413327  1
  Cl  Cl483  1  0.51396829  0.23059508  0.60918779  1
  Cl  Cl484  1  0.49069399  0.55049108  0.62704311  1
  Cl  Cl485  1  0.48974654  0.89426128  0.60245347  1
  Cl  Cl486  1  -0.00204386  0.11164587  0.12018267  1
  Cl  Cl487  1  0.01241978  0.44771543  0.12343348  1
  Cl  Cl488  1  -0.00670072  0.77673228  0.11081151  1
  Cl  Cl489  1  0.49755231  0.10852075  0.10266449  1
  Cl  Cl490  1  0.51225935  0.44140388  0.10082059  1
  Cl  Cl491  1  0.49221328  0.78051367  0.11499429  1
  Cl  Cl492  1  0.00982277  0.21871948  0.87439020  1
  Cl  Cl493  1  0.00543111  0.55661598  0.87979975  1
  Cl  Cl494  1  0.00034135  0.88653435  0.88390697  1
  Cl  Cl495  1  0.51159753  0.21895218  0.88316502  1
  Cl  Cl496  1  0.50133062  0.55545262  0.89416319  1
  Cl  Cl497  1  0.49695541  0.89252530  0.88492971  1
  Cl  Cl498  1  0.00361381  0.11653030  0.38331910  1
  Cl  Cl499  1  -0.01041875  0.44269711  0.39446831  1
  Cl  Cl500  1  0.00843242  0.78170622  0.37679717  1
  Cl  Cl501  1  0.50541503  0.11806926  0.37267986  1
  Cl  Cl502  1  0.49098123  0.44273630  0.37422555  1
  Cl  Cl503  1  0.50972828  0.78558942  0.38061243  1
  Cl  Cl504  1  0.36874226  0.14592195  0.74821615  1
  Cl  Cl505  1  0.35904250  0.47952369  0.75295800  1
  Cl  Cl506  1  0.36055061  0.81558531  0.74419527  1
  Cl  Cl507  1  0.86485797  0.14677948  0.74482405  1
  Cl  Cl508  1  0.86469693  0.47831028  0.76260213  1
  Cl  Cl509  1  0.86123410  0.81278491  0.74453135  1
  Cl  Cl510  1  0.14064810  0.18446504  0.24800790  1
  Cl  Cl511  1  0.14034857  0.51885492  0.25510733  1
  Cl  Cl512  1  0.14208187  0.85180594  0.25341890  1
  Cl  Cl513  1  0.63878018  0.18475307  0.24616612  1
  Cl  Cl514  1  0.64324886  0.51601782  0.24987714  1
  Cl  Cl515  1  0.63650516  0.85538187  0.24495938  1
  Cl  Cl516  1  0.14891372  0.14879090  0.74889867  1
  Cl  Cl517  1  0.13857258  0.48149423  0.75025180  1
  Cl  Cl518  1  0.13987844  0.81532969  0.74531754  1
  Cl  Cl519  1  0.64178322  0.14800667  0.74675856  1
  Cl  Cl520  1  0.64403421  0.48274006  0.74628963  1
  Cl  Cl521  1  0.64062442  0.81464139  0.75087607  1
  Cl  Cl522  1  0.35967862  0.18904864  0.25498432  1
  Cl  Cl523  1  0.36152902  0.51863056  0.24243169  1
  Cl  Cl524  1  0.36323327  0.85288495  0.25448691  1
  Cl  Cl525  1  0.85937060  0.18639699  0.24857856  1
  Cl  Cl526  1  0.86363459  0.52039240  0.24192915  1
  Cl  Cl527  1  0.85650836  0.85407636  0.25321109  1
  Cl  Cl528  1  0.10751063  0.31785134  0.74692085  1
  Cl  Cl529  1  0.10921591  0.64913287  0.75020407  1
  Cl  Cl530  1  0.10991473  0.98133865  0.75411343  1
  Cl  Cl531  1  0.60732012  0.31938139  0.74889677  1
  Cl  Cl532  1  0.60903101  0.64759162  0.75151730  1
  Cl  Cl533  1  0.61444922  0.97946349  0.74972421  1
  Cl  Cl534  1  0.38814089  0.01948613  0.25430382  1
  Cl  Cl535  1  0.38326553  0.35530950  0.24122397  1
  Cl  Cl536  1  0.39165288  0.68442907  0.25303218  1
  Cl  Cl537  1  0.89016075  0.01853203  0.24932726  1
  Cl  Cl538  1  0.88658319  0.35390141  0.25566036  1
  Cl  Cl539  1  0.88796570  0.68767348  0.25047927  1
  Cl  Cl540  1  0.38643126  0.31124387  0.75618983  1
  Cl  Cl541  1  0.39096538  0.64938316  0.75238887  1
  Cl  Cl542  1  0.39475751  0.97944699  0.75249844  1
  Cl  Cl543  1  0.88969959  0.30953439  0.75052692  1
  Cl  Cl544  1  0.88841466  0.64744419  0.74915819  1
  Cl  Cl545  1  0.88875158  0.97954501  0.75024836  1
  Cl  Cl546  1  0.11382931  0.01941917  0.25391569  1
  Cl  Cl547  1  0.10742192  0.35104094  0.25642863  1
  Cl  Cl548  1  0.10859416  0.68586753  0.24676828  1
  Cl  Cl549  1  0.60648672  0.01994663  0.24816891  1
  Cl  Cl550  1  0.60354439  0.34816655  0.25037204  1
  Cl  Cl551  1  0.61196657  0.68513660  0.24477167  1
