# generated using pymatgen
data_H8PbC4(N3Cl2)2
_symmetry_space_group_name_H-M   'P 1'
_cell_length_a   16.64443495
_cell_length_b   22.54761158
_cell_length_c   21.60937776
_cell_angle_alpha   89.99800971
_cell_angle_beta   90.04255244
_cell_angle_gamma   90.00367912
_symmetry_Int_Tables_number   1
_chemical_formula_structural   H8PbC4(N3Cl2)2
_chemical_formula_sum   'H192 Pb24 C96 N144 Cl96'
_cell_volume   8109.82983530
_cell_formula_units_Z   24
loop_
 _symmetry_equiv_pos_site_id
 _symmetry_equiv_pos_as_xyz
  1  'x, y, z'
loop_
 _atom_site_type_symbol
 _atom_site_label
 _atom_site_symmetry_multiplicity
 _atom_site_fract_x
 _atom_site_fract_y
 _atom_site_fract_z
 _atom_site_occupancy
  H  H0  1  0.01653173  0.01885259  0.66815916  1
  H  H1  1  -0.00883214  0.36583946  0.65295314  1
  H  H2  1  -0.00338155  0.69188624  0.68279590  1
  H  H3  1  0.49611742  0.02732554  0.67829045  1
  H  H4  1  0.50188620  0.36382764  0.67990489  1
  H  H5  1  0.50362384  0.69617616  0.67961710  1
  H  H6  1  0.01313400  0.30270989  0.17864419  1
  H  H7  1  0.00967164  0.63782522  0.18423263  1
  H  H8  1  0.01586561  0.96817318  0.17571195  1
  H  H9  1  0.50446237  0.30756824  0.17823707  1
  H  H10  1  0.49307410  0.63399268  0.17705372  1
  H  H11  1  0.48167885  0.97380688  0.17735618  1
  H  H12  1  0.00792473  0.01751370  0.82470843  1
  H  H13  1  -0.00476344  0.36382087  0.81667574  1
  H  H14  1  -0.01156311  0.69998025  0.81822526  1
  H  H15  1  0.48683114  0.02682619  0.81766339  1
  H  H16  1  0.51739616  0.36417660  0.82757757  1
  H  H17  1  0.48874587  0.69357197  0.82758190  1
  H  H18  1  0.00016156  0.31476536  0.32378442  1
  H  H19  1  0.03202584  0.64246833  0.33226787  1
  H  H20  1  -0.01033562  0.97710914  0.32459538  1
  H  H21  1  0.48412915  0.31126083  0.32232149  1
  H  H22  1  0.51411323  0.63897004  0.34309467  1
  H  H23  1  0.51124103  0.97384736  0.32651432  1
  H  H24  1  0.25977582  0.19704391  0.68135667  1
  H  H25  1  0.24615322  0.51574310  0.67736749  1
  H  H26  1  0.25006566  0.86172724  0.67636578  1
  H  H27  1  0.75080778  0.18979904  0.67895214  1
  H  H28  1  0.74187791  0.52926747  0.64323956  1
  H  H29  1  0.75268506  0.86314597  0.68149778  1
  H  H30  1  0.23371151  0.14313779  0.17167445  1
  H  H31  1  0.23049966  0.47653124  0.16910071  1
  H  H32  1  0.24646856  0.80639019  0.18269229  1
  H  H33  1  0.74997838  0.13425105  0.18403347  1
  H  H34  1  0.77326218  0.47441810  0.17778960  1
  H  H35  1  0.74504541  0.80866119  0.17745907  1
  H  H36  1  0.24806911  0.19046535  0.82264404  1
  H  H37  1  0.22622002  0.52879986  0.82133903  1
  H  H38  1  0.26172793  0.85161700  0.82935112  1
  H  H39  1  0.74341445  0.19794089  0.81616517  1
  H  H40  1  0.77068446  0.53231414  0.81649274  1
  H  H41  1  0.73960038  0.85945577  0.83036350  1
  H  H42  1  0.23717361  0.14297453  0.32160590  1
  H  H43  1  0.24348766  0.46624511  0.32331745  1
  H  H44  1  0.24132290  0.81505662  0.32020644  1
  H  H45  1  0.75825306  0.14264338  0.33066321  1
  H  H46  1  0.76494729  0.46720441  0.34912933  1
  H  H47  1  0.76014757  0.80243148  0.32101515  1
  H  H48  1  0.10734566  0.06125876  0.58143910  1
  H  H49  1  0.09256729  0.39735214  0.56857616  1
  H  H50  1  0.13296832  0.71389545  0.62755846  1
  H  H51  1  0.61719672  0.05677103  0.60600225  1
  H  H52  1  0.61690326  0.39346913  0.60454445  1
  H  H53  1  0.63563907  0.71551293  0.61597818  1
  H  H54  1  0.36732535  0.28082616  0.12286371  1
  H  H55  1  0.37650897  0.60769322  0.10303378  1
  H  H56  1  0.37150409  0.94141626  0.09615657  1
  H  H57  1  0.87233927  0.28113552  0.12746876  1
  H  H58  1  0.88405426  0.61727020  0.11541388  1
  H  H59  1  0.87381959  0.94681251  0.12503293  1
  H  H60  1  0.36489821  0.05098023  0.88991896  1
  H  H61  1  0.37861682  0.38297646  0.88057648  1
  H  H62  1  0.38973966  0.73164600  0.91139109  1
  H  H63  1  0.86853356  0.04650782  0.87176549  1
  H  H64  1  0.88466535  0.39128677  0.89783147  1
  H  H65  1  0.88313345  0.72699378  0.90075962  1
  H  H66  1  0.12875920  0.28485900  0.38814619  1
  H  H67  1  0.12509967  0.59866328  0.41772712  1
  H  H68  1  0.11581386  0.94510671  0.38830001  1
  H  H69  1  0.62677416  0.29210768  0.37042406  1
  H  H70  1  0.65776814  0.61644671  0.38941689  1
  H  H71  1  0.60958001  0.94018822  0.41254753  1
  H  H72  1  0.36659529  0.22741624  0.60060062  1
  H  H73  1  0.36532500  0.54740061  0.60575433  1
  H  H74  1  0.38273398  0.88346991  0.61266111  1
  H  H75  1  0.87191029  0.22203524  0.60806534  1
  H  H76  1  0.84225886  0.56579656  0.56080755  1
  H  H77  1  0.88623785  0.88596615  0.61848616  1
  H  H78  1  0.14113664  0.10326472  0.08421263  1
  H  H79  1  0.13116643  0.43716168  0.08528771  1
  H  H80  1  0.11557246  0.78258661  0.11719144  1
  H  H81  1  0.63089251  0.11107582  0.10944551  1
  H  H82  1  0.62696242  0.45329900  0.13454512  1
  H  H83  1  0.61484442  0.78106633  0.11304478  1
  H  H84  1  0.13769139  0.22474555  0.89972650  1
  H  H85  1  0.12710530  0.56003628  0.90691613  1
  H  H86  1  0.12999685  0.88496127  0.88700246  1
  H  H87  1  0.63059970  0.22325974  0.89347861  1
  H  H88  1  0.62868948  0.54935695  0.86915461  1
  H  H89  1  0.63117420  0.89276398  0.90987333  1
  H  H90  1  0.37776781  0.11769500  0.36779338  1
  H  H91  1  0.37611057  0.45137987  0.38283255  1
  H  H92  1  0.36431046  0.77882940  0.38790887  1
  H  H93  1  0.88583972  0.11469147  0.39676338  1
  H  H94  1  0.90564973  0.44820039  0.39646347  1
  H  H95  1  0.85976905  0.77513745  0.40692949  1
  H  H96  1  0.38363503  0.27612762  0.40656185  1
  H  H97  1  0.41412853  0.59851225  0.42513438  1
  H  H98  1  0.36745433  0.95318989  0.37349451  1
  H  H99  1  0.88025285  0.28220834  0.39419014  1
  H  H100  1  0.88668689  0.61758480  0.37410686  1
  H  H101  1  0.86749567  0.94617994  0.39515441  1
  H  H102  1  0.11278794  0.05451948  0.90624341  1
  H  H103  1  0.13170545  0.38446184  0.87598300  1
  H  H104  1  0.12773416  0.72014956  0.86860878  1
  H  H105  1  0.61363907  0.05048110  0.88745147  1
  H  H106  1  0.62424929  0.39186246  0.90921398  1
  H  H107  1  0.63216262  0.71540183  0.87333440  1
  H  H108  1  0.11458077  0.27211229  0.09240477  1
  H  H109  1  0.13331472  0.61158987  0.11629580  1
  H  H110  1  0.11656505  0.93906309  0.08800361  1
  H  H111  1  0.61361231  0.27798155  0.09778568  1
  H  H112  1  0.62461016  0.61654757  0.11433145  1
  H  H113  1  0.61773510  0.94747160  0.11969573  1
  H  H114  1  0.36985225  0.05583575  0.61148357  1
  H  H115  1  0.36946212  0.38556560  0.61571652  1
  H  H116  1  0.38769729  0.72354487  0.60215209  1
  H  H117  1  0.86957645  0.04117575  0.63026770  1
  H  H118  1  0.84991759  0.38713549  0.60709944  1
  H  H119  1  0.88569690  0.71680304  0.60334698  1
  H  H120  1  0.13535755  0.10640414  0.40542454  1
  H  H121  1  0.12993247  0.43944784  0.39941895  1
  H  H122  1  0.11617160  0.78288802  0.38887421  1
  H  H123  1  0.63784886  0.11040830  0.39971357  1
  H  H124  1  0.66198229  0.43490256  0.43226645  1
  H  H125  1  0.61654756  0.78825654  0.36910640  1
  H  H126  1  0.38453002  0.21892176  0.87758643  1
  H  H127  1  0.36964932  0.54754544  0.87081171  1
  H  H128  1  0.37795085  0.88879431  0.90064858  1
  H  H129  1  0.87748945  0.21485278  0.87542762  1
  H  H130  1  0.87259524  0.56246064  0.90165191  1
  H  H131  1  0.87718722  0.88358014  0.88390372  1
  H  H132  1  0.38022771  0.11914121  0.13274500  1
  H  H133  1  0.37399463  0.45193644  0.12313374  1
  H  H134  1  0.36302008  0.77799493  0.10516793  1
  H  H135  1  0.87907693  0.11010156  0.11717050  1
  H  H136  1  0.86591284  0.44010115  0.08683720  1
  H  H137  1  0.86195336  0.77664158  0.10312522  1
  H  H138  1  0.12082288  0.21609331  0.62898825  1
  H  H139  1  0.11665069  0.54835833  0.61587680  1
  H  H140  1  0.13603086  0.89220550  0.59739290  1
  H  H141  1  0.62371163  0.22111024  0.61134056  1
  H  H142  1  0.60080121  0.54931903  0.59718272  1
  H  H143  1  0.63827768  0.89112495  0.60379517  1
  H  H144  1  0.20964259  0.58871739  1.00783922  1
  H  H145  1  0.34916263  0.41577511  0.49619939  1
  H  H146  1  0.95021270  0.75166303  0.49842040  1
  H  H147  1  0.43071546  0.58006700  -0.00615712  1
  H  H148  1  0.29712805  0.26061456  0.49717057  1
  H  H149  1  0.03305281  0.24705546  -0.00543406  1
  H  H150  1  0.60354036  0.75110408  0.50550199  1
  H  H151  1  0.49235534  0.57715997  0.52483034  1
  H  H152  1  0.79395148  0.59452699  1.00165141  1
  H  H153  1  0.95371055  0.75437726  1.00569406  1
  H  H154  1  0.15873625  0.59888131  0.51340257  1
  H  H155  1  0.11038328  0.74776528  0.51589887  1
  H  H156  1  0.41432536  0.07675920  0.99923277  1
  H  H157  1  0.54306469  0.24717265  -0.00583422  1
  H  H158  1  0.77505072  0.41360801  -0.00559418  1
  H  H159  1  0.88475693  0.08323133  0.98309808  1
  H  H160  1  0.30743172  0.57549314  0.50114816  1
  H  H161  1  0.55995926  0.08355441  0.50167502  1
  H  H162  1  0.68641952  0.07997225  0.00239180  1
  H  H163  1  0.61471888  0.25442478  0.48136961  1
  H  H164  1  0.85140389  0.24403754  0.98909012  1
  H  H165  1  0.95292116  0.42455945  1.00004218  1
  H  H166  1  0.55763683  0.42047946  0.01333998  1
  H  H167  1  0.13821645  0.25094300  0.51653701  1
  H  H168  1  0.03330887  0.57024213  0.51063956  1
  H  H169  1  0.92701120  0.58793702  0.00435964  1
  H  H170  1  0.36545775  0.08182895  0.47980449  1
  H  H171  1  0.20383960  0.26086110  1.00291907  1
  H  H172  1  0.65273574  0.75464554  0.00521312  1
  H  H173  1  0.03719990  0.07931707  1.00530724  1
  H  H174  1  0.52515956  0.91798554  0.50947870  1
  H  H175  1  0.38136552  0.91362273  0.47952883  1
  H  H176  1  0.69178692  0.24920628  1.00246993  1
  H  H177  1  0.11309844  0.74821444  -0.01652891  1
  H  H178  1  0.70199901  0.91943662  0.49794941  1
  H  H179  1  0.08728727  0.58621436  0.00356747  1
  H  H180  1  0.39630244  0.41276246  -0.00607925  1
  H  H181  1  0.23063845  0.07821167  -0.01032083  1
  H  H182  1  0.78108472  0.74645452  0.50976289  1
  H  H183  1  0.01719012  0.08640827  0.48751319  1
  H  H184  1  0.46270197  0.25308598  0.50469838  1
  H  H185  1  0.59337958  0.58465042  1.00270600  1
  H  H186  1  0.35730016  0.24852875  0.98579011  1
  H  H187  1  0.84581942  0.08423449  0.50451059  1
  H  H188  1  0.89077459  0.91854453  0.01451114  1
  H  H189  1  0.21328460  0.08173951  0.50330716  1
  H  H190  1  0.47135415  0.75639055  1.00929534  1
  H  H191  1  0.70058886  0.91822452  1.01078709  1
  Pb  Pb192  1  0.24461020  0.05315805  0.74235644  1
  Pb  Pb193  1  0.24805972  0.38108133  0.73598742  1
  Pb  Pb194  1  0.26022682  0.71564272  0.75268337  1
  Pb  Pb195  1  0.74788833  0.04757629  0.74982298  1
  Pb  Pb196  1  0.75754920  0.38765697  0.76143420  1
  Pb  Pb197  1  0.75379862  0.71673750  0.75083578  1
  Pb  Pb198  1  0.25015125  0.28493741  0.24971005  1
  Pb  Pb199  1  0.25060151  0.61198808  0.26599582  1
  Pb  Pb200  1  0.24765051  0.95414538  0.23830881  1
  Pb  Pb201  1  0.74889388  0.28332610  0.24621708  1
  Pb  Pb202  1  0.75172501  0.61769526  0.23977905  1
  Pb  Pb203  1  0.74168167  0.94806266  0.25714953  1
  Pb  Pb204  1  -0.00203982  0.21716932  0.75872561  1
  Pb  Pb205  1  0.00238393  0.54989213  0.75236514  1
  Pb  Pb206  1  0.00535267  0.88123507  0.74686877  1
  Pb  Pb207  1  0.50568641  0.22129918  0.74503228  1
  Pb  Pb208  1  0.50126095  0.54714684  0.75072691  1
  Pb  Pb209  1  0.50302275  0.88289235  0.75048762  1
  Pb  Pb210  1  0.00080881  0.11410178  0.24517423  1
  Pb  Pb211  1  -0.00368502  0.45124363  0.23513522  1
  Pb  Pb212  1  -0.00311862  0.78372104  0.25352089  1
  Pb  Pb213  1  0.50525465  0.11983662  0.25704877  1
  Pb  Pb214  1  0.50726367  0.44994533  0.27023403  1
  Pb  Pb215  1  0.48969756  0.77965368  0.24343892  1
  C  C216  1  -0.00225639  0.03883557  0.62474927  1
  C  C217  1  -0.02292715  0.38240611  0.60715267  1
  C  C218  1  0.00555435  0.70795809  0.63591438  1
  C  C219  1  0.49454196  0.04604262  0.63208437  1
  C  C220  1  0.49559896  0.38004817  0.63312953  1
  C  C221  1  0.50903589  0.71243404  0.63262002  1
  C  C222  1  0.00004327  0.28659441  0.13246719  1
  C  C223  1  0.00888151  0.62248649  0.13653846  1
  C  C224  1  0.00148583  0.95213963  0.12972417  1
  C  C225  1  0.49455765  0.28942495  0.13233667  1
  C  C226  1  0.49838398  0.61996480  0.12907250  1
  C  C227  1  0.49028120  0.95532256  0.13147467  1
  C  C228  1  -0.00368963  0.03763880  0.86951976  1
  C  C229  1  0.00401072  0.37944676  0.86369315  1
  C  C230  1  0.00054248  0.71492190  0.86513242  1
  C  C231  1  0.48861087  0.04239749  0.86508921  1
  C  C232  1  0.50645153  0.37941209  0.87447975  1
  C  C233  1  0.50346108  0.71188890  0.87263033  1
  C  C234  1  0.00349840  0.29454526  0.36902276  1
  C  C235  1  0.01521032  0.62105787  0.37535657  1
  C  C236  1  -0.00935362  0.95664514  0.36979917  1
  C  C237  1  0.49835365  0.29430155  0.36824090  1
  C  C238  1  0.52800719  0.61898866  0.38767764  1
  C  C239  1  0.49567739  0.95626072  0.37186400  1
  C  C240  1  0.24852384  0.21346876  0.63483719  1
  C  C241  1  0.24308502  0.53488442  0.63119421  1
  C  C242  1  0.25638196  0.87705991  0.62900218  1
  C  C243  1  0.74860074  0.20978489  0.63326551  1
  C  C244  1  0.72744774  0.54716130  0.59794838  1
  C  C245  1  0.75931321  0.87872281  0.63427946  1
  C  C246  1  0.25157395  0.12391043  0.12772859  1
  C  C247  1  0.24540656  0.45632907  0.12534010  1
  C  C248  1  0.24171444  0.78980190  0.13570600  1
  C  C249  1  0.75381987  0.11923667  0.13637871  1
  C  C250  1  0.75573158  0.45747964  0.13273937  1
  C  C251  1  0.73993792  0.79023315  0.13128112  1
  C  C252  1  0.25762305  0.20954446  0.86832060  1
  C  C253  1  0.24144068  0.54520404  0.86714102  1
  C  C254  1  0.25626149  0.87407908  0.87326275  1
  C  C255  1  0.75101913  0.21197292  0.86391324  1
  C  C256  1  0.75683130  0.54730633  0.86310956  1
  C  C257  1  0.74893203  0.87749880  0.87639238  1
  C  C258  1  0.25019946  0.12447217  0.36699918  1
  C  C259  1  0.25093894  0.45173192  0.37077189  1
  C  C260  1  0.24055451  0.79394412  0.36529683  1
  C  C261  1  0.76123046  0.12473349  0.37703249  1
  C  C262  1  0.77838409  0.45059820  0.39509364  1
  C  C263  1  0.74544740  0.78918465  0.36797599  1
  C  C264  1  0.55647262  0.74048624  0.54290538  1
  C  C265  1  0.22271427  0.42168784  0.46544599  1
  C  C266  1  0.06389184  0.73970396  0.95129612  1
  C  C267  1  0.32639063  0.08988275  0.05085996  1
  C  C268  1  0.80911270  0.90661914  0.96255168  1
  C  C269  1  0.72386853  0.08950185  0.46869494  1
  C  C270  1  0.72439903  0.23786308  0.96051440  1
  C  C271  1  0.26756645  0.24592663  0.53929127  1
  C  C272  1  0.59566397  0.58721176  0.46956464  1
  C  C273  1  0.66134813  0.57518443  0.51223573  1
  C  C274  1  0.98309094  0.74254730  0.96246344  1
  C  C275  1  0.23571375  0.41730517  0.03274178  1
  C  C276  1  0.23388449  0.24652356  0.96076958  1
  C  C277  1  0.45388191  0.06815659  0.95886826  1
  C  C278  1  0.76791272  0.57906865  0.95817091  1
  C  C279  1  0.98377706  0.41076760  0.95782999  1
  C  C280  1  0.73455816  0.90745911  0.53983850  1
  C  C281  1  0.84416267  0.42275856  0.48063268  1
  C  C282  1  0.98166988  0.73888843  0.54046270  1
  C  C283  1  0.56518340  0.26256455  0.44944324  1
  C  C284  1  0.51359368  0.25823322  0.03776222  1
  C  C285  1  0.52327741  0.41101808  0.53933225  1
  C  C286  1  0.57262872  0.74277902  0.95389554  1
  C  C287  1  0.67578198  0.76583357  0.45169332  1
  C  C288  1  0.18666037  0.24185636  0.54924989  1
  C  C289  1  0.23347892  0.57604564  0.96276022  1
  C  C290  1  0.92173610  0.07178924  0.54818263  1
  C  C291  1  0.97085280  0.25775298  0.45938895  1
  C  C292  1  0.80589446  0.23545956  0.95393236  1
  C  C293  1  0.75489545  0.76071483  0.46603135  1
  C  C294  1  0.30389185  0.42483049  0.46099139  1
  C  C295  1  -0.00725543  0.41469242  0.51014210  1
  C  C296  1  0.19761828  0.57703777  0.54683802  1
  C  C297  1  0.96699461  0.59768398  0.04287065  1
  C  C298  1  0.03087413  0.91704074  0.45654603  1
  C  C299  1  0.46700180  0.59184357  0.03384061  1
  C  C300  1  0.31627823  0.09141543  0.44815572  1
  C  C301  1  0.44521460  0.40464769  0.96131610  1
  C  C302  1  0.54892839  0.59431010  0.03819080  1
  C  C303  1  0.28349410  0.91632720  0.96155500  1
  C  C304  1  0.72267703  0.09183716  0.04254336  1
  C  C305  1  0.04884037  0.59655632  0.04276114  1
  C  C306  1  0.74326289  0.58225286  0.50180020  1
  C  C307  1  0.52599381  0.40803185  0.97136503  1
  C  C308  1  0.91039148  0.41049203  0.52202811  1
  C  C309  1  0.93309715  0.07285088  0.95081733  1
  C  C310  1  0.06305342  0.73788677  0.54918565  1
  C  C311  1  0.76142306  0.41761748  0.49155773  1
  N  N312  1  0.95383566  0.91698530  0.45980040  1
  N  N313  1  0.27685447  0.57362975  0.54267472  1
  N  N314  1  0.93999892  0.92493663  0.04653918  1
  N  N315  1  0.48717293  0.25710644  0.46095990  1
  N  N316  1  0.51648047  0.57998502  0.48019367  1
  N  N317  1  0.42935120  0.93088405  0.45348199  1
  N  N318  1  0.25039373  0.08611929  0.03500433  1
  N  N319  1  0.27089674  0.75894555  0.04175510  1
  N  N320  1  0.04810960  0.25954706  0.45875523  1
  N  N321  1  0.50566222  0.91781737  0.46349001  1
  N  N322  1  0.19502229  0.76102863  0.04549275  1
  N  N323  1  0.68150449  0.42748321  0.05441631  1
  N  N324  1  0.70752092  0.24487677  0.54358415  1
  N  N325  1  0.01617499  0.92192337  0.03338194  1
  N  N326  1  -0.00219946  0.07871492  0.53300322  1
  N  N327  1  0.01075962  0.25412215  0.03905409  1
  N  N328  1  0.22981865  0.90571795  0.53394938  1
  N  N329  1  0.54461672  0.92289194  0.04482254  1
  N  N330  1  0.80180089  0.09267124  0.04464631  1
  N  N331  1  0.31255561  0.24384743  0.95236779  1
  N  N332  1  0.77322372  0.75920388  0.03808695  1
  N  N333  1  0.44860475  0.07560007  0.54156929  1
  N  N334  1  0.93421487  0.25780946  0.04935297  1
  N  N335  1  0.06244204  0.40828501  0.95111606  1
  N  N336  1  0.47758221  0.74352117  0.53789974  1
  N  N337  1  0.01141105  0.07535170  0.96171571  1
  N  N338  1  0.23828153  0.08717191  0.45967755  1
  N  N339  1  0.69538656  0.76144287  0.04238693  1
  N  N340  1  0.52661464  0.07780695  0.54145255  1
  N  N341  1  0.81329082  0.90570713  0.54461829  1
  N  N342  1  0.80232281  0.09332931  0.46729177  1
  N  N343  1  0.31131977  0.42257027  0.04396819  1
  N  N344  1  0.46883838  0.92052251  0.03765850  1
  N  N345  1  0.49525889  0.74853623  0.96548510  1
  N  N346  1  0.27761337  0.75544050  0.45455967  1
  N  N347  1  0.20153989  0.75779018  0.45492876  1
  N  N348  1  0.20633294  0.91563021  0.95821836  1
  N  N349  1  0.53297653  0.06973886  0.95798371  1
  N  N350  1  0.73075312  0.91023335  0.97015396  1
  N  N351  1  0.69040943  0.57382808  0.94764621  1
  N  N352  1  0.44591277  0.40857727  0.54236726  1
  N  N353  1  0.75684220  0.42270162  0.03988976  1
  N  N354  1  0.31071061  0.57247297  0.95038260  1
  N  N355  1  0.94180749  0.58452479  0.45098181  1
  N  N356  1  0.01720437  0.57871076  0.46492681  1
  N  N357  1  0.30585292  0.90113188  0.53836169  1
  N  N358  1  0.78345265  0.24611219  0.54249010  1
  N  N359  1  0.43535504  0.25807792  0.04649579  1
  N  N360  1  0.04538999  0.05503180  0.57898933  1
  N  N361  1  0.03089638  0.39767176  0.56176366  1
  N  N362  1  0.07618164  0.71904485  0.60870457  1
  N  N363  1  0.55602193  0.05717236  0.59523931  1
  N  N364  1  0.55572815  0.39402951  0.59392806  1
  N  N365  1  0.57701808  0.72148086  0.60091982  1
  N  N366  1  0.42495678  0.27775902  0.10552166  1
  N  N367  1  0.43708206  0.60801136  0.09063569  1
  N  N368  1  0.43377839  0.94000165  0.09124335  1
  N  N369  1  0.92811841  0.27630690  0.10802905  1
  N  N370  1  0.94348710  0.61368047  0.10147894  1
  N  N371  1  0.92988938  0.94395608  0.10481862  1
  N  N372  1  0.42517917  0.05240955  0.90180143  1
  N  N373  1  0.43468227  0.38725839  0.90119766  1
  N  N374  1  0.45197249  0.72653015  0.91642195  1
  N  N375  1  0.92382097  0.05155530  0.89292911  1
  N  N376  1  0.94644345  0.39306324  0.90479327  1
  N  N377  1  0.94506782  0.72698566  0.90844474  1
  N  N378  1  0.06892800  0.28265208  0.40135090  1
  N  N379  1  0.06359039  0.60364341  0.42056697  1
  N  N380  1  0.05655559  0.94084071  0.40236369  1
  N  N381  1  0.57207553  0.28335076  0.39123483  1
  N  N382  1  0.60171875  0.60876822  0.41066416  1
  N  N383  1  0.54714903  0.94320611  0.41681162  1
  N  N384  1  0.30485033  0.22792306  0.59300147  1
  N  N385  1  0.30453887  0.54413724  0.59343113  1
  N  N386  1  0.32390220  0.88336277  0.59728110  1
  N  N387  1  0.81058974  0.22475523  0.59807055  1
  N  N388  1  0.78115576  0.56518788  0.55351303  1
  N  N389  1  0.82703178  0.88770206  0.60333622  1
  N  N390  1  0.20322907  0.10999644  0.08134667  1
  N  N391  1  0.19287430  0.43750177  0.08175782  1
  N  N392  1  0.17521579  0.77990427  0.10356468  1
  N  N393  1  0.69187070  0.10806054  0.09843866  1
  N  N394  1  0.68157308  0.44719170  0.11263597  1
  N  N395  1  0.67389578  0.78156211  0.09853742  1
  N  N396  1  0.19954648  0.22601041  0.90834249  1
  N  N397  1  0.18927162  0.55983496  0.91197469  1
  N  N398  1  0.18919405  0.88894992  0.90204996  1
  N  N399  1  0.69166733  0.22314123  0.90420587  1
  N  N400  1  0.68517138  0.55423145  0.88846196  1
  N  N401  1  0.69295946  0.89022643  0.91741595  1
  N  N402  1  0.32371462  0.11300464  0.39018113  1
  N  N403  1  0.32014536  0.44348609  0.40082002  1
  N  N404  1  0.30328601  0.77719074  0.39881444  1
  N  N405  1  0.82636027  0.11635004  0.41089719  1
  N  N406  1  0.85098381  0.44329323  0.41957183  1
  N  N407  1  0.79769967  0.77601075  0.41268374  1
  N  N408  1  0.44592382  0.28069554  0.41201882  1
  N  N409  1  0.47530141  0.60426781  0.43102146  1
  N  N410  1  0.42295976  0.94542423  0.39368892  1
  N  N411  1  0.94102193  0.27862540  0.40522857  1
  N  N412  1  0.94139995  0.60846060  0.39459824  1
  N  N413  1  0.92827231  0.94213948  0.40450218  1
  N  N414  1  0.05043966  0.05013071  0.91255140  1
  N  N415  1  0.07302430  0.38901735  0.89247517  1
  N  N416  1  0.07314826  0.72262646  0.89085462  1
  N  N417  1  0.55284293  0.05343406  0.89934389  1
  N  N418  1  0.56296600  0.39201659  0.91676823  1
  N  N419  1  0.57790059  0.72178900  0.89557677  1
  N  N420  1  0.05218902  0.27436947  0.08817952  1
  N  N421  1  0.07363131  0.61182618  0.10136436  1
  N  N422  1  0.05418733  0.93833168  0.08549886  1
  N  N423  1  0.55140180  0.27690995  0.09024588  1
  N  N424  1  0.56680449  0.61183384  0.09751441  1
  N  N425  1  0.55925390  0.94487245  0.10294835  1
  N  N426  1  0.42931002  0.05883927  0.59917063  1
  N  N427  1  0.42848200  0.38920710  0.60188152  1
  N  N428  1  0.44965715  0.72615964  0.59432018  1
  N  N429  1  0.92166820  0.04924796  0.60609718  1
  N  N430  1  0.90416578  0.39052519  0.58347254  1
  N  N431  1  0.94725224  0.72011574  0.59479112  1
  N  N432  1  0.19764691  0.11081738  0.41060657  1
  N  N433  1  0.19107115  0.43784947  0.41115081  1
  N  N434  1  0.17690801  0.78219349  0.40003276  1
  N  N435  1  0.69811449  0.10885950  0.41303089  1
  N  N436  1  0.72419014  0.43440737  0.43964092  1
  N  N437  1  0.67059877  0.78277863  0.39216346  1
  N  N438  1  0.32702899  0.21864330  0.89641275  1
  N  N439  1  0.31381747  0.55324302  0.89089248  1
  N  N440  1  0.31712959  0.89191044  0.91031293  1
  N  N441  1  0.82092639  0.21967859  0.89379973  1
  N  N442  1  0.81029438  0.56260476  0.90680421  1
  N  N443  1  0.82066008  0.88790831  0.90391069  1
  N  N444  1  0.32741158  0.11194347  0.10879478  1
  N  N445  1  0.31782695  0.44673404  0.10248330  1
  N  N446  1  0.30131634  0.77699442  0.09742744  1
  N  N447  1  0.81966000  0.10961602  0.10361830  1
  N  N448  1  0.80358632  0.44343914  0.08606552  1
  N  N449  1  0.80048220  0.77611712  0.09363454  1
  N  N450  1  0.17651338  0.22212226  0.60855042  1
  N  N451  1  0.17640783  0.55380566  0.60194470  1
  N  N452  1  0.19802878  0.89072392  0.58978259  1
  N  N453  1  0.68415377  0.22234335  0.59974831  1
  N  N454  1  0.65460421  0.55355005  0.57340277  1
  N  N455  1  0.69970754  0.89106766  0.59446621  1
  Cl  Cl456  1  0.23173071  0.06321711  0.60182538  1
  Cl  Cl457  1  0.22887397  0.39388813  0.60176192  1
  Cl  Cl458  1  0.26328992  0.71407547  0.62103872  1
  Cl  Cl459  1  0.73792060  0.05793665  0.61519822  1
  Cl  Cl460  1  0.73238774  0.39534757  0.62806897  1
  Cl  Cl461  1  0.76224969  0.71225452  0.61587107  1
  Cl  Cl462  1  0.23477931  0.27342432  0.11067708  1
  Cl  Cl463  1  0.25532337  0.60410418  0.12806585  1
  Cl  Cl464  1  0.24519522  0.94515617  0.10342567  1
  Cl  Cl465  1  0.73615549  0.27781365  0.11120637  1
  Cl  Cl466  1  0.75719818  0.61204523  0.10698825  1
  Cl  Cl467  1  0.74333803  0.93970069  0.11778096  1
  Cl  Cl468  1  0.23442811  0.06295733  0.89608498  1
  Cl  Cl469  1  0.25362474  0.38189310  0.86751435  1
  Cl  Cl470  1  0.27030307  0.73150984  0.88396368  1
  Cl  Cl471  1  0.73811334  0.04927648  0.88273332  1
  Cl  Cl472  1  0.76019245  0.39393802  0.90203411  1
  Cl  Cl473  1  0.76021724  0.72746590  0.88228649  1
  Cl  Cl474  1  0.26134663  0.27483034  0.38439500  1
  Cl  Cl475  1  0.26732249  0.59923308  0.40481719  1
  Cl  Cl476  1  0.24111565  0.94871957  0.37045189  1
  Cl  Cl477  1  0.75777104  0.28787630  0.37706302  1
  Cl  Cl478  1  0.76666490  0.62597646  0.37119856  1
  Cl  Cl479  1  0.73119631  0.94639550  0.39297226  1
  Cl  Cl480  1  -0.00802313  0.21373551  0.62809657  1
  Cl  Cl481  1  -0.00564924  0.55438203  0.60665730  1
  Cl  Cl482  1  0.01443229  0.89473460  0.61485803  1
  Cl  Cl483  1  0.49344457  0.22933400  0.60484188  1
  Cl  Cl484  1  0.48075711  0.56283017  0.61546258  1
  Cl  Cl485  1  0.51441455  0.89953513  0.60556677  1
  Cl  Cl486  1  0.01952560  0.10101383  0.10305255  1
  Cl  Cl487  1  -0.00840678  0.43957986  0.09954430  1
  Cl  Cl488  1  -0.01444137  0.77641481  0.11838921  1
  Cl  Cl489  1  0.50926602  0.11676829  0.12621517  1
  Cl  Cl490  1  0.49942927  0.45055500  0.13806143  1
  Cl  Cl491  1  0.48621079  0.77189305  0.10343835  1
  Cl  Cl492  1  0.01641447  0.22662848  0.89861301  1
  Cl  Cl493  1  -0.00129658  0.55975850  0.88812044  1
  Cl  Cl494  1  0.00167085  0.89030777  0.87699042  1
  Cl  Cl495  1  0.50879320  0.22729918  0.88057487  1
  Cl  Cl496  1  0.49892152  0.55362283  0.87724665  1
  Cl  Cl497  1  0.50746493  0.88812898  0.88199979  1
  Cl  Cl498  1  0.01301216  0.10301960  0.39414222  1
  Cl  Cl499  1  0.01872352  0.44484656  0.36896482  1
  Cl  Cl500  1  -0.01250975  0.77404152  0.38841861  1
  Cl  Cl501  1  0.51617871  0.10720046  0.39359052  1
  Cl  Cl502  1  0.54026320  0.44270139  0.40229782  1
  Cl  Cl503  1  0.48691418  0.78155952  0.37323911  1
  Cl  Cl504  1  0.36490072  0.14670860  0.75043195  1
  Cl  Cl505  1  0.35699579  0.48399285  0.75118085  1
  Cl  Cl506  1  0.36695017  0.81614315  0.73830304  1
  Cl  Cl507  1  0.86583568  0.14461709  0.76296826  1
  Cl  Cl508  1  0.84854454  0.48783219  0.73390939  1
  Cl  Cl509  1  0.86668928  0.81631729  0.74879779  1
  Cl  Cl510  1  0.14211555  0.18146539  0.24942167  1
  Cl  Cl511  1  0.14773040  0.51777489  0.24606039  1
  Cl  Cl512  1  0.13083220  0.85529646  0.24162561  1
  Cl  Cl513  1  0.65328317  0.17757607  0.26260930  1
  Cl  Cl514  1  0.63595816  0.52147738  0.24949030  1
  Cl  Cl515  1  0.63475050  0.85329332  0.25247853  1
  Cl  Cl516  1  0.14392306  0.14962539  0.75115032  1
  Cl  Cl517  1  0.13175285  0.47844479  0.75121918  1
  Cl  Cl518  1  0.14178822  0.81248754  0.75647414  1
  Cl  Cl519  1  0.64036286  0.15137410  0.74663278  1
  Cl  Cl520  1  0.63057646  0.47747500  0.75911522  1
  Cl  Cl521  1  0.64434488  0.81843183  0.75077253  1
  Cl  Cl522  1  0.36932243  0.18890464  0.24439401  1
  Cl  Cl523  1  0.37201534  0.51764046  0.26892181  1
  Cl  Cl524  1  0.35580796  0.85158230  0.24730652  1
  Cl  Cl525  1  0.87367551  0.19043968  0.23747774  1
  Cl  Cl526  1  0.85649614  0.51357589  0.26091125  1
  Cl  Cl527  1  0.85671696  0.84950127  0.24679621  1
  Cl  Cl528  1  0.11080352  0.31515897  0.74409170  1
  Cl  Cl529  1  0.11492209  0.64262450  0.75526088  1
  Cl  Cl530  1  0.11200976  0.98502674  0.75166085  1
  Cl  Cl531  1  0.61011475  0.31623278  0.75372917  1
  Cl  Cl532  1  0.62097107  0.64401660  0.75654385  1
  Cl  Cl533  1  0.60579261  0.98807435  0.74742948  1
  Cl  Cl534  1  0.38483960  0.02447575  0.25916643  1
  Cl  Cl535  1  0.38471788  0.35581879  0.24699777  1
  Cl  Cl536  1  0.40075561  0.67912983  0.25474323  1
  Cl  Cl537  1  0.88312372  0.02390458  0.23773833  1
  Cl  Cl538  1  0.89392783  0.35423179  0.24272123  1
  Cl  Cl539  1  0.89685433  0.67662447  0.24823492  1
  Cl  Cl540  1  0.38759605  0.31711114  0.74974069  1
  Cl  Cl541  1  0.40016054  0.65326128  0.75194448  1
  Cl  Cl542  1  0.38588003  0.97961492  0.74260964  1
  Cl  Cl543  1  0.89143750  0.31960589  0.74474938  1
  Cl  Cl544  1  0.89138715  0.65062603  0.75279076  1
  Cl  Cl545  1  0.88520867  0.97876815  0.74250889  1
  Cl  Cl546  1  0.10161808  0.01429812  0.25237879  1
  Cl  Cl547  1  0.11375613  0.35297195  0.24516466  1
  Cl  Cl548  1  0.11732875  0.68706419  0.25718326  1
  Cl  Cl549  1  0.60511573  0.01326038  0.24668366  1
  Cl  Cl550  1  0.60949109  0.34569482  0.24914197  1
  Cl  Cl551  1  0.61881462  0.69002904  0.23942019  1
