# generated using pymatgen
data_H8PbC4(N3Cl2)2
_symmetry_space_group_name_H-M   'P 1'
_cell_length_a   16.62101316
_cell_length_b   22.49889834
_cell_length_c   21.58748604
_cell_angle_alpha   89.99897810
_cell_angle_beta   90.00145943
_cell_angle_gamma   89.99938022
_symmetry_Int_Tables_number   1
_chemical_formula_structural   H8PbC4(N3Cl2)2
_chemical_formula_sum   'H192 Pb24 C96 N144 Cl96'
_cell_volume   8072.73722498
_cell_formula_units_Z   24
loop_
 _symmetry_equiv_pos_site_id
 _symmetry_equiv_pos_as_xyz
  1  'x, y, z'
loop_
 _atom_site_type_symbol
 _atom_site_label
 _atom_site_symmetry_multiplicity
 _atom_site_fract_x
 _atom_site_fract_y
 _atom_site_fract_z
 _atom_site_occupancy
  H  H0  1  0.00008418  0.03201991  0.68173513  1
  H  H1  1  -0.00053137  0.36583367  0.67998595  1
  H  H2  1  -0.00041174  0.70037730  0.68393830  1
  H  H3  1  0.49793693  0.03274710  0.67996591  1
  H  H4  1  0.50282613  0.36690134  0.68239591  1
  H  H5  1  0.49504085  0.69858823  0.68059541  1
  H  H6  1  0.00108027  0.30038838  0.18018273  1
  H  H7  1  -0.00089727  0.63368406  0.17864590  1
  H  H8  1  -0.00212252  0.96718958  0.18223543  1
  H  H9  1  0.50045061  0.30059766  0.18246834  1
  H  H10  1  0.49792216  0.63408327  0.17949856  1
  H  H11  1  0.49693451  0.96776221  0.18010775  1
  H  H12  1  -0.00431390  0.03295302  0.81733861  1
  H  H13  1  0.00224781  0.36541765  0.81865828  1
  H  H14  1  0.00642348  0.69971929  0.82187178  1
  H  H15  1  0.50602380  0.03271216  0.81752484  1
  H  H16  1  0.49736286  0.36588507  0.81992212  1
  H  H17  1  0.49394097  0.69944671  0.82047276  1
  H  H18  1  0.01017244  0.30134424  0.31832295  1
  H  H19  1  -0.00407835  0.63275479  0.32060160  1
  H  H20  1  -0.00595493  0.96820556  0.31883996  1
  H  H21  1  0.49234623  0.30046662  0.32070442  1
  H  H22  1  0.49783559  0.63480856  0.31922853  1
  H  H23  1  0.50537324  0.96712479  0.32099398  1
  H  H24  1  0.25045190  0.19941453  0.68283836  1
  H  H25  1  0.25295368  0.53194714  0.67900893  1
  H  H26  1  0.25016360  0.86635551  0.67931388  1
  H  H27  1  0.75150752  0.19909649  0.68046048  1
  H  H28  1  0.75168966  0.53294331  0.68077186  1
  H  H29  1  0.74645415  0.86698674  0.68068843  1
  H  H30  1  0.24768174  0.13531929  0.18186562  1
  H  H31  1  0.25699991  0.46791555  0.18138408  1
  H  H32  1  0.25132243  0.79945215  0.18108067  1
  H  H33  1  0.75170084  0.13356366  0.18139826  1
  H  H34  1  0.74744585  0.46773291  0.17969399  1
  H  H35  1  0.74914132  0.80057455  0.17844432  1
  H  H36  1  0.24578593  0.19859306  0.81781658  1
  H  H37  1  0.25385066  0.53292312  0.82014273  1
  H  H38  1  0.25336203  0.86693527  0.81816791  1
  H  H39  1  0.75429210  0.19953740  0.81809290  1
  H  H40  1  0.75018256  0.53107582  0.81995207  1
  H  H41  1  0.75406831  0.86714264  0.81980633  1
  H  H42  1  0.25695875  0.13318584  0.31670335  1
  H  H43  1  0.24579724  0.46769227  0.31926214  1
  H  H44  1  0.24250997  0.80068785  0.31724887  1
  H  H45  1  0.74809145  0.13409915  0.31980209  1
  H  H46  1  0.74641645  0.46676674  0.31732015  1
  H  H47  1  0.75569411  0.80050412  0.31714646  1
  H  H48  1  0.12496524  0.05280770  0.61073747  1
  H  H49  1  0.12372027  0.38853762  0.60984377  1
  H  H50  1  0.12584982  0.71952839  0.61572533  1
  H  H51  1  0.62844568  0.05323782  0.61527992  1
  H  H52  1  0.62107657  0.38820627  0.60732033  1
  H  H53  1  0.62558791  0.71895432  0.61413375  1
  H  H54  1  0.37562494  0.27998876  0.11331168  1
  H  H55  1  0.37652355  0.61138218  0.10671875  1
  H  H56  1  0.38428181  0.94383780  0.10051636  1
  H  H57  1  0.87514488  0.27968579  0.10951863  1
  H  H58  1  0.87642374  0.61187872  0.10839332  1
  H  H59  1  0.88208128  0.94572499  0.10568519  1
  H  H60  1  0.37732600  0.05311786  0.88674028  1
  H  H61  1  0.38028587  0.39025306  0.89743018  1
  H  H62  1  0.38289277  0.72393139  0.90195802  1
  H  H63  1  0.87826363  0.05521663  0.89448019  1
  H  H64  1  0.87448489  0.38529199  0.88483502  1
  H  H65  1  0.87593237  0.72019636  0.88724079  1
  H  H66  1  0.12048593  0.27738581  0.40207757  1
  H  H67  1  0.13289079  0.61392500  0.37749524  1
  H  H68  1  0.12387774  0.94660354  0.38632764  1
  H  H69  1  0.62920058  0.28073566  0.37714665  1
  H  H70  1  0.62964222  0.61357804  0.38381764  1
  H  H71  1  0.61766041  0.94123673  0.40134192  1
  H  H72  1  0.37573945  0.21956334  0.61303144  1
  H  H73  1  0.36580195  0.55966333  0.60025031  1
  H  H74  1  0.37799448  0.88689816  0.61226344  1
  H  H75  1  0.87149893  0.22173696  0.60615132  1
  H  H76  1  0.86884784  0.55488542  0.60279895  1
  H  H77  1  0.87911059  0.88603029  0.61728369  1
  H  H78  1  0.12442992  0.11318432  0.10853271  1
  H  H79  1  0.12268425  0.44915305  0.11931768  1
  H  H80  1  0.11995021  0.78052927  0.11650696  1
  H  H81  1  0.62111925  0.11427380  0.11692334  1
  H  H82  1  0.62816792  0.44442773  0.10308262  1
  H  H83  1  0.62383718  0.77795941  0.10798483  1
  H  H84  1  0.12615525  0.22240014  0.89444846  1
  H  H85  1  0.12224777  0.55387236  0.88533813  1
  H  H86  1  0.11662507  0.88261720  0.87825290  1
  H  H87  1  0.62562433  0.22012161  0.88736790  1
  H  H88  1  0.62823443  0.55413019  0.89330414  1
  H  H89  1  0.61561031  0.88436485  0.87550611  1
  H  H90  1  0.37098146  0.11087629  0.39594959  1
  H  H91  1  0.37591418  0.44653507  0.38560188  1
  H  H92  1  0.37701616  0.78135218  0.37995497  1
  H  H93  1  0.87324375  0.11289084  0.39102442  1
  H  H94  1  0.87828255  0.44778776  0.38383965  1
  H  H95  1  0.87060738  0.77883951  0.39478819  1
  H  H96  1  0.38291785  0.27579653  0.40392252  1
  H  H97  1  0.38223121  0.60985049  0.39832261  1
  H  H98  1  0.37038365  0.94974087  0.38210049  1
  H  H99  1  0.87433587  0.28147791  0.37811639  1
  H  H100  1  0.88599406  0.60782022  0.40294379  1
  H  H101  1  0.87604075  0.94496912  0.39707244  1
  H  H102  1  0.12731107  0.05220497  0.88389332  1
  H  H103  1  0.12369361  0.38716106  0.89138410  1
  H  H104  1  0.12481797  0.72181919  0.89843251  1
  H  H105  1  0.62577224  0.05538951  0.89432085  1
  H  H106  1  0.62912487  0.38620574  0.88336207  1
  H  H107  1  0.62981659  0.71935062  0.87807919  1
  H  H108  1  0.12428902  0.27854855  0.10847984  1
  H  H109  1  0.12523414  0.61477099  0.11078863  1
  H  H110  1  0.13046728  0.94785244  0.12090869  1
  H  H111  1  0.62531428  0.28079100  0.11286175  1
  H  H112  1  0.62583959  0.61256162  0.11149850  1
  H  H113  1  0.63271702  0.94869905  0.11970840  1
  H  H114  1  0.37927715  0.05546151  0.60344520  1
  H  H115  1  0.37173083  0.38525433  0.61894814  1
  H  H116  1  0.37674717  0.72323647  0.60541808  1
  H  H117  1  0.87573517  0.05318771  0.60947856  1
  H  H118  1  0.87460784  0.38753302  0.60843673  1
  H  H119  1  0.87578717  0.71968749  0.61339981  1
  H  H120  1  0.12252169  0.11443920  0.38036346  1
  H  H121  1  0.12719580  0.44419481  0.39435781  1
  H  H122  1  0.12873874  0.77744267  0.39645444  1
  H  H123  1  0.62416591  0.11098585  0.39082351  1
  H  H124  1  0.62916818  0.44484542  0.39427656  1
  H  H125  1  0.62220683  0.78207678  0.37727886  1
  H  H126  1  0.37457497  0.22032112  0.88656843  1
  H  H127  1  0.36992305  0.55597376  0.89871343  1
  H  H128  1  0.36521287  0.88846889  0.89746933  1
  H  H129  1  0.87423574  0.22209387  0.89500081  1
  H  H130  1  0.87655399  0.55478144  0.88946256  1
  H  H131  1  0.86294175  0.88855344  0.90143907  1
  H  H132  1  0.37363416  0.11358998  0.11271050  1
  H  H133  1  0.36982717  0.44369642  0.09946284  1
  H  H134  1  0.36909323  0.77824516  0.10626691  1
  H  H135  1  0.87017111  0.11428916  0.10688266  1
  H  H136  1  0.87652128  0.44683544  0.11394414  1
  H  H137  1  0.87308140  0.77725571  0.10815773  1
  H  H138  1  0.12567678  0.22289965  0.61122760  1
  H  H139  1  0.11844388  0.54871782  0.61636037  1
  H  H140  1  0.12910928  0.88896233  0.60539291  1
  H  H141  1  0.62247403  0.21926967  0.61276195  1
  H  H142  1  0.62030518  0.55422214  0.61704423  1
  H  H143  1  0.63046871  0.89030288  0.60217584  1
  H  H144  1  0.66869292  0.75066012  0.00266340  1
  H  H145  1  0.58298614  0.25080439  0.00279362  1
  H  H146  1  0.32655505  0.08552971  0.00255118  1
  H  H147  1  0.93957850  0.91901928  -0.00367846  1
  H  H148  1  0.81022964  0.75551701  0.50507441  1
  H  H149  1  0.90986939  0.41311009  0.99683475  1
  H  H150  1  0.29713049  0.57377136  0.49608857  1
  H  H151  1  0.15883654  0.58151112  0.99087231  1
  H  H152  1  0.30674351  0.08406084  0.50308460  1
  H  H153  1  0.04671552  0.25532910  0.50339576  1
  H  H154  1  0.31350514  0.75201789  -0.00498052  1
  H  H155  1  0.44918758  0.91917654  -0.00765524  1
  H  H156  1  0.93940598  0.08270258  1.00224741  1
  H  H157  1  0.44816155  0.58665834  0.50140736  1
  H  H158  1  0.95633276  0.58118058  0.50407750  1
  H  H159  1  0.92340649  0.74533775  0.50057259  1
  H  H160  1  0.17641281  0.24522918  0.50452448  1
  H  H161  1  0.08189826  0.74605339  0.50232918  1
  H  H162  1  0.91385052  0.74657827  0.99461256  1
  H  H163  1  0.39897345  0.91486339  0.48777475  1
  H  H164  1  0.18249032  0.91724380  0.50145557  1
  H  H165  1  0.79548408  0.91729035  1.00823624  1
  H  H166  1  0.54760459  0.92540230  0.50443030  1
  H  H167  1  0.69044115  0.41931477  0.50301521  1
  H  H168  1  0.45369942  0.25012785  0.50497370  1
  H  H169  1  0.60749326  0.91979920  0.00999267  1
  H  H170  1  0.07646863  0.08041614  0.50135638  1
  H  H171  1  0.65962341  0.24683256  0.50623582  1
  H  H172  1  0.80626422  0.58042471  0.49856162  1
  H  H173  1  0.56662167  0.41545406  0.49742175  1
  H  H174  1  0.29975534  0.41940314  -0.00202706  1
  H  H175  1  0.30186462  0.91514326  1.00627135  1
  H  H176  1  0.10430744  0.91860122  0.00842020  1
  H  H177  1  0.44010105  0.08231442  0.49897723  1
  H  H178  1  0.69419512  0.91740131  0.49889038  1
  H  H179  1  0.65009129  0.75284421  0.49059401  1
  H  H180  1  0.82000466  0.24856611  0.49727489  1
  H  H181  1  0.19541978  0.75471232  0.50490770  1
  H  H182  1  0.32975870  0.24709393  0.50133019  1
  H  H183  1  0.45197902  0.74965653  1.00388140  1
  H  H184  1  0.81542453  0.08754876  -0.00470283  1
  H  H185  1  0.83075168  0.58140459  0.99398992  1
  H  H186  1  0.58109509  0.58182384  0.00609874  1
  H  H187  1  0.44321723  0.41637021  1.00138199  1
  H  H188  1  0.40468772  0.41315740  0.50617577  1
  H  H189  1  0.14784783  0.58208607  0.50980275  1
  H  H190  1  0.41825895  0.25084276  0.00263757  1
  H  H191  1  0.07609164  0.41476878  1.00072438  1
  Pb  Pb192  1  0.24657262  0.04734950  0.74721109  1
  Pb  Pb193  1  0.24779484  0.38046935  0.75588804  1
  Pb  Pb194  1  0.24884249  0.71401432  0.75216597  1
  Pb  Pb195  1  0.75297282  0.04701328  0.75200206  1
  Pb  Pb196  1  0.74774173  0.38074835  0.74684144  1
  Pb  Pb197  1  0.74814146  0.71429735  0.74999169  1
  Pb  Pb198  1  0.24590758  0.28609212  0.25806191  1
  Pb  Pb199  1  0.25372696  0.61853584  0.25233726  1
  Pb  Pb200  1  0.25021189  0.95308649  0.25112330  1
  Pb  Pb201  1  0.75325178  0.28560825  0.25065563  1
  Pb  Pb202  1  0.75053560  0.61827066  0.25232994  1
  Pb  Pb203  1  0.75103935  0.95410590  0.25595395  1
  Pb  Pb204  1  -0.00251579  0.21528744  0.74702724  1
  Pb  Pb205  1  -0.00343173  0.54683648  0.74643533  1
  Pb  Pb206  1  -0.00129930  0.87956576  0.75160223  1
  Pb  Pb207  1  0.49940693  0.21335921  0.74923897  1
  Pb  Pb208  1  0.49641738  0.54777144  0.75172507  1
  Pb  Pb209  1  0.49664450  0.88214390  0.74626464  1
  Pb  Pb210  1  -0.00019012  0.12043874  0.24794784  1
  Pb  Pb211  1  -0.00059181  0.45418888  0.24988098  1
  Pb  Pb212  1  -0.00053863  0.78420028  0.25156039  1
  Pb  Pb213  1  0.49850195  0.12059757  0.25652002  1
  Pb  Pb214  1  0.50141636  0.44976105  0.24709350  1
  Pb  Pb215  1  0.50051484  0.78690511  0.24269614  1
  C  C216  1  0.00028513  0.04671841  0.63397356  1
  C  C217  1  -0.00104567  0.38071465  0.63242898  1
  C  C218  1  0.00047154  0.71387696  0.63562287  1
  C  C219  1  0.50155118  0.04723902  0.63226785  1
  C  C220  1  0.49829401  0.38078997  0.63432654  1
  C  C221  1  0.49944957  0.71364286  0.63320216  1
  C  C222  1  -0.00004688  0.28592220  0.13248686  1
  C  C223  1  0.00029975  0.61982971  0.13064121  1
  C  C224  1  0.00379664  0.95325686  0.13430662  1
  C  C225  1  0.50046708  0.28654798  0.13432641  1
  C  C226  1  0.50045063  0.61919625  0.13184975  1
  C  C227  1  0.50531392  0.95303724  0.13250591  1
  C  C228  1  0.00063390  0.04699193  0.86521248  1
  C  C229  1  0.00016581  0.37971381  0.86669188  1
  C  C230  1  0.00199830  0.71378463  0.86976161  1
  C  C231  1  0.50306614  0.04705310  0.86546185  1
  C  C232  1  0.50196950  0.38025028  0.86758145  1
  C  C233  1  0.50204570  0.71369972  0.86804409  1
  C  C234  1  0.00207340  0.28735730  0.36600323  1
  C  C235  1  0.00481971  0.61879485  0.36825098  1
  C  C236  1  -0.00216862  0.95337326  0.36652456  1
  C  C237  1  0.50108272  0.28588921  0.36819031  1
  C  C238  1  0.50313230  0.62025441  0.36694449  1
  C  C239  1  0.49766800  0.95297778  0.36889124  1
  C  C240  1  0.25014628  0.21379229  0.63476101  1
  C  C241  1  0.24544588  0.54667463  0.63134007  1
  C  C242  1  0.25212720  0.88104735  0.63150340  1
  C  C243  1  0.74804530  0.21369879  0.63249400  1
  C  C244  1  0.74718775  0.54685579  0.63293866  1
  C  C245  1  0.75178986  0.88072390  0.63287489  1
  C  C246  1  0.24850425  0.12035581  0.13420754  1
  C  C247  1  0.25015209  0.45366467  0.13368604  1
  C  C248  1  0.24699761  0.78612385  0.13300643  1
  C  C249  1  0.74796408  0.12033117  0.13329082  1
  C  C250  1  0.75037796  0.45293896  0.13215663  1
  C  C251  1  0.74821484  0.78551056  0.13072637  1
  C  C252  1  0.24878235  0.21345179  0.86552611  1
  C  C253  1  0.24842050  0.54758552  0.86781259  1
  C  C254  1  0.24537764  0.87975812  0.86616436  1
  C  C255  1  0.75135126  0.21349010  0.86612267  1
  C  C256  1  0.75197772  0.54671145  0.86743227  1
  C  C257  1  0.74436264  0.88044037  0.86754701  1
  C  C258  1  0.24979670  0.11926828  0.36450943  1
  C  C259  1  0.25003808  0.45275160  0.36669396  1
  C  C260  1  0.24965567  0.78607713  0.36476825  1
  C  C261  1  0.74863968  0.11918883  0.36734848  1
  C  C262  1  0.75147628  0.45275095  0.36521236  1
  C  C263  1  0.74921165  0.78641139  0.36503647  1
  C  C264  1  0.03573547  0.73915354  0.96604042  1
  C  C265  1  0.79509245  0.42556953  0.04102450  1
  C  C266  1  0.03586789  0.25940014  0.03933932  1
  C  C267  1  0.96166740  0.59349905  0.03724432  1
  C  C268  1  0.19670630  0.76349707  0.04132258  1
  C  C269  1  0.56085546  0.74003711  0.95646096  1
  C  C270  1  0.44870917  0.40416753  0.54234645  1
  C  C271  1  0.48025716  0.92779155  0.03585587  1
  C  C272  1  0.45941192  0.26103721  0.04038314  1
  C  C273  1  0.78288336  0.23882040  0.53740754  1
  C  C274  1  0.28713164  0.09515290  0.04151174  1
  C  C275  1  0.76400066  0.90614010  0.96556843  1
  C  C276  1  0.27807826  0.76203778  0.03613670  1
  C  C277  1  0.04295986  0.73705214  0.54169596  1
  C  C278  1  0.05638564  0.92900015  0.04347274  1
  C  C279  1  0.77982208  0.09632627  0.03658827  1
  C  C280  1  0.55404289  0.40680958  0.95834227  1
  C  C281  1  0.97467871  0.92859268  0.03767952  1
  C  C282  1  0.71180540  0.09132124  0.45988040  1
  C  C283  1  0.54167748  0.26127860  0.04034574  1
  C  C284  1  0.26887818  0.90468073  0.96411905  1
  C  C285  1  0.55199061  0.07436188  0.54111950  1
  C  C286  1  0.03636337  0.40881279  0.54021308  1
  C  C287  1  0.96096936  0.73693951  0.54084366  1
  C  C288  1  0.29939555  0.90528030  0.53833058  1
  C  C289  1  0.27445365  0.09480457  0.46049641  1
  C  C290  1  0.06454868  0.59481352  0.45652747  1
  C  C291  1  0.95432591  0.40392540  0.95993702  1
  C  C292  1  0.69529995  0.57333142  0.54199018  1
  C  C293  1  0.22599907  0.76226598  0.46108814  1
  C  C294  1  0.69563936  0.76260731  0.45564887  1
  C  C295  1  0.56165915  0.26012814  0.45631393  1
  C  C296  1  0.78945409  0.75816807  0.03677286  1
  C  C297  1  0.69861273  0.09646000  0.04184314  1
  C  C298  1  0.53068182  0.40528277  0.53815710  1
  C  C299  1  0.04377834  0.59471104  0.03817010  1
  C  C300  1  0.72369354  0.42872456  0.46069488  1
  C  C301  1  0.97281772  0.07220028  0.96031002  1
  C  C302  1  0.18820938  0.90220025  0.95529538  1
  C  C303  1  0.03737295  0.07128916  0.54064961  1
  C  C304  1  0.80473069  0.90655256  0.54213329  1
  C  C305  1  0.03657205  0.40456404  0.96203666  1
  C  C306  1  0.21870892  0.42465744  0.46070017  1
  C  C307  1  0.68337215  0.90425319  0.95514770  1
  C  C308  1  0.46873663  0.74250390  0.53941880  1
  C  C309  1  0.46210855  0.59055141  0.03779929  1
  C  C310  1  0.77724156  0.76265564  0.46221536  1
  C  C311  1  0.29224831  0.23884467  0.54169910  1
  N  N312  1  0.78384510  0.23780474  0.96188060  1
  N  N313  1  0.04351773  0.92700142  0.45843944  1
  N  N314  1  0.53604018  0.07216014  0.96078105  1
  N  N315  1  0.70318001  0.23841369  0.54098166  1
  N  N316  1  0.20240132  0.57201652  0.95738174  1
  N  N317  1  0.95844248  0.25990989  0.03836130  1
  N  N318  1  0.19381615  0.43003484  0.04453070  1
  N  N319  1  0.27148191  0.42774682  0.03934919  1
  N  N320  1  0.30486187  0.76236507  0.45520153  1
  N  N321  1  0.95810480  0.07219378  0.53990557  1
  N  N322  1  0.70764254  0.23727773  0.95923205  1
  N  N323  1  0.19533177  0.09642380  0.45549844  1
  N  N324  1  0.96702554  0.92636923  0.46180359  1
  N  N325  1  0.29280046  0.23894548  0.95815861  1
  N  N326  1  0.21636912  0.24003060  0.96057029  1
  N  N327  1  0.47533436  0.40727159  0.96200446  1
  N  N328  1  0.47304983  0.07417400  0.53816433  1
  N  N329  1  0.21266650  0.24103596  0.54251813  1
  N  N330  1  0.79085900  0.57381416  0.95815863  1
  N  N331  1  0.80274259  0.42953703  0.45711272  1
  N  N332  1  0.05180994  0.07111721  0.95687345  1
  N  N333  1  0.52164461  0.91989160  0.46150608  1
  N  N334  1  0.55583654  0.59484681  0.45702321  1
  N  N335  1  0.48307662  0.25872474  0.46417660  1
  N  N336  1  0.19272224  0.56679588  0.54217801  1
  N  N337  1  0.94327959  0.26272144  0.45390700  1
  N  N338  1  0.54621681  0.74104106  0.54080977  1
  N  N339  1  0.22000439  0.90641382  0.53729861  1
  N  N340  1  0.29632671  0.42592450  0.45951943  1
  N  N341  1  0.77404210  0.57291470  0.53828111  1
  N  N342  1  0.72602656  0.90743822  0.53818714  1
  N  N343  1  0.28038686  0.57277194  0.96374579  1
  N  N344  1  0.27031305  0.57917216  0.53871569  1
  N  N345  1  0.48208173  0.74146493  0.96328996  1
  N  N346  1  0.47800243  0.59352306  0.46050237  1
  N  N347  1  0.95689287  0.73844470  0.96096168  1
  N  N348  1  0.78913159  0.09208661  0.46142935  1
  N  N349  1  0.98617596  0.59270114  0.46419303  1
  N  N350  1  0.71226204  0.57299860  0.96120155  1
  N  N351  1  0.02081659  0.26052454  0.46050251  1
  N  N352  1  0.44359774  0.93142101  0.45736769  1
  N  N353  1  0.55917716  0.92882888  0.04389449  1
  N  N354  1  0.95888589  0.40842905  0.53844292  1
  N  N355  1  0.45941935  0.07137727  0.95851646  1
  N  N356  1  0.71758192  0.42491216  0.03622778  1
  N  N357  1  0.20785349  0.09439731  0.03988369  1
  N  N358  1  0.71012503  0.75875573  0.03816488  1
  N  N359  1  0.54115640  0.59166743  0.04050933  1
  N  N360  1  0.06495904  0.05627232  0.59826009  1
  N  N361  1  0.06380040  0.39214349  0.59675655  1
  N  N362  1  0.06634493  0.72269386  0.60092568  1
  N  N363  1  0.56978663  0.05789532  0.59940619  1
  N  N364  1  0.56021182  0.39076847  0.59592625  1
  N  N365  1  0.56560840  0.72294583  0.60088178  1
  N  N366  1  0.43534103  0.27677138  0.09917175  1
  N  N367  1  0.43664197  0.60781322  0.09410794  1
  N  N368  1  0.44614491  0.94225204  0.09096617  1
  N  N369  1  0.93584789  0.27651700  0.09772908  1
  N  N370  1  0.93623820  0.60884711  0.09418549  1
  N  N371  1  0.94307016  0.94352147  0.09475226  1
  N  N372  1  0.43785734  0.05587330  0.89940224  1
  N  N373  1  0.44198955  0.39007600  0.90647670  1
  N  N374  1  0.44494732  0.72357517  0.90927196  1
  N  N375  1  0.93956574  0.05740402  0.90440930  1
  N  N376  1  0.93361181  0.38868038  0.90024121  1
  N  N377  1  0.93554068  0.72256362  0.90182886  1
  N  N378  1  0.05844352  0.27828559  0.40820997  1
  N  N379  1  0.07641485  0.61048444  0.39690841  1
  N  N380  1  0.06374096  0.94335636  0.39928464  1
  N  N381  1  0.57254507  0.27631073  0.39664522  1
  N  N382  1  0.57089915  0.61033806  0.39813935  1
  N  N383  1  0.55559345  0.94327101  0.40982067  1
  N  N384  1  0.31582410  0.22315085  0.59926937  1
  N  N385  1  0.30386452  0.55699530  0.59098076  1
  N  N386  1  0.31918564  0.89000893  0.59692340  1
  N  N387  1  0.81097737  0.22378347  0.59432873  1
  N  N388  1  0.80721421  0.55567514  0.59389234  1
  N  N389  1  0.82094504  0.89010482  0.60071417  1
  N  N390  1  0.18550730  0.11021848  0.09804892  1
  N  N391  1  0.18127847  0.44508241  0.10367988  1
  N  N392  1  0.17852655  0.77779250  0.09990425  1
  N  N393  1  0.67970700  0.11078539  0.10014330  1
  N  N394  1  0.68957339  0.44232675  0.09444388  1
  N  N395  1  0.68422125  0.77593907  0.09592889  1
  N  N396  1  0.18764787  0.22435954  0.90331827  1
  N  N397  1  0.18177707  0.55682873  0.89968561  1
  N  N398  1  0.17425893  0.88718215  0.89608687  1
  N  N399  1  0.68604295  0.22197008  0.90010364  1
  N  N400  1  0.68901906  0.55706987  0.90402615  1
  N  N401  1  0.67211632  0.88879114  0.89547774  1
  N  N402  1  0.30929137  0.10891461  0.40509572  1
  N  N403  1  0.31606736  0.44350544  0.39928836  1
  N  N404  1  0.31766426  0.77705000  0.39526431  1
  N  N405  1  0.81238789  0.10945459  0.40245120  1
  N  N406  1  0.81832853  0.44403147  0.39751313  1
  N  N407  1  0.80958726  0.77711455  0.40525765  1
  N  N408  1  0.44487956  0.27575208  0.41007368  1
  N  N409  1  0.44408261  0.61069836  0.40675740  1
  N  N410  1  0.42871216  0.94301807  0.39770409  1
  N  N411  1  0.93248310  0.27754619  0.39453999  1
  N  N412  1  0.94843024  0.60848743  0.40984402  1
  N  N413  1  0.93740553  0.94274806  0.40505133  1
  N  N414  1  0.06742051  0.05567894  0.89754316  1
  N  N415  1  0.06358272  0.38962111  0.90368616  1
  N  N416  1  0.06405325  0.72419528  0.90943362  1
  N  N417  1  0.56433927  0.05731330  0.90333788  1
  N  N418  1  0.57077741  0.39033103  0.89991097  1
  N  N419  1  0.57294626  0.72364100  0.89711412  1
  N  N420  1  0.06421912  0.27525728  0.09589791  1
  N  N421  1  0.06613349  0.61079624  0.09552949  1
  N  N422  1  0.07265352  0.94423668  0.10367323  1
  N  N423  1  0.56559595  0.27711857  0.09902402  1
  N  N424  1  0.56567603  0.60917857  0.09854185  1
  N  N425  1  0.57407946  0.94428610  0.10328624  1
  N  N426  1  0.44085585  0.05685538  0.59397862  1
  N  N427  1  0.43018703  0.38914838  0.60226457  1
  N  N428  1  0.43748138  0.72602885  0.59471706  1
  N  N429  1  0.93673056  0.05685382  0.59836983  1
  N  N430  1  0.93538856  0.39080590  0.59724941  1
  N  N431  1  0.93570392  0.72259524  0.59955412  1
  N  N432  1  0.18195489  0.11110289  0.39545619  1
  N  N433  1  0.18804735  0.44084457  0.40517976  1
  N  N434  1  0.19026391  0.77607793  0.40571020  1
  N  N435  1  0.68399706  0.10779535  0.40324009  1
  N  N436  1  0.69040008  0.44261484  0.40454190  1
  N  N437  1  0.67988456  0.77728427  0.39524118  1
  N  N438  1  0.31419763  0.22260278  0.89921923  1
  N  N439  1  0.30856508  0.55791493  0.90728855  1
  N  N440  1  0.30365258  0.89025480  0.90708443  1
  N  N441  1  0.81260509  0.22329221  0.90417990  1
  N  N442  1  0.81612854  0.55711002  0.90190424  1
  N  N443  1  0.80112104  0.89090696  0.90967525  1
  N  N444  1  0.31373237  0.11056407  0.09917003  1
  N  N445  1  0.30758470  0.44349523  0.09270781  1
  N  N446  1  0.30848086  0.77636735  0.09449451  1
  N  N447  1  0.80968964  0.11114856  0.09492193  1
  N  N448  1  0.81751392  0.44270730  0.09891107  1
  N  N449  1  0.81295800  0.77466367  0.09417571  1
  N  N450  1  0.18667374  0.22306577  0.59923183  1
  N  N451  1  0.17686575  0.55583702  0.60174094  1
  N  N452  1  0.19034680  0.89159631  0.59487847  1
  N  N453  1  0.68237679  0.22293494  0.59952061  1
  N  N454  1  0.67833728  0.55741041  0.60062612  1
  N  N455  1  0.69218219  0.89080391  0.59370722  1
  Cl  Cl456  1  0.25599521  0.05241309  0.61119405  1
  Cl  Cl457  1  0.24698341  0.38336090  0.62467746  1
  Cl  Cl458  1  0.25058287  0.71919017  0.61809717  1
  Cl  Cl459  1  0.75175293  0.04809904  0.62061862  1
  Cl  Cl460  1  0.74636987  0.38708115  0.61201817  1
  Cl  Cl461  1  0.75090714  0.71779662  0.61769004  1
  Cl  Cl462  1  0.24955432  0.28400449  0.12711189  1
  Cl  Cl463  1  0.25116534  0.61459165  0.12099948  1
  Cl  Cl464  1  0.26196347  0.94606864  0.11954976  1
  Cl  Cl465  1  0.75100981  0.28293808  0.12318438  1
  Cl  Cl466  1  0.75019115  0.61501065  0.11837756  1
  Cl  Cl467  1  0.75742356  0.94740730  0.12238597  1
  Cl  Cl468  1  0.25429097  0.05121165  0.87984279  1
  Cl  Cl469  1  0.25767436  0.39310545  0.89337510  1
  Cl  Cl470  1  0.25559737  0.72122009  0.88699837  1
  Cl  Cl471  1  0.75215686  0.05348123  0.88653935  1
  Cl  Cl472  1  0.75146693  0.38547401  0.87474825  1
  Cl  Cl473  1  0.75341554  0.72124543  0.88573833  1
  Cl  Cl474  1  0.24807358  0.27503934  0.39990480  1
  Cl  Cl475  1  0.26096681  0.60551838  0.39438236  1
  Cl  Cl476  1  0.24705956  0.94535191  0.38902118  1
  Cl  Cl477  1  0.75079921  0.27782898  0.38675838  1
  Cl  Cl478  1  0.76311045  0.60772279  0.39301859  1
  Cl  Cl479  1  0.74091019  0.94199496  0.39552772  1
  Cl  Cl480  1  0.00321947  0.22567934  0.60806501  1
  Cl  Cl481  1  -0.00809059  0.55612886  0.60581240  1
  Cl  Cl482  1  0.00596845  0.88435176  0.62118923  1
  Cl  Cl483  1  0.49743168  0.22043696  0.60759002  1
  Cl  Cl484  1  0.48701009  0.55955137  0.61040956  1
  Cl  Cl485  1  0.50594850  0.89336846  0.60466634  1
  Cl  Cl486  1  -0.00296795  0.11396656  0.11462405  1
  Cl  Cl487  1  -0.00078413  0.44836169  0.11725071  1
  Cl  Cl488  1  -0.00615569  0.77644204  0.11638236  1
  Cl  Cl489  1  0.49706347  0.11444005  0.12845250  1
  Cl  Cl490  1  0.49266870  0.44454623  0.10429184  1
  Cl  Cl491  1  0.49573047  0.77629963  0.10482761  1
  Cl  Cl492  1  -0.00088561  0.22026986  0.87903380  1
  Cl  Cl493  1  -0.00092802  0.55497945  0.87847584  1
  Cl  Cl494  1  -0.01204097  0.88379906  0.88591758  1
  Cl  Cl495  1  0.50014573  0.22301910  0.88236518  1
  Cl  Cl496  1  0.50070056  0.55397060  0.88882818  1
  Cl  Cl497  1  0.48832232  0.88482987  0.88139085  1
  Cl  Cl498  1  -0.00169361  0.11556544  0.38136267  1
  Cl  Cl499  1  0.00379307  0.45216565  0.38083147  1
  Cl  Cl500  1  0.00105771  0.77609510  0.38464848  1
  Cl  Cl501  1  0.49426770  0.11049600  0.39530744  1
  Cl  Cl502  1  0.50400590  0.44549364  0.38136869  1
  Cl  Cl503  1  0.49901511  0.78547369  0.37315581  1
  Cl  Cl504  1  0.36465744  0.14383101  0.74852772  1
  Cl  Cl505  1  0.36211442  0.47852856  0.75018653  1
  Cl  Cl506  1  0.36246516  0.81084210  0.74729500  1
  Cl  Cl507  1  0.86100457  0.14260493  0.74813453  1
  Cl  Cl508  1  0.86362151  0.47707783  0.75012394  1
  Cl  Cl509  1  0.86246995  0.80954440  0.74734041  1
  Cl  Cl510  1  0.13854322  0.19074989  0.25354352  1
  Cl  Cl511  1  0.13859491  0.52396029  0.24969209  1
  Cl  Cl512  1  0.13814266  0.85687663  0.24741239  1
  Cl  Cl513  1  0.63588145  0.19040511  0.25093296  1
  Cl  Cl514  1  0.63825786  0.52495810  0.24853264  1
  Cl  Cl515  1  0.63571527  0.85632258  0.24946736  1
  Cl  Cl516  1  0.14043683  0.14132094  0.74833412  1
  Cl  Cl517  1  0.13816434  0.47741217  0.75003589  1
  Cl  Cl518  1  0.13785236  0.80959887  0.75028943  1
  Cl  Cl519  1  0.63535975  0.14368483  0.74672167  1
  Cl  Cl520  1  0.63816409  0.47729459  0.74854386  1
  Cl  Cl521  1  0.63913728  0.80819690  0.75336071  1
  Cl  Cl522  1  0.36330390  0.18969294  0.25150567  1
  Cl  Cl523  1  0.36033653  0.52447869  0.25230185  1
  Cl  Cl524  1  0.36401331  0.85594074  0.25281308  1
  Cl  Cl525  1  0.86177943  0.19144405  0.25282257  1
  Cl  Cl526  1  0.86238633  0.52353504  0.25053527  1
  Cl  Cl527  1  0.86054973  0.85574788  0.24943217  1
  Cl  Cl528  1  0.11416911  0.30967711  0.74893682  1
  Cl  Cl529  1  0.11316139  0.64390674  0.74795135  1
  Cl  Cl530  1  0.11392600  0.97620837  0.75280466  1
  Cl  Cl531  1  0.61219115  0.31041662  0.74930081  1
  Cl  Cl532  1  0.61361399  0.64354947  0.75175347  1
  Cl  Cl533  1  0.61069397  0.97497081  0.74881664  1
  Cl  Cl534  1  0.38870368  0.02180173  0.25527196  1
  Cl  Cl535  1  0.39047507  0.35797198  0.25138946  1
  Cl  Cl536  1  0.38771413  0.68938445  0.24958841  1
  Cl  Cl537  1  0.88704921  0.02237169  0.25065378  1
  Cl  Cl538  1  0.88781907  0.35693480  0.25325631  1
  Cl  Cl539  1  0.88831148  0.69042656  0.24979124  1
  Cl  Cl540  1  0.38769838  0.31030920  0.74728546  1
  Cl  Cl541  1  0.38911029  0.64279156  0.75057116  1
  Cl  Cl542  1  0.39075729  0.97482666  0.74794251  1
  Cl  Cl543  1  0.88763864  0.30926833  0.74806283  1
  Cl  Cl544  1  0.88856091  0.64279079  0.75092663  1
  Cl  Cl545  1  0.88725195  0.97649250  0.74825420  1
  Cl  Cl546  1  0.11522483  0.02358527  0.25071961  1
  Cl  Cl547  1  0.11313835  0.35672491  0.24981438  1
  Cl  Cl548  1  0.11226626  0.69008786  0.25087458  1
  Cl  Cl549  1  0.61254523  0.02225285  0.24915782  1
  Cl  Cl550  1  0.61023653  0.35805023  0.25244505  1
  Cl  Cl551  1  0.61268236  0.68946224  0.25091721  1
