# generated using pymatgen
data_H8PbC4(N3Cl2)2
_symmetry_space_group_name_H-M   'P 1'
_cell_length_a   16.62103200
_cell_length_b   22.50128849
_cell_length_c   21.58800060
_cell_angle_alpha   90.00209147
_cell_angle_beta   89.99083400
_cell_angle_gamma   89.99475811
_symmetry_Int_Tables_number   1
_chemical_formula_structural   H8PbC4(N3Cl2)2
_chemical_formula_sum   'H192 Pb24 C96 N144 Cl96'
_cell_volume   8073.79628452
_cell_formula_units_Z   24
loop_
 _symmetry_equiv_pos_site_id
 _symmetry_equiv_pos_as_xyz
  1  'x, y, z'
loop_
 _atom_site_type_symbol
 _atom_site_label
 _atom_site_symmetry_multiplicity
 _atom_site_fract_x
 _atom_site_fract_y
 _atom_site_fract_z
 _atom_site_occupancy
  H  H0  1  -0.00564115  0.03230344  0.67984335  1
  H  H1  1  0.00406425  0.36473200  0.67991195  1
  H  H2  1  -0.00309870  0.69959682  0.68186774  1
  H  H3  1  0.50386039  0.03252757  0.68184957  1
  H  H4  1  0.50271049  0.36549038  0.68018034  1
  H  H5  1  0.50023261  0.69972981  0.68025736  1
  H  H6  1  -0.00787066  0.30021566  0.18083236  1
  H  H7  1  0.00046610  0.64036445  0.17874416  1
  H  H8  1  0.00384850  0.96712678  0.17890512  1
  H  H9  1  0.49978523  0.30138545  0.17911402  1
  H  H10  1  0.49794978  0.63398875  0.17789132  1
  H  H11  1  0.49413182  0.96833732  0.18013327  1
  H  H12  1  -0.00157830  0.03248539  0.81973474  1
  H  H13  1  0.00453298  0.36435771  0.81877733  1
  H  H14  1  0.00088996  0.69939804  0.82000427  1
  H  H15  1  0.50426863  0.03222105  0.82179667  1
  H  H16  1  0.49959367  0.36481320  0.81882890  1
  H  H17  1  0.50010024  0.69806424  0.81852898  1
  H  H18  1  0.00582608  0.30056500  0.32248848  1
  H  H19  1  -0.00947984  0.63425017  0.32206842  1
  H  H20  1  0.00641788  0.96833246  0.31979930  1
  H  H21  1  0.49655999  0.30193658  0.31976018  1
  H  H22  1  0.50928761  0.63645552  0.31887904  1
  H  H23  1  0.49724630  0.96864491  0.31763276  1
  H  H24  1  0.24755682  0.19921628  0.67896465  1
  H  H25  1  0.24901295  0.53067092  0.67943000  1
  H  H26  1  0.24466668  0.86389667  0.68110760  1
  H  H27  1  0.74750464  0.19809002  0.67768914  1
  H  H28  1  0.74707249  0.53067263  0.68168837  1
  H  H29  1  0.75368284  0.86618160  0.68225553  1
  H  H30  1  0.24462361  0.13344502  0.17905501  1
  H  H31  1  0.24505095  0.46801282  0.18071030  1
  H  H32  1  0.24895365  0.80068627  0.18134803  1
  H  H33  1  0.74903212  0.13369961  0.17910177  1
  H  H34  1  0.74747827  0.46791789  0.18390909  1
  H  H35  1  0.75355490  0.80274240  0.17964599  1
  H  H36  1  0.25124920  0.19989006  0.82128472  1
  H  H37  1  0.24377248  0.53434460  0.81856906  1
  H  H38  1  0.25244865  0.86515302  0.81996526  1
  H  H39  1  0.75706967  0.19928855  0.81784182  1
  H  H40  1  0.76118829  0.53215533  0.82034763  1
  H  H41  1  0.76048263  0.86742851  0.82255518  1
  H  H42  1  0.24972840  0.13400482  0.32029422  1
  H  H43  1  0.25202819  0.46858224  0.31748354  1
  H  H44  1  0.25380871  0.80278010  0.32000491  1
  H  H45  1  0.74667271  0.13415951  0.31817484  1
  H  H46  1  0.73956766  0.46472150  0.32466310  1
  H  H47  1  0.75328447  0.80165354  0.31802705  1
  H  H48  1  0.12259135  0.05264070  0.61509441  1
  H  H49  1  0.11975139  0.38797254  0.60251303  1
  H  H50  1  0.12843606  0.71856275  0.61888010  1
  H  H51  1  0.61892160  0.05476951  0.60461056  1
  H  H52  1  0.62544295  0.38636956  0.60777801  1
  H  H53  1  0.62538130  0.72198196  0.60908161  1
  H  H54  1  0.37977863  0.27734174  0.10458705  1
  H  H55  1  0.37746457  0.61046335  0.10461678  1
  H  H56  1  0.38330229  0.94178590  0.09833316  1
  H  H57  1  0.88158653  0.27458278  0.09821652  1
  H  H58  1  0.87652803  0.61231604  0.10973622  1
  H  H59  1  0.87707608  0.94735836  0.10840298  1
  H  H60  1  0.36849377  0.05103732  0.88180890  1
  H  H61  1  0.37084250  0.38658953  0.88749800  1
  H  H62  1  0.37744196  0.71935256  0.89075390  1
  H  H63  1  0.86701886  0.05118007  0.88451104  1
  H  H64  1  0.87226497  0.38543251  0.88093410  1
  H  H65  1  0.87745628  0.72302330  0.89231574  1
  H  H66  1  0.12143111  0.27476724  0.39966953  1
  H  H67  1  0.13043423  0.61692542  0.37471229  1
  H  H68  1  0.12417357  0.94567115  0.39591390  1
  H  H69  1  0.62474657  0.28188212  0.38880565  1
  H  H70  1  0.62326949  0.60795948  0.39770545  1
  H  H71  1  0.62436567  0.94705779  0.38452106  1
  H  H72  1  0.37471502  0.21980358  0.61306938  1
  H  H73  1  0.36877326  0.55558695  0.60402380  1
  H  H74  1  0.37423039  0.88517261  0.61300867  1
  H  H75  1  0.87599097  0.21932631  0.61154089  1
  H  H76  1  0.87393698  0.55517812  0.61263279  1
  H  H77  1  0.87342436  0.88853142  0.60947626  1
  H  H78  1  0.13518843  0.10848948  0.09690130  1
  H  H79  1  0.13202472  0.44393204  0.10159584  1
  H  H80  1  0.12162449  0.78053341  0.11119070  1
  H  H81  1  0.63468575  0.10871084  0.10022946  1
  H  H82  1  0.62697015  0.44649827  0.10964482  1
  H  H83  1  0.62711630  0.77985021  0.11072499  1
  H  H84  1  0.12218338  0.22049693  0.88874125  1
  H  H85  1  0.12955409  0.55651605  0.89599464  1
  H  H86  1  0.11891479  0.88548176  0.88325351  1
  H  H87  1  0.62073410  0.21849232  0.87858377  1
  H  H88  1  0.62293458  0.55135075  0.87597178  1
  H  H89  1  0.62307202  0.88385557  0.87746590  1
  H  H90  1  0.37861186  0.11437105  0.38554766  1
  H  H91  1  0.37653842  0.44581841  0.39019419  1
  H  H92  1  0.37242395  0.77731733  0.39447649  1
  H  H93  1  0.87867970  0.11433163  0.38446387  1
  H  H94  1  0.87927845  0.44867835  0.37644859  1
  H  H95  1  0.87032677  0.77929006  0.39539917  1
  H  H96  1  0.37581188  0.27745141  0.39279942  1
  H  H97  1  0.37538980  0.61718661  0.37942561  1
  H  H98  1  0.37481740  0.94720847  0.38898546  1
  H  H99  1  0.87316260  0.28096518  0.38535170  1
  H  H100  1  0.88555026  0.60624243  0.40667016  1
  H  H101  1  0.87536053  0.94784461  0.38597932  1
  H  H102  1  0.11589203  0.05388233  0.89450558  1
  H  H103  1  0.12107319  0.38977481  0.89613367  1
  H  H104  1  0.12637046  0.72148232  0.88899534  1
  H  H105  1  0.61540745  0.05852874  0.90252378  1
  H  H106  1  0.61908941  0.38902378  0.89536481  1
  H  H107  1  0.62730630  0.72159464  0.88762475  1
  H  H108  1  0.12786265  0.28166508  0.12093216  1
  H  H109  1  0.12537007  0.61290183  0.11031203  1
  H  H110  1  0.12613435  0.94455069  0.10605253  1
  H  H111  1  0.62811998  0.27853578  0.11034479  1
  H  H112  1  0.62620411  0.61128701  0.11055816  1
  H  H113  1  0.63072043  0.94990717  0.12277634  1
  H  H114  1  0.37042595  0.05209008  0.62187743  1
  H  H115  1  0.37618255  0.38493888  0.61347189  1
  H  H116  1  0.37634354  0.72154383  0.60935174  1
  H  H117  1  0.87346328  0.05429717  0.60626205  1
  H  H118  1  0.87112150  0.38502652  0.61679036  1
  H  H119  1  0.87914209  0.72223276  0.60696252  1
  H  H120  1  0.12975664  0.11363506  0.39369585  1
  H  H121  1  0.12790053  0.44532430  0.39005921  1
  H  H122  1  0.12366162  0.78103795  0.38627781  1
  H  H123  1  0.62958712  0.11159992  0.39505205  1
  H  H124  1  0.63463890  0.44129838  0.40794742  1
  H  H125  1  0.62121350  0.78054305  0.38386023  1
  H  H126  1  0.37122190  0.22269462  0.89544014  1
  H  H127  1  0.37767440  0.55235804  0.87953187  1
  H  H128  1  0.36697675  0.89025561  0.90015448  1
  H  H129  1  0.86846826  0.22211365  0.89904093  1
  H  H130  1  0.86763266  0.55988728  0.90559230  1
  H  H131  1  0.86876652  0.89035040  0.90386260  1
  H  H132  1  0.38199183  0.11623626  0.12182325  1
  H  H133  1  0.38065580  0.44945643  0.11955147  1
  H  H134  1  0.36990007  0.77748312  0.10700597  1
  H  H135  1  0.88300673  0.11309379  0.11756286  1
  H  H136  1  0.87593052  0.44613397  0.11522515  1
  H  H137  1  0.87512809  0.77984334  0.10503901  1
  H  H138  1  0.12555059  0.21924009  0.60548795  1
  H  H139  1  0.12096198  0.55426654  0.61143196  1
  H  H140  1  0.12563917  0.88980409  0.60455647  1
  H  H141  1  0.62684762  0.22407664  0.60452623  1
  H  H142  1  0.62402394  0.55245758  0.60999973  1
  H  H143  1  0.62395477  0.88465940  0.61586412  1
  H  H144  1  0.90680349  0.25107320  0.49269178  1
  H  H145  1  0.19020002  0.58154471  1.00637280  1
  H  H146  1  0.58319860  0.75051584  0.99211626  1
  H  H147  1  0.90473972  0.41495862  0.99290968  1
  H  H148  1  0.93457815  0.75058064  0.49718981  1
  H  H149  1  0.55863070  0.59057897  0.50220821  1
  H  H150  1  0.68078935  0.41828625  0.00142377  1
  H  H151  1  0.67459048  0.57297872  0.49739004  1
  H  H152  1  0.06120219  0.41582935  0.49477181  1
  H  H153  1  0.79082613  0.58057749  1.00573316  1
  H  H154  1  0.29889126  0.91344165  1.00259570  1
  H  H155  1  0.80145189  0.24884978  1.00463334  1
  H  H156  1  0.58266793  0.25224998  0.00473607  1
  H  H157  1  0.96138558  0.58406767  0.50713620  1
  H  H158  1  0.68063654  0.25442239  0.50153938  1
  H  H159  1  0.06055023  0.08095290  1.00539478  1
  H  H160  1  0.81920769  0.75683926  0.00048050  1
  H  H161  1  0.55953371  0.08079593  0.49528453  1
  H  H162  1  0.42553219  0.74668259  1.00042434  1
  H  H163  1  0.06667046  0.60078654  0.00329266  1
  H  H164  1  0.61079989  0.91765476  0.00953678  1
  H  H165  1  0.16721026  0.75466979  0.00590689  1
  H  H166  1  0.39571512  0.08520990  0.98870487  1
  H  H167  1  0.39492879  0.08082567  0.50858688  1
  H  H168  1  0.82319190  0.91719217  0.49956191  1
  H  H169  1  0.09603152  0.74891616  0.50687861  1
  H  H170  1  0.19497889  0.41892708  -0.00638583  1
  H  H171  1  0.42115871  0.91761876  0.49865297  1
  H  H172  1  0.33623792  0.24770001  0.49966315  1
  H  H173  1  0.45203329  0.91903674  -0.00351385  1
  H  H174  1  0.82564551  0.57109863  0.50390312  1
  H  H175  1  0.35013611  0.42072405  0.01214149  1
  H  H176  1  0.95366904  0.24560984  -0.00135140  1
  H  H177  1  0.69095605  0.08355492  0.50305317  1
  H  H178  1  0.40435503  0.58701899  0.49147565  1
  H  H179  1  0.70022330  0.08171108  -0.00277018  1
  H  H180  1  0.89827732  0.41424036  0.50870410  1
  H  H181  1  0.16422819  0.24910214  0.99504443  1
  H  H182  1  0.05976641  0.40984752  1.00091094  1
  H  H183  1  0.08559816  0.08225577  0.50199212  1
  H  H184  1  0.54420881  0.07455022  1.00538571  1
  H  H185  1  0.16182546  0.58144338  0.50530506  1
  H  H186  1  0.80868522  0.75500269  0.50390009  1
  H  H187  1  0.58749852  0.91722299  0.49521280  1
  H  H188  1  0.93550200  0.59629947  0.00224477  1
  H  H189  1  0.58318099  0.58183501  0.00454716  1
  H  H190  1  0.41678659  0.41383423  0.50053584  1
  H  H191  1  0.20536139  0.08119088  -0.00416858  1
  Pb  Pb192  1  0.24275576  0.04864327  0.75608894  1
  Pb  Pb193  1  0.24978360  0.38075107  0.75236292  1
  Pb  Pb194  1  0.24807778  0.71189349  0.75462363  1
  Pb  Pb195  1  0.74652286  0.04532490  0.75222934  1
  Pb  Pb196  1  0.74549806  0.38040671  0.75247706  1
  Pb  Pb197  1  0.74715747  0.71740131  0.75030128  1
  Pb  Pb198  1  0.25627679  0.28413565  0.24985295  1
  Pb  Pb199  1  0.25143317  0.62207873  0.24786152  1
  Pb  Pb200  1  0.24720934  0.95274202  0.24455936  1
  Pb  Pb201  1  0.74773133  0.28658241  0.24884890  1
  Pb  Pb202  1  0.75190983  0.61703531  0.25573224  1
  Pb  Pb203  1  0.75546902  0.95289370  0.25094208  1
  Pb  Pb204  1  -0.00625324  0.21529115  0.75185012  1
  Pb  Pb205  1  -0.00349121  0.54830984  0.75631132  1
  Pb  Pb206  1  -0.00186427  0.87903142  0.74913807  1
  Pb  Pb207  1  0.49831594  0.21235132  0.74988042  1
  Pb  Pb208  1  0.50029853  0.54851524  0.74381272  1
  Pb  Pb209  1  0.49143330  0.88120784  0.75362295  1
  Pb  Pb210  1  0.00202540  0.12206007  0.24853650  1
  Pb  Pb211  1  0.00595662  0.45020589  0.24684100  1
  Pb  Pb212  1  -0.00035020  0.78769649  0.25185651  1
  Pb  Pb213  1  0.50491074  0.11645211  0.24788436  1
  Pb  Pb214  1  0.49986111  0.45402688  0.25381229  1
  Pb  Pb215  1  0.50101867  0.78728536  0.24540903  1
  C  C216  1  -0.00264632  0.04655085  0.63199552  1
  C  C217  1  -0.00220110  0.37995813  0.63223148  1
  C  C218  1  0.00173577  0.71385262  0.63392192  1
  C  C219  1  0.49744517  0.04671679  0.63397960  1
  C  C220  1  0.50089034  0.37954945  0.63226026  1
  C  C221  1  0.50094709  0.71434159  0.63258291  1
  C  C222  1  0.00024844  0.28560658  0.13332928  1
  C  C223  1  0.00081244  0.62302990  0.13174410  1
  C  C224  1  0.00216167  0.95288087  0.13110874  1
  C  C225  1  0.50306357  0.28619047  0.13156351  1
  C  C226  1  0.50100173  0.61908692  0.13025100  1
  C  C227  1  0.50251583  0.95352668  0.13263322  1
  C  C228  1  -0.00606127  0.04617691  0.86768254  1
  C  C229  1  -0.00048818  0.37980208  0.86637719  1
  C  C230  1  0.00128430  0.71427907  0.86752143  1
  C  C231  1  0.49568105  0.04744620  0.86918780  1
  C  C232  1  0.49649468  0.37967297  0.86661447  1
  C  C233  1  0.50206474  0.71353274  0.86619420  1
  C  C234  1  -0.00029309  0.28586458  0.37005559  1
  C  C235  1  0.00201044  0.61994199  0.36927941  1
  C  C236  1  0.00167241  0.95386177  0.36739880  1
  C  C237  1  0.49938968  0.28736004  0.36736453  1
  C  C238  1  0.50320306  0.62141304  0.36652372  1
  C  C239  1  0.49885350  0.95362233  0.36543545  1
  C  C240  1  0.24978982  0.21279338  0.63085774  1
  C  C241  1  0.24588487  0.54636491  0.63196643  1
  C  C242  1  0.24824468  0.87909438  0.63350743  1
  C  C243  1  0.74972079  0.21372146  0.63024304  1
  C  C244  1  0.74902271  0.54563037  0.63377317  1
  C  C245  1  0.75073642  0.87993795  0.63423187  1
  C  C246  1  0.25385379  0.11919075  0.13154921  1
  C  C247  1  0.25327215  0.45317995  0.13317513  1
  C  C248  1  0.24650104  0.78644892  0.13337850  1
  C  C249  1  0.75553190  0.11931972  0.13149011  1
  C  C250  1  0.75038500  0.45336347  0.13605344  1
  C  C251  1  0.75220096  0.78782098  0.13190888  1
  C  C252  1  0.24769383  0.21417879  0.86910213  1
  C  C253  1  0.25009638  0.54745212  0.86657407  1
  C  C254  1  0.24640492  0.87968616  0.86762134  1
  C  C255  1  0.74836320  0.21350198  0.86542935  1
  C  C256  1  0.75105499  0.54667985  0.86767144  1
  C  C257  1  0.75034577  0.88064144  0.87008012  1
  C  C258  1  0.25278730  0.12023767  0.36829852  1
  C  C259  1  0.25205625  0.45355688  0.36522141  1
  C  C260  1  0.24964158  0.78736890  0.36728618  1
  C  C261  1  0.75193493  0.12006562  0.36604534  1
  C  C262  1  0.75155626  0.45145756  0.37203909  1
  C  C263  1  0.74807085  0.78700324  0.36574448  1
  C  C264  1  0.81042574  0.09218270  0.04160197  1
  C  C265  1  0.22666527  0.42802228  0.03670692  1
  C  C266  1  0.71789038  0.42822065  0.04173814  1
  C  C267  1  0.03702998  0.92576793  0.03774300  1
  C  C268  1  0.28059854  0.75755302  0.46069716  1
  C  C269  1  0.31354353  0.09710063  0.04273994  1
  C  C270  1  0.46389823  0.74149033  0.53989625  1
  C  C271  1  0.96982720  0.73976789  0.53808757  1
  C  C272  1  0.44344358  0.07077607  0.54342426  1
  C  C273  1  0.81475052  0.42812784  0.45816350  1
  C  C274  1  0.29964175  0.09536244  0.45990006  1
  C  C275  1  0.73470656  0.42558793  0.46855754  1
  C  C276  1  0.45797982  0.40440801  0.53831293  1
  C  C277  1  0.46348196  0.73799678  0.96047182  1
  C  C278  1  0.70312734  0.90419555  0.54239607  1
  C  C279  1  0.22339805  0.57167095  0.96417761  1
  C  C280  1  0.77000555  0.23876337  0.96160391  1
  C  C281  1  0.46343361  0.58974414  0.03612278  1
  C  C282  1  0.21217466  0.23648194  0.53600384  1
  C  C283  1  0.94331973  0.07032129  0.95917948  1
  C  C284  1  0.21840598  0.09511370  0.46278281  1
  C  C285  1  0.05178668  0.73888248  0.54259026  1
  C  C286  1  0.46113152  0.92785860  0.46019937  1
  C  C287  1  0.03149034  0.92621865  0.46172541  1
  C  C288  1  0.44880369  0.59576025  0.45560877  1
  C  C289  1  0.54332252  0.92782184  0.45849409  1
  C  C290  1  0.56104958  0.92734173  0.04501882  1
  C  C291  1  0.69039896  0.90397630  0.95790666  1
  C  C292  1  0.03014643  0.25643154  0.46568418  1
  C  C293  1  0.72422508  0.09427144  0.46107049  1
  C  C294  1  0.77056023  0.90637800  0.96644764  1
  C  C295  1  0.53957178  0.40468048  0.53802687  1
  C  C296  1  0.28417987  0.24215756  0.96383751  1
  C  C297  1  0.77555760  0.76283050  0.46122836  1
  C  C298  1  0.06673650  0.59410003  0.45519944  1
  C  C299  1  0.52525676  0.07141150  0.53711089  1
  C  C300  1  0.02481657  0.07135104  0.96428480  1
  C  C301  1  0.30454844  0.57015789  0.95680945  1
  C  C302  1  0.79736112  0.24138967  0.53839638  1
  C  C303  1  0.46546625  0.25977534  0.46117257  1
  C  C304  1  0.29376931  0.23753872  0.53711760  1
  C  C305  1  0.04261758  0.07207964  0.53894292  1
  C  C306  1  0.96110914  0.07220834  0.53750013  1
  C  C307  1  0.02656156  0.40609045  0.53640012  1
  C  C308  1  0.04137667  0.74186749  0.95993349  1
  C  C309  1  0.94801538  0.40591384  0.95629677  1
  C  C310  1  0.70969254  0.56972874  0.53977728  1
  C  C311  1  0.78455398  0.90610064  0.53854509  1
  N  N312  1  0.20313215  0.75881157  0.45929655  1
  N  N313  1  0.95983499  0.92647481  0.03723416  1
  N  N314  1  0.04228400  0.58521927  0.04407311  1
  N  N315  1  0.96351016  0.74180432  0.96248495  1
  N  N316  1  0.30566836  0.42871640  0.04447560  1
  N  N317  1  0.46545679  0.25940807  0.03744518  1
  N  N318  1  0.52883732  0.40753744  0.96124647  1
  N  N319  1  0.51875563  0.07946385  0.96215079  1
  N  N320  1  0.44089429  0.06838321  0.95736129  1
  N  N321  1  0.94714926  0.40543493  0.54257793  1
  N  N322  1  0.80329761  0.09523765  0.45745644  1
  N  N323  1  0.21400651  0.42722781  0.45903366  1
  N  N324  1  0.23510786  0.09352839  0.03551051  1
  N  N325  1  0.05870098  0.26292669  0.04469595  1
  N  N326  1  0.98100008  0.26077456  0.03821395  1
  N  N327  1  0.54355995  0.26018201  0.04089890  1
  N  N328  1  0.79722687  0.42852840  0.04302806  1
  N  N329  1  0.48177908  0.92458374  0.03793073  1
  N  N330  1  0.95399631  0.92666239  0.45958534  1
  N  N331  1  0.71799012  0.24297289  0.53724093  1
  N  N332  1  0.20403418  0.57268376  0.54137934  1
  N  N333  1  0.26978167  0.90600701  0.96140625  1
  N  N334  1  0.76570074  0.57463263  0.96243922  1
  N  N335  1  0.28522815  0.76170526  0.03890503  1
  N  N336  1  0.21674850  0.90827809  0.53911983  1
  N  N337  1  0.54333281  0.26105923  0.46080720  1
  N  N338  1  0.78447824  0.76102663  0.03946182  1
  N  N339  1  0.69656465  0.76230091  0.45717754  1
  N  N340  1  0.54252602  0.59140666  0.03898421  1
  N  N341  1  0.54317505  0.73829836  0.95832877  1
  N  N342  1  0.52814701  0.59233097  0.46095850  1
  N  N343  1  0.96083738  0.58463928  0.04415632  1
  N  N344  1  0.78933487  0.57300057  0.54212974  1
  N  N345  1  0.95147830  0.25952967  0.45978476  1
  N  N346  1  0.45224170  0.40671641  0.95854805  1
  N  N347  1  0.68839420  0.57062731  0.95420502  1
  N  N348  1  0.98858461  0.59093369  0.46499153  1
  N  N349  1  0.54128580  0.74119431  0.53828190  1
  N  N350  1  0.20687048  0.76295075  0.04183727  1
  N  N351  1  0.70604735  0.76229600  0.03978114  1
  N  N352  1  0.19205463  0.90389549  0.95738866  1
  N  N353  1  0.28254755  0.57334187  0.53779827  1
  N  N354  1  0.69110136  0.23772997  0.95508150  1
  N  N355  1  0.73160285  0.09153788  0.03684987  1
  N  N356  1  0.20512207  0.24037948  0.96054110  1
  N  N357  1  0.02755990  0.40806761  0.96037491  1
  N  N358  1  0.29071270  0.42745174  0.45890690  1
  N  N359  1  0.29300822  0.90640028  0.54180816  1
  N  N360  1  0.06385345  0.05609003  0.59898666  1
  N  N361  1  0.05840572  0.39062153  0.59214518  1
  N  N362  1  0.07002185  0.72283663  0.60224582  1
  N  N363  1  0.55771123  0.05646776  0.59396365  1
  N  N364  1  0.56517580  0.38985632  0.59476746  1
  N  N365  1  0.56468495  0.72422007  0.59754975  1
  N  N366  1  0.44080679  0.27497016  0.09446104  1
  N  N367  1  0.43753341  0.60717010  0.09235427  1
  N  N368  1  0.44568716  0.94287613  0.09125771  1
  N  N369  1  0.94385222  0.27333996  0.09213031  1
  N  N370  1  0.93711708  0.61178487  0.09685490  1
  N  N371  1  0.93778196  0.94355506  0.09666390  1
  N  N372  1  0.42650059  0.05807798  0.89740900  1
  N  N373  1  0.43094691  0.38923855  0.90001914  1
  N  N374  1  0.43774769  0.72260073  0.90328877  1
  N  N375  1  0.92537383  0.05505801  0.90064616  1
  N  N376  1  0.93045463  0.39000936  0.89756981  1
  N  N377  1  0.93852181  0.72455528  0.90346261  1
  N  N378  1  0.06038800  0.27308110  0.41019020  1
  N  N379  1  0.07488770  0.61103813  0.39562171  1
  N  N380  1  0.06328847  0.94265650  0.40648069  1
  N  N381  1  0.56429118  0.27874760  0.40136303  1
  N  N382  1  0.56191326  0.61158112  0.40665206  1
  N  N383  1  0.56501968  0.94381508  0.39924207  1
  N  N384  1  0.31588025  0.22251315  0.59732811  1
  N  N385  1  0.30771234  0.55730032  0.59436770  1
  N  N386  1  0.31389349  0.88821493  0.60012401  1
  N  N387  1  0.81693326  0.22355307  0.59607872  1
  N  N388  1  0.81347884  0.55436822  0.59922734  1
  N  N389  1  0.81311038  0.89071542  0.59701360  1
  N  N390  1  0.19757077  0.10715846  0.09044409  1
  N  N391  1  0.19372368  0.44295608  0.09191981  1
  N  N392  1  0.18198838  0.77825010  0.09864214  1
  N  N393  1  0.69659765  0.10950815  0.09166216  1
  N  N394  1  0.68782125  0.44309482  0.09843325  1
  N  N395  1  0.68697400  0.77721838  0.09798384  1
  N  N396  1  0.18194248  0.22273100  0.90217478  1
  N  N397  1  0.19019715  0.55721816  0.90662285  1
  N  N398  1  0.17803535  0.88910468  0.89824007  1
  N  N399  1  0.67954263  0.22227308  0.89474425  1
  N  N400  1  0.68012993  0.55544318  0.89453561  1
  N  N401  1  0.67847669  0.88842943  0.89823613  1
  N  N402  1  0.31999651  0.11076090  0.40171310  1
  N  N403  1  0.31552987  0.44371634  0.40097354  1
  N  N404  1  0.31165151  0.77484248  0.40554067  1
  N  N405  1  0.81872840  0.11108070  0.39824680  1
  N  N406  1  0.82423117  0.44374067  0.39834777  1
  N  N407  1  0.80895876  0.77710177  0.40525978  1
  N  N408  1  0.43635908  0.27545164  0.40469216  1
  N  N409  1  0.43341100  0.61195827  0.39670892  1
  N  N410  1  0.43498497  0.94384525  0.40193188  1
  N  N411  1  0.93213038  0.27804074  0.40097831  1
  N  N412  1  0.94774754  0.60918315  0.41254722  1
  N  N413  1  0.93536331  0.94419451  0.39944823  1
  N  N414  1  0.05523278  0.05644338  0.90615543  1
  N  N415  1  0.05920735  0.38944941  0.90549644  1
  N  N416  1  0.06662727  0.72496171  0.90268878  1
  N  N417  1  0.55308916  0.05645304  0.91070562  1
  N  N418  1  0.55747917  0.39103915  0.90436430  1
  N  N419  1  0.56673405  0.72436863  0.89992536  1
  N  N420  1  0.06988198  0.27849668  0.10393438  1
  N  N421  1  0.06491559  0.61196432  0.09742988  1
  N  N422  1  0.06610860  0.94185216  0.09418049  1
  N  N423  1  0.56808592  0.27699818  0.09761937  1
  N  N424  1  0.56638825  0.60999204  0.09693194  1
  N  N425  1  0.57351915  0.94425967  0.10426927  1
  N  N426  1  0.42820770  0.05552496  0.60383315  1
  N  N427  1  0.43509576  0.38876087  0.59819754  1
  N  N428  1  0.43631592  0.72508340  0.59647197  1
  N  N429  1  0.93376582  0.05698303  0.59361718  1
  N  N430  1  0.93038306  0.38974654  0.60167996  1
  N  N431  1  0.93993753  0.72411653  0.59537405  1
  N  N432  1  0.19014258  0.11026237  0.40651924  1
  N  N433  1  0.18894268  0.44317225  0.40101817  1
  N  N434  1  0.18354204  0.77774980  0.39964068  1
  N  N435  1  0.69093814  0.10950420  0.40532646  1
  N  N436  1  0.69622283  0.43979770  0.41610906  1
  N  N437  1  0.68120569  0.77758658  0.39773826  1
  N  N438  1  0.31069701  0.22587541  0.90743857  1
  N  N439  1  0.31993034  0.55570625  0.89787869  1
  N  N440  1  0.30476123  0.88939521  0.90796847  1
  N  N441  1  0.80649245  0.22407291  0.90705205  1
  N  N442  1  0.80540561  0.55730171  0.91092724  1
  N  N443  1  0.80718911  0.89236972  0.91301549  1
  N  N444  1  0.32551447  0.11227247  0.10249484  1
  N  N445  1  0.32181921  0.44379284  0.10386949  1
  N  N446  1  0.30906456  0.77598367  0.09638643  1
  N  N447  1  0.82534190  0.10915536  0.10037803  1
  N  N448  1  0.81583102  0.44406223  0.10242773  1
  N  N449  1  0.81393658  0.77859598  0.09459748  1
  N  N450  1  0.18586835  0.22173006  0.59266047  1
  N  N451  1  0.18089650  0.55588947  0.59824524  1
  N  N452  1  0.18743400  0.89125310  0.59583693  1
  N  N453  1  0.68809420  0.22546642  0.59384802  1
  N  N454  1  0.68423592  0.55491318  0.59708629  1
  N  N455  1  0.68301115  0.88855331  0.60027307  1
  Cl  Cl456  1  0.24650505  0.05244347  0.62875979  1
  Cl  Cl457  1  0.24437669  0.38417649  0.62433759  1
  Cl  Cl458  1  0.25313010  0.71533403  0.62418050  1
  Cl  Cl459  1  0.74431476  0.05463218  0.61919178  1
  Cl  Cl460  1  0.74868136  0.38262873  0.61968930  1
  Cl  Cl461  1  0.75349920  0.71960345  0.61697950  1
  Cl  Cl462  1  0.25369353  0.27898102  0.11271899  1
  Cl  Cl463  1  0.24836610  0.61294770  0.11329979  1
  Cl  Cl464  1  0.26019852  0.94365270  0.10425731  1
  Cl  Cl465  1  0.75771230  0.27581618  0.11170037  1
  Cl  Cl466  1  0.75473759  0.60908499  0.10972579  1
  Cl  Cl467  1  0.75450477  0.95196611  0.11852733  1
  Cl  Cl468  1  0.24219848  0.05627595  0.89491938  1
  Cl  Cl469  1  0.24434784  0.38799496  0.89243288  1
  Cl  Cl470  1  0.25001221  0.72019310  0.88892052  1
  Cl  Cl471  1  0.73546479  0.05810572  0.89273642  1
  Cl  Cl472  1  0.74328630  0.38730613  0.88650222  1
  Cl  Cl473  1  0.75287112  0.72185149  0.88757448  1
  Cl  Cl474  1  0.24911012  0.27721470  0.38250283  1
  Cl  Cl475  1  0.25312190  0.61682318  0.37998156  1
  Cl  Cl476  1  0.24896536  0.95040442  0.37425690  1
  Cl  Cl477  1  0.74848226  0.27938043  0.38490532  1
  Cl  Cl478  1  0.75678026  0.60468538  0.39702153  1
  Cl  Cl479  1  0.75049646  0.94797525  0.38261141  1
  Cl  Cl480  1  -0.00075270  0.22091728  0.61844683  1
  Cl  Cl481  1  -0.00345023  0.55691917  0.61047763  1
  Cl  Cl482  1  0.00209792  0.88807374  0.61718789  1
  Cl  Cl483  1  0.50373006  0.22116933  0.61946286  1
  Cl  Cl484  1  0.49813634  0.55766875  0.60591215  1
  Cl  Cl485  1  0.49772450  0.88571033  0.62098159  1
  Cl  Cl486  1  0.01274755  0.11336434  0.11286851  1
  Cl  Cl487  1  0.00791726  0.44075073  0.10634943  1
  Cl  Cl488  1  -0.00153091  0.77920711  0.11804832  1
  Cl  Cl489  1  0.51202914  0.10619117  0.10589050  1
  Cl  Cl490  1  0.50373757  0.45221135  0.12103835  1
  Cl  Cl491  1  0.49872578  0.77709245  0.10804701  1
  Cl  Cl492  1  -0.00719262  0.22296986  0.89315089  1
  Cl  Cl493  1  -0.00735177  0.56372689  0.89998237  1
  Cl  Cl494  1  -0.00562482  0.88428450  0.88087059  1
  Cl  Cl495  1  0.49597920  0.21823820  0.88452060  1
  Cl  Cl496  1  0.50109741  0.55506976  0.87721349  1
  Cl  Cl497  1  0.48596432  0.89239074  0.89543579  1
  Cl  Cl498  1  0.00404239  0.11704970  0.38072198  1
  Cl  Cl499  1  0.00771158  0.44739835  0.38215444  1
  Cl  Cl500  1  -0.00476732  0.77914231  0.38543473  1
  Cl  Cl501  1  0.50641921  0.11383179  0.37995638  1
  Cl  Cl502  1  0.50272350  0.44674094  0.38768605  1
  Cl  Cl503  1  0.49613743  0.77966588  0.37577513  1
  Cl  Cl504  1  0.36330784  0.14331438  0.75302329  1
  Cl  Cl505  1  0.35708187  0.47797658  0.75267191  1
  Cl  Cl506  1  0.36239716  0.81057326  0.75156304  1
  Cl  Cl507  1  0.86017983  0.14546618  0.74949009  1
  Cl  Cl508  1  0.86452340  0.47729243  0.74812511  1
  Cl  Cl509  1  0.86305202  0.80965350  0.75016065  1
  Cl  Cl510  1  0.13795879  0.18960970  0.24730642  1
  Cl  Cl511  1  0.13855588  0.52230594  0.24843519  1
  Cl  Cl512  1  0.13917158  0.85594565  0.24814454  1
  Cl  Cl513  1  0.64164574  0.19026317  0.24698126  1
  Cl  Cl514  1  0.64084771  0.52373938  0.25290517  1
  Cl  Cl515  1  0.63728989  0.85587688  0.24818087  1
  Cl  Cl516  1  0.14072148  0.14466675  0.75360083  1
  Cl  Cl517  1  0.13369089  0.47815036  0.75136477  1
  Cl  Cl518  1  0.13785370  0.81008939  0.75281435  1
  Cl  Cl519  1  0.63539479  0.14500314  0.75289854  1
  Cl  Cl520  1  0.64038573  0.47922449  0.75122642  1
  Cl  Cl521  1  0.63937119  0.81002571  0.75410438  1
  Cl  Cl522  1  0.36139841  0.18966733  0.24548048  1
  Cl  Cl523  1  0.36409832  0.52190954  0.24723880  1
  Cl  Cl524  1  0.36393372  0.85498210  0.24537670  1
  Cl  Cl525  1  0.86545976  0.18858145  0.24959488  1
  Cl  Cl526  1  0.86264559  0.52370678  0.24798434  1
  Cl  Cl527  1  0.86006670  0.85537192  0.24913894  1
  Cl  Cl528  1  0.10869095  0.31151443  0.75316964  1
  Cl  Cl529  1  0.11259914  0.64323067  0.74907164  1
  Cl  Cl530  1  0.11229097  0.97756011  0.75216278  1
  Cl  Cl531  1  0.61271054  0.31051787  0.75162736  1
  Cl  Cl532  1  0.61163414  0.64258119  0.75014811  1
  Cl  Cl533  1  0.61051299  0.97814129  0.75184070  1
  Cl  Cl534  1  0.39288148  0.02408623  0.24489186  1
  Cl  Cl535  1  0.38950889  0.35604838  0.24635249  1
  Cl  Cl536  1  0.38890439  0.68753012  0.24817680  1
  Cl  Cl537  1  0.88750043  0.02320721  0.25104596  1
  Cl  Cl538  1  0.89174401  0.35691561  0.25192606  1
  Cl  Cl539  1  0.88808960  0.68761145  0.24819338  1
  Cl  Cl540  1  0.38581348  0.31205694  0.75108458  1
  Cl  Cl541  1  0.38893231  0.64357359  0.75221375  1
  Cl  Cl542  1  0.38942110  0.97703870  0.75436681  1
  Cl  Cl543  1  0.88976765  0.31041505  0.75059424  1
  Cl  Cl544  1  0.89053737  0.64257473  0.74924128  1
  Cl  Cl545  1  0.88613149  0.97924487  0.75135354  1
  Cl  Cl546  1  0.11341040  0.02129389  0.24788087  1
  Cl  Cl547  1  0.11041102  0.35595575  0.24629463  1
  Cl  Cl548  1  0.11267708  0.68816239  0.25155053  1
  Cl  Cl549  1  0.61097464  0.02353191  0.24696117  1
  Cl  Cl550  1  0.61400956  0.35444130  0.24894906  1
  Cl  Cl551  1  0.61465260  0.68793219  0.24578734  1
