# generated using pymatgen
data_H8PbC4(N3Cl2)2
_symmetry_space_group_name_H-M   'P 1'
_cell_length_a   16.62150621
_cell_length_b   22.50187013
_cell_length_c   21.58861693
_cell_angle_alpha   90.00084467
_cell_angle_beta   89.99697393
_cell_angle_gamma   89.99887169
_symmetry_Int_Tables_number   1
_chemical_formula_structural   H8PbC4(N3Cl2)2
_chemical_formula_sum   'H192 Pb24 C96 N144 Cl96'
_cell_volume   8074.46599133
_cell_formula_units_Z   24
loop_
 _symmetry_equiv_pos_site_id
 _symmetry_equiv_pos_as_xyz
  1  'x, y, z'
loop_
 _atom_site_type_symbol
 _atom_site_label
 _atom_site_symmetry_multiplicity
 _atom_site_fract_x
 _atom_site_fract_y
 _atom_site_fract_z
 _atom_site_occupancy
  H  H0  1  0.00611845  0.03186402  0.67837612  1
  H  H1  1  0.00822239  0.36336675  0.68095496  1
  H  H2  1  -0.00149116  0.69846814  0.67968820  1
  H  H3  1  0.49778203  0.03177125  0.67840293  1
  H  H4  1  0.49168981  0.36488378  0.68025207  1
  H  H5  1  0.49356066  0.69974538  0.67943013  1
  H  H6  1  0.00165939  0.30115114  0.18356232  1
  H  H7  1  -0.00595750  0.63389648  0.17759421  1
  H  H8  1  -0.00511878  0.96931664  0.18003249  1
  H  H9  1  0.50183340  0.29990882  0.18314232  1
  H  H10  1  0.50419435  0.63481553  0.17917243  1
  H  H11  1  0.50039191  0.96844953  0.17896494  1
  H  H12  1  0.00391282  0.03229306  0.81855521  1
  H  H13  1  -0.00400411  0.36466671  0.81695127  1
  H  H14  1  0.00396599  0.69868127  0.82076661  1
  H  H15  1  0.49611571  0.03034868  0.82024004  1
  H  H16  1  0.49900338  0.36611330  0.81887658  1
  H  H17  1  0.49937906  0.70062987  0.81904638  1
  H  H18  1  -0.00159917  0.30260012  0.31859144  1
  H  H19  1  -0.00672615  0.63380749  0.32250779  1
  H  H20  1  -0.00612695  0.96767240  0.31770544  1
  H  H21  1  0.49694757  0.30268019  0.31860772  1
  H  H22  1  0.49574722  0.63439199  0.31716569  1
  H  H23  1  0.50934974  0.96617412  0.32249600  1
  H  H24  1  0.25283051  0.19914125  0.68010202  1
  H  H25  1  0.25026316  0.53127479  0.68059619  1
  H  H26  1  0.24973516  0.86538229  0.68205031  1
  H  H27  1  0.75168195  0.19889323  0.68151929  1
  H  H28  1  0.74869817  0.53175842  0.68191378  1
  H  H29  1  0.75069497  0.86448935  0.67873942  1
  H  H30  1  0.25919349  0.13486032  0.18136576  1
  H  H31  1  0.25860108  0.46922925  0.18104571  1
  H  H32  1  0.25074471  0.80160416  0.17796110  1
  H  H33  1  0.74448278  0.13421980  0.17945744  1
  H  H34  1  0.73821334  0.46832772  0.18271968  1
  H  H35  1  0.74439287  0.79895836  0.17994346  1
  H  H36  1  0.24628615  0.19925830  0.81712023  1
  H  H37  1  0.25998631  0.53248430  0.82186681  1
  H  H38  1  0.25190079  0.86453828  0.82051196  1
  H  H39  1  0.74347311  0.19644910  0.81864226  1
  H  H40  1  0.74363631  0.53216494  0.81803028  1
  H  H41  1  0.75297610  0.86602065  0.81979198  1
  H  H42  1  0.24603899  0.13484827  0.32001242  1
  H  H43  1  0.24649564  0.46794464  0.31798222  1
  H  H44  1  0.25410800  0.80100509  0.31890682  1
  H  H45  1  0.74843573  0.13518186  0.32296215  1
  H  H46  1  0.75147741  0.46845986  0.31843469  1
  H  H47  1  0.75055236  0.80239395  0.32132336  1
  H  H48  1  0.11432407  0.05950448  0.59602041  1
  H  H49  1  0.12082176  0.39010999  0.60058199  1
  H  H50  1  0.12758809  0.71971847  0.61310975  1
  H  H51  1  0.61684594  0.05457227  0.60203755  1
  H  H52  1  0.62428384  0.38509942  0.61633121  1
  H  H53  1  0.63360353  0.71720892  0.62658921  1
  H  H54  1  0.37019237  0.28022294  0.11680518  1
  H  H55  1  0.37249472  0.61523904  0.11485586  1
  H  H56  1  0.37749844  0.94425350  0.10792497  1
  H  H57  1  0.87181433  0.28019012  0.11935887  1
  H  H58  1  0.87759669  0.60932718  0.10098220  1
  H  H59  1  0.88231069  0.94237691  0.09992310  1
  H  H60  1  0.38101167  0.05524659  0.90024098  1
  H  H61  1  0.37638791  0.38995460  0.89061248  1
  H  H62  1  0.36738496  0.71872172  0.88313884  1
  H  H63  1  0.87472420  0.05291025  0.88303859  1
  H  H64  1  0.87557974  0.38791837  0.89082830  1
  H  H65  1  0.86672103  0.71801750  0.87965015  1
  H  H66  1  0.12283560  0.27923535  0.38999815  1
  H  H67  1  0.12687095  0.61432795  0.38437633  1
  H  H68  1  0.12295948  0.94687790  0.38678443  1
  H  H69  1  0.62439948  0.27993366  0.38652680  1
  H  H70  1  0.62409861  0.61356532  0.38640861  1
  H  H71  1  0.62086786  0.94419964  0.40135803  1
  H  H72  1  0.37539723  0.22147320  0.60804911  1
  H  H73  1  0.37010810  0.55539975  0.60545363  1
  H  H74  1  0.37766878  0.88554599  0.61542568  1
  H  H75  1  0.87476332  0.21951034  0.61170594  1
  H  H76  1  0.87334604  0.55465038  0.60965814  1
  H  H77  1  0.87430228  0.88864370  0.60829398  1
  H  H78  1  0.12364251  0.11475616  0.12143465  1
  H  H79  1  0.12358811  0.44932458  0.12179589  1
  H  H80  1  0.13415133  0.77581551  0.10125429  1
  H  H81  1  0.62849219  0.10901535  0.10072703  1
  H  H82  1  0.62833607  0.44339509  0.10056625  1
  H  H83  1  0.63728849  0.77798500  0.09728455  1
  H  H84  1  0.12975033  0.22189117  0.89444799  1
  H  H85  1  0.12468643  0.55245813  0.88232378  1
  H  H86  1  0.12106716  0.88762518  0.88448100  1
  H  H87  1  0.63048402  0.22194820  0.89931710  1
  H  H88  1  0.62761193  0.55652563  0.89564410  1
  H  H89  1  0.61915271  0.88472488  0.88352263  1
  H  H90  1  0.38240282  0.11384961  0.37916150  1
  H  H91  1  0.37898354  0.44729881  0.38274265  1
  H  H92  1  0.36867703  0.77937089  0.39698551  1
  H  H93  1  0.87762043  0.11591372  0.39055097  1
  H  H94  1  0.87429488  0.44663150  0.38981241  1
  H  H95  1  0.86604837  0.77618493  0.39946515  1
  H  H96  1  0.37540127  0.27869916  0.39316994  1
  H  H97  1  0.37482345  0.61236250  0.39114528  1
  H  H98  1  0.37400225  0.94959485  0.38042854  1
  H  H99  1  0.87384022  0.27860595  0.38799193  1
  H  H100  1  0.87894268  0.60875228  0.40020174  1
  H  H101  1  0.87424500  0.94446828  0.39420021  1
  H  H102  1  0.12372509  0.05483246  0.89195263  1
  H  H103  1  0.12431951  0.38831038  0.88545800  1
  H  H104  1  0.11473401  0.72365745  0.90154479  1
  H  H105  1  0.62881904  0.05186196  0.88294583  1
  H  H106  1  0.62486643  0.38539504  0.88880780  1
  H  H107  1  0.61623969  0.72185638  0.89409479  1
  H  H108  1  0.12097220  0.27985015  0.10956652  1
  H  H109  1  0.12594217  0.61413150  0.11353084  1
  H  H110  1  0.13033887  0.94887894  0.12131967  1
  H  H111  1  0.61913620  0.27628602  0.10654902  1
  H  H112  1  0.62157058  0.61083261  0.10196617  1
  H  H113  1  0.62641557  0.94631569  0.10839412  1
  H  H114  1  0.36835473  0.05332474  0.61268548  1
  H  H115  1  0.37591471  0.38987662  0.60265322  1
  H  H116  1  0.38772377  0.72360120  0.59659261  1
  H  H117  1  0.86853578  0.05006821  0.62250967  1
  H  H118  1  0.87379031  0.38459526  0.61929821  1
  H  H119  1  0.87966606  0.72387014  0.60320204  1
  H  H120  1  0.13437724  0.11127125  0.40051303  1
  H  H121  1  0.13014213  0.44498902  0.39575880  1
  H  H122  1  0.12008449  0.77965089  0.38137479  1
  H  H123  1  0.62948938  0.10678599  0.39591368  1
  H  H124  1  0.62490605  0.44674803  0.38504451  1
  H  H125  1  0.61832058  0.78278000  0.38681359  1
  H  H126  1  0.37839434  0.22024365  0.88265720  1
  H  H127  1  0.37197997  0.55963587  0.90159345  1
  H  H128  1  0.36933528  0.88800149  0.89816510  1
  H  H129  1  0.87724301  0.21876477  0.88045052  1
  H  H130  1  0.87645683  0.55335300  0.88274683  1
  H  H131  1  0.86698511  0.89077524  0.90050814  1
  H  H132  1  0.37015109  0.10809831  0.09882774  1
  H  H133  1  0.37146620  0.44392924  0.10057636  1
  H  H134  1  0.38293976  0.78057170  0.11450428  1
  H  H135  1  0.87623060  0.11305153  0.11681504  1
  H  H136  1  0.87547433  0.44932632  0.12338008  1
  H  H137  1  0.88397855  0.78138427  0.12582579  1
  H  H138  1  0.12609843  0.21878836  0.61365724  1
  H  H139  1  0.12151027  0.55369130  0.61484141  1
  H  H140  1  0.12815658  0.88794714  0.61056340  1
  H  H141  1  0.62512635  0.21959022  0.61277615  1
  H  H142  1  0.62406205  0.55395112  0.61112084  1
  H  H143  1  0.62510065  0.88715090  0.60818050  1
  H  H144  1  0.04759391  0.75034664  1.00811324  1
  H  H145  1  0.94830159  0.92078747  -0.00302023  1
  H  H146  1  0.94009170  0.75230174  0.50085702  1
  H  H147  1  0.58124141  0.25203607  0.49664726  1
  H  H148  1  0.19885866  0.08459009  0.50728267  1
  H  H149  1  0.19202699  0.41682151  0.50272209  1
  H  H150  1  0.88956937  0.74753244  0.98993237  1
  H  H151  1  0.17555953  0.91639000  0.50058399  1
  H  H152  1  0.30854305  0.75201029  0.50535779  1
  H  H153  1  0.42865665  0.58326759  0.49897445  1
  H  H154  1  0.34354572  0.91582329  0.50452483  1
  H  H155  1  0.68805999  0.09074288  0.50126206  1
  H  H156  1  0.10481848  0.91940385  0.00777121  1
  H  H157  1  0.04287267  0.08362969  0.49473041  1
  H  H158  1  0.65146013  0.75269105  0.49386975  1
  H  H159  1  0.30493665  0.42627868  -0.00339168  1
  H  H160  1  0.69880246  0.41614056  -0.00440290  1
  H  H161  1  0.90836204  0.08200667  0.99534992  1
  H  H162  1  0.29806111  0.08265790  -0.00167888  1
  H  H163  1  0.15183494  0.41900149  0.00910834  1
  H  H164  1  0.08960983  0.58386039  0.00684340  1
  H  H165  1  0.69949707  0.24368156  1.00202603  1
  H  H166  1  0.19727317  0.74884996  -0.00290516  1
  H  H167  1  0.83000594  0.24923078  0.50032069  1
  H  H168  1  0.67296779  0.58187196  0.50188813  1
  H  H169  1  0.19137688  0.24641231  1.00289534  1
  H  H170  1  0.06786724  0.25418492  -0.00137688  1
  H  H171  1  0.15323977  0.75259811  0.48871092  1
  H  H172  1  0.35707405  0.08649704  0.48769597  1
  H  H173  1  0.83988428  0.08140902  0.49461484  1
  H  H174  1  0.05134635  0.41448803  0.49873075  1
  H  H175  1  0.55859084  0.25008359  -0.00163045  1
  H  H176  1  0.07428792  0.08326417  1.00096619  1
  H  H177  1  0.09461403  0.58495216  0.49216819  1
  H  H178  1  0.82827209  0.41828451  0.49955341  1
  H  H179  1  0.45810014  0.75240144  0.49110731  1
  H  H180  1  0.90657903  0.25249332  0.00710161  1
  H  H181  1  0.92856538  0.41674325  0.99851115  1
  H  H182  1  0.79830799  0.91692096  1.00214827  1
  H  H183  1  0.55869382  0.58580483  -0.00281775  1
  H  H184  1  0.43271489  0.39455159  0.99735228  1
  H  H185  1  0.44879636  0.08040372  1.00207609  1
  H  H186  1  0.55975767  0.75018350  1.00478160  1
  H  H187  1  0.16634786  0.24953678  0.50127253  1
  H  H188  1  0.69051005  0.58413450  1.00301981  1
  H  H189  1  0.70719187  0.75231516  -0.01002330  1
  H  H190  1  0.57308742  0.42852600  0.98676053  1
  H  H191  1  0.66403149  0.41773385  0.49657648  1
  Pb  Pb192  1  0.25559601  0.04800340  0.75160427  1
  Pb  Pb193  1  0.25074818  0.38104654  0.74985245  1
  Pb  Pb194  1  0.24750765  0.71533005  0.74886344  1
  Pb  Pb195  1  0.74517691  0.04672364  0.74269790  1
  Pb  Pb196  1  0.75299837  0.38062805  0.75178180  1
  Pb  Pb197  1  0.75335775  0.71343167  0.74924557  1
  Pb  Pb198  1  0.24947090  0.28452855  0.25175570  1
  Pb  Pb199  1  0.25084650  0.62124478  0.25016421  1
  Pb  Pb200  1  0.25245995  0.95318681  0.25112303  1
  Pb  Pb201  1  0.74860173  0.28713567  0.24654732  1
  Pb  Pb202  1  0.75301701  0.61934784  0.24846813  1
  Pb  Pb203  1  0.74872566  0.95259822  0.24496148  1
  Pb  Pb204  1  0.00067612  0.21188505  0.75173442  1
  Pb  Pb205  1  0.00203877  0.54651754  0.74910083  1
  Pb  Pb206  1  -0.00196690  0.88427173  0.75418655  1
  Pb  Pb207  1  0.50440523  0.21546926  0.75161669  1
  Pb  Pb208  1  0.50095046  0.54883547  0.75295618  1
  Pb  Pb209  1  0.50015136  0.87747371  0.75052977  1
  Pb  Pb210  1  -0.00170257  0.11911208  0.25547506  1
  Pb  Pb211  1  0.00238346  0.45332235  0.25652199  1
  Pb  Pb212  1  0.00213598  0.78682649  0.25201535  1
  Pb  Pb213  1  0.50298267  0.11953584  0.24294433  1
  Pb  Pb214  1  0.49853578  0.45340991  0.24036578  1
  Pb  Pb215  1  0.50469194  0.78632221  0.24856382  1
  C  C216  1  -0.00349939  0.04630704  0.63101450  1
  C  C217  1  0.00122693  0.37877084  0.63365626  1
  C  C218  1  0.00162348  0.71376976  0.63209984  1
  C  C219  1  0.49444882  0.04623658  0.63068927  1
  C  C220  1  0.49758596  0.37970224  0.63282739  1
  C  C221  1  0.50485219  0.71332551  0.63203983  1
  C  C222  1  -0.00216590  0.28688471  0.13560214  1
  C  C223  1  -0.00037455  0.61899930  0.13007545  1
  C  C224  1  0.00239757  0.95390326  0.13257121  1
  C  C225  1  0.49678504  0.28566891  0.13531388  1
  C  C226  1  0.49968225  0.62043753  0.13144113  1
  C  C227  1  0.50178252  0.95310597  0.13157218  1
  C  C228  1  0.00070205  0.04706512  0.86644018  1
  C  C229  1  -0.00110766  0.38010696  0.86451448  1
  C  C230  1  -0.00566258  0.71342192  0.86821728  1
  C  C231  1  0.50154415  0.04517052  0.86778751  1
  C  C232  1  0.50003576  0.38045068  0.86697401  1
  C  C233  1  0.49446206  0.71372035  0.86716745  1
  C  C234  1  -0.00137788  0.28715384  0.36590729  1
  C  C235  1  0.00015498  0.61909300  0.36998392  1
  C  C236  1  -0.00285772  0.95311418  0.36554698  1
  C  C237  1  0.49880084  0.28725429  0.36608708  1
  C  C238  1  0.49842002  0.61995559  0.36504495  1
  C  C239  1  0.50105138  0.95298983  0.37037443  1
  C  C240  1  0.25089010  0.21362907  0.63231773  1
  C  C241  1  0.24745596  0.54665879  0.63324454  1
  C  C242  1  0.25184333  0.88000562  0.63411565  1
  C  C243  1  0.75101179  0.21302052  0.63358626  1
  C  C244  1  0.74881010  0.54678214  0.63423502  1
  C  C245  1  0.74984183  0.88001949  0.63138139  1
  C  C246  1  0.25143026  0.11999604  0.13393366  1
  C  C247  1  0.25148376  0.45471964  0.13331582  1
  C  C248  1  0.25581472  0.78649315  0.13045822  1
  C  C249  1  0.74945824  0.11936931  0.13204631  1
  C  C250  1  0.74751988  0.45369448  0.13536415  1
  C  C251  1  0.75524292  0.78605336  0.13216952  1
  C  C252  1  0.25182777  0.21372420  0.86482154  1
  C  C253  1  0.25188616  0.54766541  0.86891728  1
  C  C254  1  0.24742410  0.88000107  0.86780017  1
  C  C255  1  0.75015402  0.21162723  0.86605022  1
  C  C256  1  0.74954712  0.54705846  0.86561039  1
  C  C257  1  0.74659051  0.88045800  0.86750805  1
  C  C258  1  0.25493746  0.12023623  0.36759008  1
  C  C259  1  0.25205559  0.45350100  0.36569210  1
  C  C260  1  0.24682983  0.78636913  0.36660972  1
  C  C261  1  0.75192229  0.11941969  0.37052436  1
  C  C262  1  0.75026817  0.45350337  0.36624636  1
  C  C263  1  0.74452974  0.78743152  0.36888416  1
  C  C264  1  0.53961293  0.26163188  0.45832996  1
  C  C265  1  0.47030651  0.40866493  0.53851371  1
  C  C266  1  0.28930902  0.23999518  0.53848677  1
  C  C267  1  0.19628946  0.42833286  0.04482400  1
  C  C268  1  0.44460634  0.92933736  0.45918923  1
  C  C269  1  0.70741288  0.23849678  0.54072462  1
  C  C270  1  0.52475292  0.26075337  0.04009669  1
  C  C271  1  0.96754369  0.58975643  0.03470201  1
  C  C272  1  0.96608573  0.40627509  0.95855770  1
  C  C273  1  0.46598913  0.92329819  0.03952429  1
  C  C274  1  0.01734863  0.74009720  0.96465213  1
  C  C275  1  0.79768215  0.09294571  0.04166847  1
  C  C276  1  0.95330178  0.07220828  0.95900533  1
  C  C277  1  0.71185366  0.57214192  0.54104325  1
  C  C278  1  0.44299708  0.73708343  0.95857739  1
  C  C279  1  0.27590123  0.76134690  0.46270761  1
  C  C280  1  0.93531733  0.07077917  0.54330577  1
  C  C281  1  0.27506327  0.57787407  0.96389472  1
  C  C282  1  0.72324907  0.57321293  0.96076465  1
  C  C283  1  0.46567782  0.59397133  0.45899717  1
  C  C284  1  0.95993205  0.25886131  0.45837805  1
  C  C285  1  0.23036635  0.09445850  0.46421450  1
  C  C286  1  0.73735889  0.76188993  0.03363209  1
  C  C287  1  0.03554698  0.07268935  0.96195713  1
  C  C288  1  0.72815951  0.42741651  0.03916647  1
  C  C289  1  0.22456847  0.23780878  0.96041213  1
  C  C290  1  0.20774064  0.23951181  0.53880008  1
  C  C291  1  0.78849508  0.42821255  0.46093450  1
  C  C292  1  0.44961351  0.07229806  0.53908642  1
  C  C293  1  0.29751292  0.90524548  0.54115895  1
  C  C294  1  0.70628311  0.42801185  0.45941297  1
  C  C295  1  0.78650453  0.90897628  0.53914140  1
  C  C296  1  0.22542219  0.42749377  0.46082988  1
  C  C297  1  0.81781603  0.76306763  0.04489336  1
  C  C298  1  0.20097371  0.90799183  0.95835504  1
  C  C299  1  0.52453199  0.73885832  0.96389979  1
  C  C300  1  0.44785771  0.59438111  0.04038841  1
  C  C301  1  0.56855046  0.73750114  0.54598119  1
  C  C302  1  0.78917928  0.23899891  0.53885077  1
  C  C303  1  0.03178776  0.26299344  0.03962220  1
  C  C304  1  0.20325816  0.57409145  0.54187885  1
  C  C305  1  0.21522484  0.90609967  0.53922399  1
  C  C306  1  0.52545298  0.92763894  0.46605916  1
  C  C307  1  0.05841101  0.92772224  0.04400140  1
  C  C308  1  0.94980373  0.26270235  0.04340821  1
  C  C309  1  0.30835846  0.75860398  0.04002254  1
  C  C310  1  0.48840730  0.74027551  0.53397395  1
  C  C311  1  0.97090761  0.58976729  0.46579515  1
  N  N312  1  0.54763196  0.40712681  0.54147630  1
  N  N313  1  0.04955958  0.59266047  0.45935218  1
  N  N314  1  0.72038298  0.09190319  0.03517031  1
  N  N315  1  0.27567634  0.42627297  0.03854258  1
  N  N316  1  0.79737106  0.09778649  0.46172256  1
  N  N317  1  0.02292606  0.40779523  0.54027631  1
  N  N318  1  0.30362316  0.23759967  0.95646719  1
  N  N319  1  0.72759197  0.24003505  0.95973775  1
  N  N320  1  0.30937870  0.09518245  0.45569907  1
  N  N321  1  0.54337229  0.92396252  0.03839965  1
  N  N322  1  0.55559178  0.07235284  0.95665406  1
  N  N323  1  0.71962797  0.08441396  0.46085579  1
  N  N324  1  0.97290193  0.74075735  0.53920214  1
  N  N325  1  0.76964945  0.90588529  0.96171736  1
  N  N326  1  0.46046457  0.26040463  0.46083762  1
  N  N327  1  0.46183628  0.40936235  0.95842301  1
  N  N328  1  0.47792506  0.07333799  0.96096052  1
  N  N329  1  0.19669846  0.76152669  0.45598443  1
  N  N330  1  0.54503861  0.59449616  0.45780329  1
  N  N331  1  0.27827767  0.90846881  0.96387829  1
  N  N332  1  0.01366456  0.07424618  0.53550313  1
  N  N333  1  0.70902175  0.90849608  0.53783381  1
  N  N334  1  0.80233623  0.57210971  0.95653492  1
  N  N335  1  0.27061761  0.09304204  0.03953237  1
  N  N336  1  0.19782734  0.57485718  0.95915293  1
  N  N337  1  0.69772100  0.76238543  0.45835602  1
  N  N338  1  0.93850398  0.73859478  0.95594180  1
  N  N339  1  0.28101884  0.57505133  0.53762029  1
  N  N340  1  0.96441949  0.92695223  0.46063670  1
  N  N341  1  0.04541711  0.40575743  0.95729695  1
  N  N342  1  0.03787152  0.25908919  0.46005549  1
  N  N343  1  0.05120287  0.73903679  0.54092296  1
  N  N344  1  0.30442394  0.42804936  0.45667662  1
  N  N345  1  0.77541011  0.75963856  0.46397632  1
  N  N346  1  0.19314597  0.09569359  0.04572820  1
  N  N347  1  0.69205489  0.90384826  0.95746429  1
  N  N348  1  0.04101041  0.92790441  0.45822864  1
  N  N349  1  0.79113824  0.57261957  0.54026407  1
  N  N350  1  0.94533177  0.40553288  0.54541063  1
  N  N351  1  0.54205385  0.39849269  0.96027194  1
  N  N352  1  0.52723788  0.07349012  0.53452033  1
  N  N353  1  0.97896281  0.92497189  0.03813743  1
  N  N354  1  0.80535117  0.23818952  0.95460170  1
  N  N355  1  0.04638932  0.59214629  0.03994863  1
  N  N356  1  0.44563827  0.26252531  0.04324396  1
  N  N357  1  0.52677315  0.59354965  0.03703157  1
  N  N358  1  0.22939837  0.75751830  0.03659946  1
  N  N359  1  0.80686667  0.42909034  0.04675482  1
  N  N360  1  0.05230809  0.05720881  0.58908135  1
  N  N361  1  0.05875956  0.38939571  0.59290106  1
  N  N362  1  0.06816424  0.72260935  0.59921294  1
  N  N363  1  0.55509460  0.05642769  0.59284211  1
  N  N364  1  0.56479681  0.38880969  0.60174058  1
  N  N365  1  0.57779607  0.72135165  0.60549804  1
  N  N366  1  0.43006175  0.27739553  0.10278226  1
  N  N367  1  0.43103489  0.61042651  0.09895915  1
  N  N368  1  0.43761997  0.94075063  0.09552362  1
  N  N369  1  0.93023746  0.27749147  0.10322262  1
  N  N370  1  0.93826297  0.60665746  0.09025781  1
  N  N371  1  0.94459659  0.94365462  0.09185506  1
  N  N372  1  0.44298967  0.05495435  0.90795222  1
  N  N373  1  0.43680047  0.38659028  0.90358269  1
  N  N374  1  0.42559739  0.72205813  0.89988115  1
  N  N375  1  0.93356708  0.05630170  0.89921194  1
  N  N376  1  0.93619444  0.39088468  0.90190613  1
  N  N377  1  0.92498244  0.72228546  0.89658083  1
  N  N378  1  0.06190399  0.27681598  0.40122904  1
  N  N379  1  0.06806668  0.61075253  0.40027650  1
  N  N380  1  0.06244209  0.94376075  0.39923982  1
  N  N381  1  0.56470854  0.27759209  0.40038041  1
  N  N382  1  0.56357970  0.61073948  0.39899715  1
  N  N383  1  0.55989154  0.94191196  0.41219071  1
  N  N384  1  0.31518826  0.22454937  0.59493356  1
  N  N385  1  0.30856031  0.55756326  0.59592967  1
  N  N386  1  0.31828882  0.88904762  0.60052737  1
  N  N387  1  0.81498445  0.22296955  0.59784846  1
  N  N388  1  0.81230038  0.55689639  0.59860033  1
  N  N389  1  0.81439763  0.89182919  0.59543688  1
  N  N390  1  0.18192647  0.11160503  0.10469219  1
  N  N391  1  0.18133445  0.44438660  0.10386431  1
  N  N392  1  0.19586083  0.77598506  0.09176071  1
  N  N393  1  0.69014873  0.10868198  0.09295194  1
  N  N394  1  0.69014503  0.44228825  0.09320917  1
  N  N395  1  0.69913954  0.77634693  0.08926452  1
  N  N396  1  0.19105711  0.22365061  0.90445644  1
  N  N397  1  0.18341136  0.55605798  0.89849786  1
  N  N398  1  0.17955473  0.89101781  0.89982642  1
  N  N399  1  0.69251083  0.22107152  0.90700997  1
  N  N400  1  0.68917416  0.55806249  0.90527821  1
  N  N401  1  0.67818226  0.88841385  0.89847883  1
  N  N402  1  0.32395764  0.11130413  0.39634146  1
  N  N403  1  0.31917421  0.44418937  0.39732821  1
  N  N404  1  0.30734964  0.77658354  0.40717605  1
  N  N405  1  0.81805948  0.11027765  0.40330121  1
  N  N406  1  0.81438323  0.44388223  0.40259548  1
  N  N407  1  0.80426608  0.77541108  0.40803558  1
  N  N408  1  0.43668606  0.27642070  0.40293272  1
  N  N409  1  0.43562214  0.60954333  0.40247638  1
  N  N410  1  0.43052818  0.94478038  0.39998815  1
  N  N411  1  0.93381982  0.27583716  0.40147786  1
  N  N412  1  0.93990427  0.60625978  0.41063496  1
  N  N413  1  0.93588425  0.94256650  0.40342581  1
  N  N414  1  0.06352259  0.05707487  0.90407979  1
  N  N415  1  0.06413298  0.38943711  0.89828964  1
  N  N416  1  0.05257113  0.72485434  0.91022090  1
  N  N417  1  0.56983003  0.05597946  0.89805798  1
  N  N418  1  0.56467617  0.39293939  0.90025398  1
  N  N419  1  0.55550707  0.72388695  0.90595010  1
  N  N420  1  0.06028985  0.27791199  0.09745096  1
  N  N421  1  0.06667077  0.61012439  0.09879381  1
  N  N422  1  0.07268278  0.94406304  0.10325944  1
  N  N423  1  0.55777412  0.27508106  0.09616715  1
  N  N424  1  0.55984995  0.61071618  0.09263783  1
  N  N425  1  0.56595645  0.94290741  0.09700632  1
  N  N426  1  0.42726028  0.05602279  0.59761915  1
  N  N427  1  0.43690296  0.39196627  0.59311319  1
  N  N428  1  0.44947916  0.72461204  0.58900082  1
  N  N429  1  0.92462452  0.05467815  0.60282504  1
  N  N430  1  0.93254979  0.38912890  0.60399500  1
  N  N431  1  0.94131766  0.72514356  0.59410540  1
  N  N432  1  0.19609308  0.10972823  0.40941044  1
  N  N433  1  0.19160214  0.44291131  0.40532321  1
  N  N434  1  0.17903307  0.77702158  0.39686088  1
  N  N435  1  0.69045752  0.10806213  0.40765374  1
  N  N436  1  0.68419538  0.44360598  0.40028678  1
  N  N437  1  0.67773599  0.77922308  0.40087059  1
  N  N438  1  0.31885642  0.22274196  0.89678616  1
  N  N439  1  0.31055902  0.56137529  0.90985663  1
  N  N440  1  0.30739469  0.89063025  0.90633232  1
  N  N441  1  0.81862910  0.22256832  0.89576978  1
  N  N442  1  0.81675400  0.55599323  0.89727240  1
  N  N443  1  0.80480878  0.89145885  0.90761614  1
  N  N444  1  0.30791967  0.10864623  0.09254642  1
  N  N445  1  0.30963832  0.44601024  0.09247960  1
  N  N446  1  0.32479192  0.77613608  0.09829837  1
  N  N447  1  0.81793352  0.10944432  0.10023259  1
  N  N448  1  0.81690761  0.44523775  0.10669032  1
  N  N449  1  0.82803698  0.77758468  0.10503660  1
  N  N450  1  0.18505249  0.22307808  0.59840987  1
  N  N451  1  0.18060321  0.55720091  0.59997349  1
  N  N452  1  0.18831671  0.89056261  0.59752409  1
  N  N453  1  0.68482512  0.22292361  0.59805464  1
  N  N454  1  0.68422773  0.55675331  0.59849243  1
  N  N455  1  0.68599200  0.89030611  0.59659328  1
  Cl  Cl456  1  0.24007442  0.05916376  0.61271600  1
  Cl  Cl457  1  0.24375549  0.38930857  0.61533360  1
  Cl  Cl458  1  0.25623399  0.72305254  0.61239426  1
  Cl  Cl459  1  0.74109219  0.05775711  0.60544209  1
  Cl  Cl460  1  0.74941969  0.38536319  0.61933977  1
  Cl  Cl461  1  0.75960992  0.72165531  0.61804873  1
  Cl  Cl462  1  0.24450092  0.28076268  0.11701765  1
  Cl  Cl463  1  0.24914559  0.61759523  0.11745996  1
  Cl  Cl464  1  0.25420965  0.94994338  0.12079474  1
  Cl  Cl465  1  0.74101292  0.27468668  0.10897716  1
  Cl  Cl466  1  0.74543740  0.61153926  0.11284888  1
  Cl  Cl467  1  0.76046803  0.94279360  0.10658365  1
  Cl  Cl468  1  0.25837443  0.05730778  0.89112847  1
  Cl  Cl469  1  0.25449628  0.39581978  0.89300031  1
  Cl  Cl470  1  0.23649199  0.72320569  0.88899263  1
  Cl  Cl471  1  0.75171199  0.04942640  0.87310969  1
  Cl  Cl472  1  0.74654950  0.38503244  0.88798999  1
  Cl  Cl473  1  0.74142291  0.72010925  0.88398169  1
  Cl  Cl474  1  0.24793967  0.27925326  0.38450210  1
  Cl  Cl475  1  0.25068792  0.61676239  0.38213555  1
  Cl  Cl476  1  0.24529764  0.94875736  0.38465562  1
  Cl  Cl477  1  0.75058999  0.27679572  0.37831308  1
  Cl  Cl478  1  0.75096433  0.61355189  0.38120845  1
  Cl  Cl479  1  0.75054200  0.94852625  0.37747559  1
  Cl  Cl480  1  -0.00083560  0.21423585  0.62154462  1
  Cl  Cl481  1  -0.00183210  0.55457472  0.61382793  1
  Cl  Cl482  1  0.00079415  0.88400179  0.62568296  1
  Cl  Cl483  1  0.50096595  0.21819218  0.62049493  1
  Cl  Cl484  1  0.49533548  0.55271209  0.62025972  1
  Cl  Cl485  1  0.50207838  0.88424590  0.61921815  1
  Cl  Cl486  1  0.00004343  0.11230208  0.12320822  1
  Cl  Cl487  1  -0.00049060  0.45067300  0.12419338  1
  Cl  Cl488  1  0.01293455  0.77764558  0.11452968  1
  Cl  Cl489  1  0.49370337  0.10719549  0.10510135  1
  Cl  Cl490  1  0.49886846  0.44277796  0.09888332  1
  Cl  Cl491  1  0.51137406  0.77933226  0.11589884  1
  Cl  Cl492  1  0.00442901  0.22193836  0.88614496  1
  Cl  Cl493  1  0.00075187  0.55572825  0.88193155  1
  Cl  Cl494  1  -0.01074948  0.89121898  0.89726050  1
  Cl  Cl495  1  0.50929702  0.22339187  0.88810211  1
  Cl  Cl496  1  0.50388127  0.55578979  0.89509958  1
  Cl  Cl497  1  0.49328466  0.88434671  0.88277763  1
  Cl  Cl498  1  0.00689776  0.11074568  0.39441388  1
  Cl  Cl499  1  0.00660257  0.44472651  0.39381445  1
  Cl  Cl500  1  -0.00989267  0.77440110  0.38892508  1
  Cl  Cl501  1  0.50748942  0.11182990  0.37528962  1
  Cl  Cl502  1  0.50159689  0.44924233  0.37039872  1
  Cl  Cl503  1  0.49341409  0.78152329  0.38421859  1
  Cl  Cl504  1  0.35880544  0.14285235  0.75151872  1
  Cl  Cl505  1  0.36130556  0.47665982  0.75349009  1
  Cl  Cl506  1  0.36056018  0.80937504  0.75112961  1
  Cl  Cl507  1  0.86365755  0.14394147  0.75263712  1
  Cl  Cl508  1  0.86122360  0.47673841  0.75057490  1
  Cl  Cl509  1  0.86080444  0.80976797  0.75316505  1
  Cl  Cl510  1  0.14038881  0.18906853  0.24815261  1
  Cl  Cl511  1  0.13652869  0.52231173  0.24734954  1
  Cl  Cl512  1  0.13573743  0.85571797  0.25156356  1
  Cl  Cl513  1  0.63847830  0.18709985  0.24868669  1
  Cl  Cl514  1  0.63783186  0.52181033  0.24898412  1
  Cl  Cl515  1  0.64044684  0.85528233  0.25051148  1
  Cl  Cl516  1  0.13646356  0.14447390  0.75085758  1
  Cl  Cl517  1  0.13629215  0.47797814  0.75381466  1
  Cl  Cl518  1  0.13806989  0.80950132  0.75126545  1
  Cl  Cl519  1  0.63984355  0.14469103  0.74906251  1
  Cl  Cl520  1  0.63646699  0.47793085  0.75234542  1
  Cl  Cl521  1  0.63723970  0.81123073  0.74972915  1
  Cl  Cl522  1  0.36170012  0.19021302  0.25219330  1
  Cl  Cl523  1  0.36207497  0.52112117  0.24850151  1
  Cl  Cl524  1  0.35560949  0.85510860  0.25147497  1
  Cl  Cl525  1  0.86352525  0.18805123  0.25002645  1
  Cl  Cl526  1  0.86243315  0.52307184  0.24870298  1
  Cl  Cl527  1  0.86500491  0.85380815  0.24597229  1
  Cl  Cl528  1  0.11169051  0.31279306  0.75229771  1
  Cl  Cl529  1  0.10814700  0.64484091  0.74868546  1
  Cl  Cl530  1  0.10852208  0.97630448  0.75208855  1
  Cl  Cl531  1  0.61013916  0.31006010  0.74934776  1
  Cl  Cl532  1  0.61144218  0.64319089  0.74712059  1
  Cl  Cl533  1  0.61123815  0.97835651  0.75172099  1
  Cl  Cl534  1  0.38664003  0.02189001  0.25364575  1
  Cl  Cl535  1  0.38791708  0.35687610  0.24540464  1
  Cl  Cl536  1  0.38641009  0.68939007  0.24654379  1
  Cl  Cl537  1  0.89438804  0.02330229  0.24974678  1
  Cl  Cl538  1  0.88523250  0.35594365  0.24699355  1
  Cl  Cl539  1  0.88894187  0.68735211  0.24763919  1
  Cl  Cl540  1  0.38616181  0.31085804  0.75389800  1
  Cl  Cl541  1  0.38747365  0.64419269  0.75316144  1
  Cl  Cl542  1  0.38643484  0.97767176  0.74731958  1
  Cl  Cl543  1  0.88692188  0.31175537  0.74810792  1
  Cl  Cl544  1  0.88557600  0.64400229  0.75352215  1
  Cl  Cl545  1  0.89071155  0.97685417  0.74851506  1
  Cl  Cl546  1  0.11436493  0.02342102  0.24787979  1
  Cl  Cl547  1  0.11040356  0.35605454  0.25077565  1
  Cl  Cl548  1  0.11407419  0.68852652  0.25284933  1
  Cl  Cl549  1  0.61422286  0.02181483  0.24724751  1
  Cl  Cl550  1  0.61318961  0.35527308  0.24900292  1
  Cl  Cl551  1  0.60956479  0.68941063  0.25316599  1
