# generated using pymatgen
data_H8PbC4(N3Cl2)2
_symmetry_space_group_name_H-M   'P 1'
_cell_length_a   16.62294491
_cell_length_b   22.50287201
_cell_length_c   21.59042154
_cell_angle_alpha   89.99950122
_cell_angle_beta   90.00518614
_cell_angle_gamma   89.99759992
_symmetry_Int_Tables_number   1
_chemical_formula_structural   H8PbC4(N3Cl2)2
_chemical_formula_sum   'H192 Pb24 C96 N144 Cl96'
_cell_volume   8076.19944113
_cell_formula_units_Z   24
loop_
 _symmetry_equiv_pos_site_id
 _symmetry_equiv_pos_as_xyz
  1  'x, y, z'
loop_
 _atom_site_type_symbol
 _atom_site_label
 _atom_site_symmetry_multiplicity
 _atom_site_fract_x
 _atom_site_fract_y
 _atom_site_fract_z
 _atom_site_occupancy
  H  H0  1  0.00998596  0.03110381  0.68252433  1
  H  H1  1  -0.01144137  0.36446600  0.67925753  1
  H  H2  1  0.00573144  0.69722675  0.67981615  1
  H  H3  1  0.49733229  0.03237062  0.68414902  1
  H  H4  1  0.50689130  0.36750539  0.67997801  1
  H  H5  1  0.50417570  0.69776332  0.68359848  1
  H  H6  1  -0.00047236  0.30055897  0.18387425  1
  H  H7  1  0.00902051  0.63637404  0.17975625  1
  H  H8  1  0.00355485  0.96793164  0.17989208  1
  H  H9  1  0.49849652  0.30373574  0.17828347  1
  H  H10  1  0.50192895  0.63556340  0.18333367  1
  H  H11  1  0.49809691  0.96781167  0.18155343  1
  H  H12  1  -0.00141714  0.03090348  0.81862716  1
  H  H13  1  0.00478498  0.36580474  0.81968579  1
  H  H14  1  0.00263462  0.69915314  0.81854848  1
  H  H15  1  0.50419174  0.03057186  0.81925140  1
  H  H16  1  0.50300685  0.36347840  0.81857789  1
  H  H17  1  0.49963891  0.69877959  0.81800521  1
  H  H18  1  -0.00758401  0.30379978  0.31931485  1
  H  H19  1  0.00426727  0.63553681  0.31869518  1
  H  H20  1  -0.00405078  0.96684842  0.32317164  1
  H  H21  1  0.50350784  0.30069494  0.31655491  1
  H  H22  1  0.49555965  0.63523270  0.32237801  1
  H  H23  1  0.49169753  0.96748256  0.31659702  1
  H  H24  1  0.24820609  0.19902784  0.68350547  1
  H  H25  1  0.24118239  0.53138878  0.67901833  1
  H  H26  1  0.25724785  0.86578718  0.67861639  1
  H  H27  1  0.74546025  0.19982028  0.68072555  1
  H  H28  1  0.75485441  0.53357325  0.68081820  1
  H  H29  1  0.74949664  0.86619587  0.68030266  1
  H  H30  1  0.25048252  0.13619288  0.18251349  1
  H  H31  1  0.24713956  0.46762733  0.18278913  1
  H  H32  1  0.25513151  0.80138439  0.17851242  1
  H  H33  1  0.74139715  0.13380366  0.18173804  1
  H  H34  1  0.74807629  0.46816468  0.17949240  1
  H  H35  1  0.75327038  0.80198315  0.18280245  1
  H  H36  1  0.24128673  0.19707745  0.81940396  1
  H  H37  1  0.24553560  0.53289506  0.81798732  1
  H  H38  1  0.24994691  0.86710716  0.82297420  1
  H  H39  1  0.75826404  0.19898377  0.81960989  1
  H  H40  1  0.75462448  0.53083386  0.81977456  1
  H  H41  1  0.75314506  0.86426790  0.81786379  1
  H  H42  1  0.25332020  0.13513064  0.31915371  1
  H  H43  1  0.24823174  0.46864396  0.32098353  1
  H  H44  1  0.24738532  0.79938988  0.31895854  1
  H  H45  1  0.74345006  0.13625577  0.31899575  1
  H  H46  1  0.74652686  0.46751942  0.31765179  1
  H  H47  1  0.75235565  0.80229570  0.31955495  1
  H  H48  1  0.11997318  0.05703428  0.60122760  1
  H  H49  1  0.12139105  0.38631377  0.61676483  1
  H  H50  1  0.12287362  0.72200148  0.60132334  1
  H  H51  1  0.62324122  0.05248726  0.61577328  1
  H  H52  1  0.61356816  0.39075706  0.59700961  1
  H  H53  1  0.62484823  0.72146547  0.60994139  1
  H  H54  1  0.37594028  0.27807995  0.10678680  1
  H  H55  1  0.37344327  0.61460669  0.11398788  1
  H  H56  1  0.37433872  0.94431189  0.10897123  1
  H  H57  1  0.87480565  0.27987361  0.11471772  1
  H  H58  1  0.87117038  0.61483254  0.12381333  1
  H  H59  1  0.87402067  0.94752540  0.11402505  1
  H  H60  1  0.37156758  0.04986246  0.88136703  1
  H  H61  1  0.37408452  0.38581084  0.88709423  1
  H  H62  1  0.37555927  0.72244300  0.89027051  1
  H  H63  1  0.87405437  0.05276099  0.88656948  1
  H  H64  1  0.86978218  0.38539865  0.87915985  1
  H  H65  1  0.87759756  0.72079226  0.89005958  1
  H  H66  1  0.12214069  0.28073729  0.38606520  1
  H  H67  1  0.12451759  0.61226833  0.39496451  1
  H  H68  1  0.12831675  0.94489809  0.38595910  1
  H  H69  1  0.62129153  0.27903628  0.39196873  1
  H  H70  1  0.62508112  0.61688478  0.38929971  1
  H  H71  1  0.62742648  0.94795608  0.37841769  1
  H  H72  1  0.37504113  0.22129501  0.61317924  1
  H  H73  1  0.37440380  0.55208459  0.61653708  1
  H  H74  1  0.36567465  0.89125617  0.59567419  1
  H  H75  1  0.87859668  0.21963118  0.61751480  1
  H  H76  1  0.87018894  0.55433056  0.60431344  1
  H  H77  1  0.87422871  0.88770173  0.60989061  1
  H  H78  1  0.12677394  0.11127273  0.11210982  1
  H  H79  1  0.13071820  0.44481663  0.10657997  1
  H  H80  1  0.12529308  0.78347291  0.11481578  1
  H  H81  1  0.63277387  0.11202871  0.10004523  1
  H  H82  1  0.63052414  0.44356507  0.10272618  1
  H  H83  1  0.62640239  0.77923969  0.11317198  1
  H  H84  1  0.12931256  0.22267782  0.90092472  1
  H  H85  1  0.13026563  0.55739592  0.89687654  1
  H  H86  1  0.12570874  0.88699117  0.89187232  1
  H  H87  1  0.62341389  0.21872354  0.88093758  1
  H  H88  1  0.63004661  0.55361325  0.89045386  1
  H  H89  1  0.62803910  0.88751556  0.88861835  1
  H  H90  1  0.37479665  0.11068688  0.39139637  1
  H  H91  1  0.37934980  0.44729529  0.38606302  1
  H  H92  1  0.37279099  0.77909278  0.38674723  1
  H  H93  1  0.87746735  0.11523274  0.37852441  1
  H  H94  1  0.87940410  0.44731266  0.38314042  1
  H  H95  1  0.87680257  0.78095541  0.39214182  1
  H  H96  1  0.37211428  0.28179097  0.37969031  1
  H  H97  1  0.37710608  0.60769091  0.39600222  1
  H  H98  1  0.37954414  0.94308014  0.39680048  1
  H  H99  1  0.87400425  0.27791780  0.39664282  1
  H  H100  1  0.87610731  0.61367676  0.38787657  1
  H  H101  1  0.88040908  0.94238951  0.40023247  1
  H  H102  1  0.12306494  0.05145998  0.88857210  1
  H  H103  1  0.11807514  0.39112741  0.89970402  1
  H  H104  1  0.12657770  0.72269735  0.88869073  1
  H  H105  1  0.62068939  0.05716490  0.89626544  1
  H  H106  1  0.62232876  0.38775925  0.89518120  1
  H  H107  1  0.62474701  0.72057351  0.88840544  1
  H  H108  1  0.12472065  0.27973436  0.11472958  1
  H  H109  1  0.11640004  0.60994161  0.09480024  1
  H  H110  1  0.12269535  0.94410318  0.10322773  1
  H  H111  1  0.62488765  0.27960215  0.10937752  1
  H  H112  1  0.62248239  0.61084825  0.10978586  1
  H  H113  1  0.62379074  0.94611548  0.11165365  1
  H  H114  1  0.37353671  0.05276527  0.61382637  1
  H  H115  1  0.36734672  0.38497060  0.62651980  1
  H  H116  1  0.37571167  0.71907442  0.61470368  1
  H  H117  1  0.87281601  0.04997796  0.62263328  1
  H  H118  1  0.87323550  0.38958389  0.60124994  1
  H  H119  1  0.87474519  0.72029325  0.61404257  1
  H  H120  1  0.12648954  0.11350129  0.38791101  1
  H  H121  1  0.13028048  0.44501111  0.39657751  1
  H  H122  1  0.12340977  0.78064210  0.39088007  1
  H  H123  1  0.62983935  0.10870738  0.39765586  1
  H  H124  1  0.63045490  0.44533243  0.39544958  1
  H  H125  1  0.62798973  0.77907102  0.39075548  1
  H  H126  1  0.37627705  0.21895001  0.88019663  1
  H  H127  1  0.37905889  0.55182838  0.87979301  1
  H  H128  1  0.37469871  0.88622162  0.89166719  1
  H  H129  1  0.87022931  0.22335691  0.90170111  1
  H  H130  1  0.87843186  0.55571298  0.89223132  1
  H  H131  1  0.87721747  0.88677187  0.88885471  1
  H  H132  1  0.37592278  0.11368214  0.11123557  1
  H  H133  1  0.37971624  0.44759958  0.12122761  1
  H  H134  1  0.37407170  0.77936507  0.10339119  1
  H  H135  1  0.87970239  0.11579440  0.12620294  1
  H  H136  1  0.87877366  0.44628002  0.11532558  1
  H  H137  1  0.87570113  0.78010513  0.10993041  1
  H  H138  1  0.12597419  0.22213055  0.61150902  1
  H  H139  1  0.12644262  0.55648660  0.60118389  1
  H  H140  1  0.11912721  0.88321705  0.62260354  1
  H  H141  1  0.63065299  0.22417675  0.60052648  1
  H  H142  1  0.62180173  0.55143728  0.61866393  1
  H  H143  1  0.62497648  0.88663884  0.61162238  1
  H  H144  1  0.82923266  0.91692602  0.99756146  1
  H  H145  1  0.56604235  0.25456406  0.50244966  1
  H  H146  1  0.34775171  0.58040977  0.99233231  1
  H  H147  1  0.42032412  0.07138569  0.49994432  1
  H  H148  1  0.40384798  0.08042098  0.99316582  1
  H  H149  1  0.34740455  0.41837177  0.49356854  1
  H  H150  1  0.31589229  0.11026371  0.49815507  1
  H  H151  1  0.81386541  0.58143490  0.49515224  1
  H  H152  1  0.84939314  0.08432796  0.49076357  1
  H  H153  1  0.09547133  0.91502451  0.49394830  1
  H  H154  1  0.57659791  0.74893433  0.99763283  1
  H  H155  1  0.43397329  0.59248722  0.50065039  1
  H  H156  1  0.07967875  0.25250885  0.00248816  1
  H  H157  1  0.15799879  0.75517378  0.00105592  1
  H  H158  1  0.34901626  0.41804474  0.00884439  1
  H  H159  1  0.82586945  0.75213687  0.49561813  1
  H  H160  1  0.69184515  0.41953100  0.50319089  1
  H  H161  1  0.69874067  0.25168303  0.49915943  1
  H  H162  1  0.69535953  0.08990136  0.50219732  1
  H  H163  1  0.54414607  0.41695315  0.49100472  1
  H  H164  1  0.57115795  0.74914736  0.50192413  1
  H  H165  1  0.82403435  0.75206107  0.00153225  1
  H  H166  1  0.17746765  0.07194044  0.48671554  1
  H  H167  1  0.18487963  0.41718919  0.50458060  1
  H  H168  1  0.82720798  0.58215880  0.99599263  1
  H  H169  1  0.55972515  0.08331594  0.99972625  1
  H  H170  1  0.20076860  0.24524807  1.00327278  1
  H  H171  1  0.79952157  0.24654352  1.00344409  1
  H  H172  1  0.29376707  0.91533704  0.49424171  1
  H  H173  1  0.91993643  0.25303025  0.00227849  1
  H  H174  1  0.17681871  0.25078823  0.50284488  1
  H  H175  1  0.18811037  0.41837009  -0.00305427  1
  H  H176  1  0.17505800  0.07997476  0.00401662  1
  H  H177  1  0.66851867  0.91485882  0.49936012  1
  H  H178  1  0.03991030  0.58598255  -0.00505349  1
  H  H179  1  0.89599757  0.41468609  0.99256791  1
  H  H180  1  0.05039109  0.08496120  0.49620099  1
  H  H181  1  0.44575981  0.91668136  0.50292514  1
  H  H182  1  0.56891345  0.58184155  0.00229464  1
  H  H183  1  0.91360025  0.08222783  0.99864312  1
  H  H184  1  0.70054142  0.08642908  -0.00758133  1
  H  H185  1  0.33042481  0.75037388  0.49922347  1
  H  H186  1  0.19269264  0.58660463  0.99863945  1
  H  H187  1  0.57911111  0.07410937  0.50152417  1
  H  H188  1  0.57613980  0.91640155  0.00258226  1
  H  H189  1  0.40464431  0.25481041  0.49269361  1
  H  H190  1  0.58842184  0.58155405  0.49247404  1
  H  H191  1  0.05244582  0.41232320  1.00314318  1
  Pb  Pb192  1  0.24987204  0.04753009  0.74261257  1
  Pb  Pb193  1  0.24643087  0.38012965  0.75313391  1
  Pb  Pb194  1  0.24840792  0.71259754  0.74911849  1
  Pb  Pb195  1  0.74821028  0.04550408  0.74864383  1
  Pb  Pb196  1  0.74923339  0.38082061  0.74486359  1
  Pb  Pb197  1  0.74854383  0.71284300  0.74914882  1
  Pb  Pb198  1  0.25147911  0.28726276  0.24627464  1
  Pb  Pb199  1  0.24619359  0.61893442  0.24641787  1
  Pb  Pb200  1  0.25072852  0.95085735  0.25298547  1
  Pb  Pb201  1  0.74911197  0.28599742  0.25131514  1
  Pb  Pb202  1  0.74966699  0.62144332  0.24913326  1
  Pb  Pb203  1  0.75305634  0.95324794  0.24954618  1
  Pb  Pb204  1  -0.00183577  0.21260811  0.75741041  1
  Pb  Pb205  1  -0.00166129  0.54731269  0.75147538  1
  Pb  Pb206  1  -0.00076087  0.87873149  0.74964216  1
  Pb  Pb207  1  0.50247078  0.21455146  0.74357226  1
  Pb  Pb208  1  0.49886323  0.54575803  0.74736243  1
  Pb  Pb209  1  0.49809725  0.87861497  0.74690344  1
  Pb  Pb210  1  0.00390835  0.11948365  0.25208984  1
  Pb  Pb211  1  -0.00110729  0.45301060  0.24475288  1
  Pb  Pb212  1  -0.00115017  0.78815658  0.24860744  1
  Pb  Pb213  1  0.50255175  0.11721342  0.24773694  1
  Pb  Pb214  1  0.50224433  0.45422240  0.25057912  1
  Pb  Pb215  1  0.50004526  0.78617130  0.24994699  1
  C  C216  1  0.00056333  0.04573895  0.63515746  1
  C  C217  1  -0.00538202  0.37972539  0.63204607  1
  C  C218  1  0.00107249  0.71256639  0.63231648  1
  C  C219  1  0.49800392  0.04643619  0.63600017  1
  C  C220  1  0.49593884  0.38111204  0.63249636  1
  C  C221  1  0.50138605  0.71286020  0.63593578  1
  C  C222  1  -0.00025231  0.28662218  0.13571386  1
  C  C223  1  -0.00084403  0.62104881  0.13270755  1
  C  C224  1  0.00036799  0.95344931  0.13222709  1
  C  C225  1  0.49998530  0.28749885  0.13126041  1
  C  C226  1  0.49902313  0.62055990  0.13558728  1
  C  C227  1  0.49869172  0.95294602  0.13382251  1
  C  C228  1  -0.00189801  0.04533528  0.86647338  1
  C  C229  1  -0.00220257  0.38038510  0.86744989  1
  C  C230  1  0.00200857  0.71390104  0.86613875  1
  C  C231  1  0.49906388  0.04563131  0.86693563  1
  C  C232  1  0.49968580  0.37864710  0.86616541  1
  C  C233  1  0.49987381  0.71386421  0.86563157  1
  C  C234  1  -0.00400013  0.28804965  0.36668230  1
  C  C235  1  0.00157760  0.62099037  0.36650109  1
  C  C236  1  0.00214559  0.95189442  0.37061419  1
  C  C237  1  0.49867030  0.28684995  0.36462754  1
  C  C238  1  0.49927946  0.61986746  0.37009923  1
  C  C239  1  0.49989907  0.95290319  0.36409370  1
  C  C240  1  0.25003973  0.21386927  0.63570293  1
  C  C241  1  0.24770876  0.54629124  0.63172559  1
  C  C242  1  0.24751605  0.87971504  0.63109264  1
  C  C243  1  0.75122172  0.21444118  0.63306769  1
  C  C244  1  0.74918266  0.54661079  0.63271697  1
  C  C245  1  0.74901374  0.88024810  0.63238087  1
  C  C246  1  0.25124314  0.12063472  0.13500898  1
  C  C247  1  0.25288105  0.45314572  0.13497159  1
  C  C248  1  0.25091262  0.78769378  0.13054272  1
  C  C249  1  0.75118986  0.12058916  0.13408494  1
  C  C250  1  0.75244093  0.45301533  0.13214477  1
  C  C251  1  0.75164855  0.78674803  0.13516600  1
  C  C252  1  0.24847632  0.21241454  0.86671329  1
  C  C253  1  0.25149890  0.54760777  0.86577810  1
  C  C254  1  0.25017505  0.88053447  0.87140046  1
  C  C255  1  0.75104615  0.21329265  0.86730795  1
  C  C256  1  0.75486200  0.54632478  0.86734364  1
  C  C257  1  0.75271660  0.87958627  0.86545188  1
  C  C258  1  0.25160196  0.11983804  0.36693738  1
  C  C259  1  0.25310614  0.45333608  0.36865726  1
  C  C260  1  0.24843282  0.78600684  0.36710444  1
  C  C261  1  0.74996187  0.12116183  0.36656434  1
  C  C262  1  0.75235832  0.45324396  0.36541312  1
  C  C263  1  0.75273874  0.78710070  0.36720911  1
  C  C264  1  0.53066127  0.26346255  0.46110877  1
  C  C265  1  0.04009279  0.74200002  0.95884082  1
  C  C266  1  0.22168586  0.57672641  0.53763645  1
  C  C267  1  0.77736353  0.57106938  0.53549135  1
  C  C268  1  0.21518765  0.23981220  0.54214679  1
  C  C269  1  0.94233061  0.40614305  0.95628117  1
  C  C270  1  0.79868683  0.42577515  0.04150119  1
  C  C271  1  0.28450386  0.76261399  0.03524537  1
  C  C272  1  0.44729936  0.07144180  0.95672782  1
  C  C273  1  0.21041417  0.90426224  0.96386886  1
  C  C274  1  0.29058873  0.90386373  0.96377233  1
  C  C275  1  0.78933381  0.90625390  0.95844825  1
  C  C276  1  0.79033970  0.90547262  0.53892959  1
  C  C277  1  0.53684593  0.92693141  0.04125940  1
  C  C278  1  0.22128276  0.42707436  0.46390122  1
  C  C279  1  0.54030290  0.06767072  0.54150381  1
  C  C280  1  0.30412794  0.57077665  0.95615422  1
  C  C281  1  0.45821074  0.06734655  0.54072384  1
  C  C282  1  0.02062528  0.07284775  0.53941983  1
  C  C283  1  0.72546869  0.42890301  0.46099137  1
  C  C284  1  0.51317049  0.40650877  0.53407385  1
  C  C285  1  0.95722174  0.07149429  0.96078324  1
  C  C286  1  0.73163807  0.09602752  0.03569270  1
  C  C287  1  0.28981762  0.76085351  0.46133528  1
  C  C288  1  0.95541303  0.92754007  0.04075005  1
  C  C289  1  0.30438286  0.42821860  0.04414561  1
  C  C290  1  0.43284957  0.40416786  0.54562832  1
  C  C291  1  0.53744670  0.73913048  0.95861553  1
  C  C292  1  0.04079777  0.26263331  0.04160285  1
  C  C293  1  0.69593862  0.56908253  0.54184366  1
  C  C294  1  0.70873390  0.90520890  0.53777508  1
  C  C295  1  0.95875443  0.26281113  0.04152670  1
  C  C296  1  0.20821969  0.76164954  0.46113976  1
  C  C297  1  0.78601953  0.76149694  0.04136342  1
  C  C298  1  0.03882339  0.07062157  0.96009754  1
  C  C299  1  0.97141670  0.92211556  0.46604716  1
  C  C300  1  0.53170955  0.59325660  0.04201254  1
  C  C301  1  0.21472813  0.09215951  0.04264367  1
  C  C302  1  0.47735051  0.92750323  0.46007282  1
  C  C303  1  0.44871148  0.26399685  0.45658719  1
  C  C304  1  0.81241049  0.09733727  0.04643558  1
  C  C305  1  0.18640386  0.90349668  0.54327680  1
  C  C306  1  0.53397557  0.73871734  0.54194990  1
  C  C307  1  0.46492105  0.25663042  0.03932849  1
  C  C308  1  0.96829130  0.40915524  0.53786714  1
  C  C309  1  0.20296987  0.76362690  0.03771849  1
  C  C310  1  0.22247053  0.42782892  0.03870385  1
  C  C311  1  0.80476257  0.09409400  0.45507254  1
  N  N312  1  0.45754671  0.92654447  0.03987763  1
  N  N313  1  0.72541132  0.09161042  0.46071787  1
  N  N314  1  0.04164035  0.26019103  0.45803996  1
  N  N315  1  0.71166218  0.57218782  0.96032613  1
  N  N316  1  0.01483968  0.59223781  0.03836752  1
  N  N317  1  0.29407569  0.09349117  0.04165798  1
  N  N318  1  0.52664466  0.07463777  0.96066461  1
  N  N319  1  0.96517827  0.25913205  0.46126078  1
  N  N320  1  0.04574512  0.40807918  0.54126125  1
  N  N321  1  0.30492381  0.23914390  0.95468888  1
  N  N322  1  0.45816175  0.73990449  0.95960500  1
  N  N323  1  0.80547904  0.23802134  0.54310193  1
  N  N324  1  0.70654539  0.76088429  0.04200478  1
  N  N325  1  0.72127223  0.42459196  0.03610856  1
  N  N326  1  0.45456912  0.73785548  0.54311799  1
  N  N327  1  0.02179441  0.40869468  0.96201735  1
  N  N328  1  0.95835094  0.59447612  0.45894343  1
  N  N329  1  0.78846584  0.76234800  0.45928368  1
  N  N330  1  0.79006474  0.57279325  0.95909704  1
  N  N331  1  0.53181917  0.40678332  0.96074689  1
  N  N332  1  0.55618746  0.92931537  0.45402163  1
  N  N333  1  0.26474474  0.90655490  0.53520942  1
  N  N334  1  0.54241492  0.25682787  0.03885799  1
  N  N335  1  0.45245823  0.59458963  0.04284911  1
  N  N336  1  0.05004537  0.92418312  0.46023927  1
  N  N337  1  0.03276249  0.92647067  0.03612947  1
  N  N338  1  0.03047259  0.74091730  0.53730594  1
  N  N339  1  0.54525024  0.60025616  0.46189958  1
  N  N340  1  0.22481031  0.57146828  0.96118340  1
  N  N341  1  0.20843951  0.10182237  0.46000919  1
  N  N342  1  0.95403320  0.74047802  0.54144141  1
  N  N343  1  0.70974982  0.90648525  0.95889957  1
  N  N344  1  0.28906868  0.09258773  0.45941451  1
  N  N345  1  0.77206244  0.23971366  0.96164984  1
  N  N346  1  0.93744320  0.59458352  0.04660435  1
  N  N347  1  0.29455044  0.23882755  0.54210162  1
  N  N348  1  0.30080945  0.42761871  0.45907091  1
  N  N349  1  0.94202753  0.06999903  0.54632753  1
  N  N350  1  0.03480144  0.59432533  0.46127185  1
  N  N351  1  0.46742218  0.58580549  0.46106222  1
  N  N352  1  0.45570421  0.40591197  0.95815696  1
  N  N353  1  0.29920133  0.57502274  0.54109190  1
  N  N354  1  0.72767101  0.23847677  0.53865424  1
  N  N355  1  0.96216381  0.74113704  0.96055664  1
  N  N356  1  0.69457171  0.23744572  0.95628981  1
  N  N357  1  0.22729173  0.24074996  0.96053434  1
  N  N358  1  0.80441430  0.42947176  0.45696224  1
  N  N359  1  0.71006678  0.76147543  0.46035168  1
  N  N360  1  0.05803688  0.05804042  0.59353682  1
  N  N361  1  0.06205169  0.38935341  0.60143069  1
  N  N362  1  0.06098325  0.72386125  0.59344700  1
  N  N363  1  0.56364460  0.05488805  0.60104415  1
  N  N364  1  0.55159644  0.39196348  0.58953144  1
  N  N365  1  0.56411776  0.72354942  0.59855461  1
  N  N366  1  0.43606217  0.27498721  0.09493840  1
  N  N367  1  0.43361238  0.61174661  0.10174541  1
  N  N368  1  0.43547195  0.94256982  0.09792619  1
  N  N369  1  0.93456159  0.27763032  0.10036577  1
  N  N370  1  0.92854193  0.61072815  0.10589700  1
  N  N371  1  0.93309424  0.94384425  0.09890426  1
  N  N372  1  0.42991473  0.05415339  0.89838945  1
  N  N373  1  0.43416988  0.38853485  0.89951769  1
  N  N374  1  0.43652804  0.72428127  0.90133357  1
  N  N375  1  0.93324910  0.05564583  0.90115082  1
  N  N376  1  0.92765424  0.38998822  0.89705313  1
  N  N377  1  0.93853829  0.72323901  0.90150809  1
  N  N378  1  0.06197076  0.27790047  0.39939844  1
  N  N379  1  0.06304303  0.61103728  0.40421282  1
  N  N380  1  0.06951248  0.94286128  0.40140499  1
  N  N381  1  0.56039570  0.27761662  0.40342091  1
  N  N382  1  0.56551165  0.61099360  0.40275075  1
  N  N383  1  0.56843059  0.94475646  0.39405976  1
  N  N384  1  0.31464366  0.22294779  0.60108916  1
  N  N385  1  0.31529305  0.55554655  0.60121662  1
  N  N386  1  0.30319543  0.89055923  0.58909687  1
  N  N387  1  0.81960229  0.22269171  0.60209614  1
  N  N388  1  0.80934929  0.55676497  0.59329526  1
  N  N389  1  0.81414864  0.89052935  0.59606402  1
  N  N390  1  0.18719759  0.10865320  0.09950941  1
  N  N391  1  0.19180749  0.44326567  0.09568060  1
  N  N392  1  0.18358765  0.77917989  0.09832269  1
  N  N393  1  0.69451994  0.11066019  0.09164416  1
  N  N394  1  0.69236706  0.44208644  0.09387690  1
  N  N395  1  0.68708807  0.77665615  0.10080424  1
  N  N396  1  0.19110841  0.22187509  0.90809508  1
  N  N397  1  0.19232741  0.55868412  0.90503392  1
  N  N398  1  0.18485064  0.89024787  0.90737763  1
  N  N399  1  0.68205123  0.22281012  0.89687292  1
  N  N400  1  0.69056186  0.55602024  0.90270713  1
  N  N401  1  0.68893657  0.88985673  0.90057028  1
  N  N402  1  0.31453896  0.11427913  0.40402786  1
  N  N403  1  0.31971774  0.44365284  0.40036919  1
  N  N404  1  0.31364678  0.77625459  0.40167722  1
  N  N405  1  0.81994244  0.11083139  0.39627270  1
  N  N406  1  0.81944089  0.44451889  0.39734940  1
  N  N407  1  0.81584862  0.77711952  0.40294589  1
  N  N408  1  0.43041011  0.27834781  0.39648328  1
  N  N409  1  0.43799409  0.60881152  0.40747911  1
  N  N410  1  0.44139061  0.94184957  0.40522544  1
  N  N411  1  0.93556245  0.27639880  0.40480319  1
  N  N412  1  0.93647238  0.61079473  0.40016587  1
  N  N413  1  0.94146763  0.93964105  0.41080741  1
  N  N414  1  0.06325709  0.05494109  0.90310561  1
  N  N415  1  0.05592686  0.39025030  0.90804820  1
  N  N416  1  0.06656216  0.72548190  0.90189303  1
  N  N417  1  0.55872230  0.05723032  0.90559882  1
  N  N418  1  0.56070235  0.38993862  0.90393695  1
  N  N419  1  0.56470014  0.72339152  0.90123605  1
  N  N420  1  0.06495575  0.27748447  0.10049997  1
  N  N421  1  0.05385741  0.61060397  0.08966320  1
  N  N422  1  0.06103953  0.94299150  0.09427160  1
  N  N423  1  0.56441321  0.27641119  0.09732532  1
  N  N424  1  0.56162225  0.60894429  0.09839808  1
  N  N425  1  0.56376016  0.94317431  0.09860673  1
  N  N426  1  0.43317927  0.05459065  0.59999774  1
  N  N427  1  0.42319756  0.38899952  0.60542484  1
  N  N428  1  0.43606196  0.72206099  0.60208580  1
  N  N429  1  0.93126732  0.05313856  0.60614073  1
  N  N430  1  0.93425507  0.39213462  0.59211879  1
  N  N431  1  0.93468104  0.72281626  0.60032928  1
  N  N432  1  0.18683338  0.10708484  0.39988126  1
  N  N433  1  0.19135793  0.44268011  0.40770863  1
  N  N434  1  0.18346067  0.77669764  0.40425935  1
  N  N435  1  0.69147159  0.11162881  0.40685944  1
  N  N436  1  0.69180487  0.44307688  0.40510942  1
  N  N437  1  0.68870059  0.77714402  0.40276510  1
  N  N438  1  0.31744308  0.22346276  0.89575955  1
  N  N439  1  0.32097393  0.55540235  0.89708088  1
  N  N440  1  0.31574720  0.88964306  0.90730358  1
  N  N441  1  0.80843513  0.22278592  0.90864208  1
  N  N442  1  0.81779461  0.55673500  0.90315818  1
  N  N443  1  0.81686666  0.89012551  0.90130703  1
  N  N444  1  0.31523969  0.11133203  0.09979794  1
  N  N445  1  0.32167233  0.44387303  0.10408436  1
  N  N446  1  0.31345924  0.77694301  0.09120507  1
  N  N447  1  0.82330428  0.11194215  0.10597641  1
  N  N448  1  0.82031249  0.44261477  0.09982853  1
  N  N449  1  0.81500633  0.77687972  0.09820327  1
  N  N450  1  0.18654081  0.22448136  0.59911692  1
  N  N451  1  0.18762388  0.55919752  0.59172512  1
  N  N452  1  0.17565889  0.88781477  0.60298619  1
  N  N453  1  0.69274144  0.22526125  0.59317802  1
  N  N454  1  0.67975520  0.55468770  0.60090973  1
  N  N455  1  0.68413404  0.88954166  0.59720765  1
  Cl  Cl456  1  0.24562784  0.05678645  0.60212484  1
  Cl  Cl457  1  0.24322617  0.38864161  0.61984864  1
  Cl  Cl458  1  0.24723801  0.72011293  0.61502361  1
  Cl  Cl459  1  0.74567987  0.05805166  0.61142488  1
  Cl  Cl460  1  0.74120957  0.38784699  0.60948877  1
  Cl  Cl461  1  0.75102430  0.72171826  0.61458800  1
  Cl  Cl462  1  0.24798124  0.27569584  0.11000732  1
  Cl  Cl463  1  0.23893804  0.60969277  0.10236425  1
  Cl  Cl464  1  0.24823110  0.94614852  0.12184828  1
  Cl  Cl465  1  0.75172780  0.27712611  0.11513608  1
  Cl  Cl466  1  0.74708954  0.61126929  0.11604559  1
  Cl  Cl467  1  0.75030486  0.94789714  0.11761921  1
  Cl  Cl468  1  0.24650644  0.05144171  0.87450053  1
  Cl  Cl469  1  0.24250002  0.38866184  0.88882991  1
  Cl  Cl470  1  0.24976785  0.71929755  0.88270319  1
  Cl  Cl471  1  0.74276192  0.05533604  0.88202832  1
  Cl  Cl472  1  0.74537919  0.38407931  0.87716299  1
  Cl  Cl473  1  0.75274479  0.71937029  0.88192917  1
  Cl  Cl474  1  0.24523870  0.28066791  0.37915075  1
  Cl  Cl475  1  0.25136538  0.61167595  0.37931825  1
  Cl  Cl476  1  0.25646549  0.94431533  0.39514760  1
  Cl  Cl477  1  0.74557095  0.27613478  0.39005280  1
  Cl  Cl478  1  0.74927587  0.61554666  0.38353324  1
  Cl  Cl479  1  0.75540124  0.94755114  0.38320722  1
  Cl  Cl480  1  0.00262121  0.21755729  0.62669755  1
  Cl  Cl481  1  0.00031566  0.54975566  0.62292837  1
  Cl  Cl482  1  -0.00344988  0.88862117  0.61431944  1
  Cl  Cl483  1  0.50698546  0.22279777  0.60860838  1
  Cl  Cl484  1  0.49822481  0.55618977  0.61103247  1
  Cl  Cl485  1  0.48806718  0.88948874  0.61161576  1
  Cl  Cl486  1  0.00501636  0.11387618  0.12149755  1
  Cl  Cl487  1  0.00695500  0.44331636  0.10585463  1
  Cl  Cl488  1  -0.00134075  0.78277312  0.11839087  1
  Cl  Cl489  1  0.50532798  0.10985407  0.10863093  1
  Cl  Cl490  1  0.50765263  0.44780847  0.12301658  1
  Cl  Cl491  1  0.50160380  0.77960334  0.11796334  1
  Cl  Cl492  1  0.00060326  0.22430053  0.89392046  1
  Cl  Cl493  1  0.00681462  0.55817253  0.89673598  1
  Cl  Cl494  1  -0.00030034  0.88401682  0.87739092  1
  Cl  Cl495  1  0.49955080  0.21353459  0.87446489  1
  Cl  Cl496  1  0.50666968  0.55391171  0.87919310  1
  Cl  Cl497  1  0.50425586  0.88784484  0.87910332  1
  Cl  Cl498  1  0.00590383  0.11015089  0.38789154  1
  Cl  Cl499  1  0.00511452  0.44782990  0.37539832  1
  Cl  Cl500  1  -0.00162386  0.78615227  0.38123639  1
  Cl  Cl501  1  0.50212803  0.10765645  0.38394466  1
  Cl  Cl502  1  0.50500233  0.44774323  0.38658488  1
  Cl  Cl503  1  0.50429243  0.77815017  0.38337262  1
  Cl  Cl504  1  0.35975312  0.14288745  0.74664183  1
  Cl  Cl505  1  0.36319068  0.47797217  0.74785116  1
  Cl  Cl506  1  0.36184512  0.81160278  0.75077705  1
  Cl  Cl507  1  0.86128769  0.14543585  0.74756545  1
  Cl  Cl508  1  0.86326184  0.47716618  0.75471477  1
  Cl  Cl509  1  0.86290232  0.81083535  0.74744432  1
  Cl  Cl510  1  0.13775534  0.18853773  0.25108430  1
  Cl  Cl511  1  0.14399119  0.52239621  0.24748385  1
  Cl  Cl512  1  0.13889243  0.85593330  0.25276615  1
  Cl  Cl513  1  0.64162143  0.18805779  0.25251291  1
  Cl  Cl514  1  0.63805936  0.52195686  0.25148025  1
  Cl  Cl515  1  0.63898046  0.85583581  0.25174632  1
  Cl  Cl516  1  0.13883490  0.14480856  0.75168056  1
  Cl  Cl517  1  0.13933491  0.47853478  0.75435990  1
  Cl  Cl518  1  0.13740076  0.81288128  0.74791049  1
  Cl  Cl519  1  0.63677621  0.14550821  0.75037107  1
  Cl  Cl520  1  0.63849201  0.47959643  0.74711937  1
  Cl  Cl521  1  0.63746167  0.81164036  0.75014833  1
  Cl  Cl522  1  0.35914603  0.18793971  0.25292458  1
  Cl  Cl523  1  0.36495906  0.52238260  0.24949315  1
  Cl  Cl524  1  0.36285834  0.85603949  0.25130387  1
  Cl  Cl525  1  0.86515482  0.18824320  0.24834468  1
  Cl  Cl526  1  0.86395918  0.52178776  0.24750974  1
  Cl  Cl527  1  0.86191903  0.85637742  0.25049819  1
  Cl  Cl528  1  0.11188622  0.31204576  0.74944313  1
  Cl  Cl529  1  0.11333947  0.64364476  0.75335277  1
  Cl  Cl530  1  0.11030421  0.97826018  0.74844282  1
  Cl  Cl531  1  0.60919337  0.31022715  0.74920156  1
  Cl  Cl532  1  0.61253817  0.64477630  0.74813096  1
  Cl  Cl533  1  0.61196281  0.97827388  0.74736880  1
  Cl  Cl534  1  0.38839470  0.02342221  0.25042637  1
  Cl  Cl535  1  0.38648811  0.35630753  0.25217843  1
  Cl  Cl536  1  0.39154614  0.68936146  0.24902980  1
  Cl  Cl537  1  0.88771253  0.02229687  0.25029131  1
  Cl  Cl538  1  0.88952082  0.35720423  0.24822708  1
  Cl  Cl539  1  0.88659123  0.68900748  0.24739901  1
  Cl  Cl540  1  0.38451561  0.31016474  0.74648166  1
  Cl  Cl541  1  0.38699794  0.64441749  0.74881756  1
  Cl  Cl542  1  0.38715254  0.97980323  0.74927465  1
  Cl  Cl543  1  0.88724537  0.31134506  0.75305224  1
  Cl  Cl544  1  0.88758346  0.64300467  0.75227602  1
  Cl  Cl545  1  0.88478107  0.97780607  0.74634420  1
  Cl  Cl546  1  0.11352337  0.02178071  0.25602623  1
  Cl  Cl547  1  0.11453031  0.35514087  0.24581472  1
  Cl  Cl548  1  0.11154388  0.68804243  0.24931267  1
  Cl  Cl549  1  0.61154359  0.02322824  0.25242797  1
  Cl  Cl550  1  0.61255985  0.35321290  0.25101039  1
  Cl  Cl551  1  0.61337256  0.68869781  0.25389545  1
