# generated using pymatgen
data_H8PbC4(N3Cl2)2
_symmetry_space_group_name_H-M   'P 1'
_cell_length_a   16.62953633
_cell_length_b   22.51593093
_cell_length_c   21.59362255
_cell_angle_alpha   90.00010842
_cell_angle_beta   89.97448673
_cell_angle_gamma   89.99547460
_symmetry_Int_Tables_number   1
_chemical_formula_structural   H8PbC4(N3Cl2)2
_chemical_formula_sum   'H192 Pb24 C96 N144 Cl96'
_cell_volume   8085.28828308
_cell_formula_units_Z   24
loop_
 _symmetry_equiv_pos_site_id
 _symmetry_equiv_pos_as_xyz
  1  'x, y, z'
loop_
 _atom_site_type_symbol
 _atom_site_label
 _atom_site_symmetry_multiplicity
 _atom_site_fract_x
 _atom_site_fract_y
 _atom_site_fract_z
 _atom_site_occupancy
  H  H0  1  0.01696224  0.02911169  0.67708154  1
  H  H1  1  -0.00107952  0.36310507  0.67440896  1
  H  H2  1  -0.01126484  0.69424536  0.67762654  1
  H  H3  1  0.48376585  0.02636633  0.67512389  1
  H  H4  1  0.50961633  0.36595250  0.68104871  1
  H  H5  1  0.50571769  0.69641193  0.68310429  1
  H  H6  1  -0.01041491  0.30337906  0.17793402  1
  H  H7  1  -0.01595024  0.63907841  0.17895378  1
  H  H8  1  -0.00877175  0.96947146  0.17991597  1
  H  H9  1  0.50288184  0.30308627  0.17085665  1
  H  H10  1  0.49965648  0.63278076  0.17911226  1
  H  H11  1  0.49457690  0.97253078  0.17935706  1
  H  H12  1  0.01229228  0.02649275  0.82590005  1
  H  H13  1  -0.01190631  0.36295622  0.81751571  1
  H  H14  1  0.01448751  0.69847564  0.82171694  1
  H  H15  1  0.48451290  0.02891858  0.82273056  1
  H  H16  1  0.51252744  0.35851374  0.82960942  1
  H  H17  1  0.49215144  0.69648328  0.81990566  1
  H  H18  1  0.00293597  0.30349997  0.32393848  1
  H  H19  1  0.00071962  0.63597767  0.31643292  1
  H  H20  1  -0.00335239  0.96743703  0.32033527  1
  H  H21  1  0.49763181  0.30479276  0.32103196  1
  H  H22  1  0.50518269  0.63743983  0.32021056  1
  H  H23  1  0.50549777  0.96877436  0.32112154  1
  H  H24  1  0.26159926  0.19989865  0.67779268  1
  H  H25  1  0.24488257  0.53129406  0.68172479  1
  H  H26  1  0.23469520  0.86231494  0.67770468  1
  H  H27  1  0.74383542  0.19584379  0.67761177  1
  H  H28  1  0.74084057  0.52389286  0.67786449  1
  H  H29  1  0.75670589  0.86361526  0.67797551  1
  H  H30  1  0.24823458  0.14136892  0.17857194  1
  H  H31  1  0.23638546  0.46973834  0.17603753  1
  H  H32  1  0.25820586  0.81612160  0.17372427  1
  H  H33  1  0.74846622  0.14024172  0.17546652  1
  H  H34  1  0.76737607  0.47217206  0.17936936  1
  H  H35  1  0.73939614  0.80460994  0.17978538  1
  H  H36  1  0.25423694  0.19565206  0.82351472  1
  H  H37  1  0.26241572  0.53045193  0.82236430  1
  H  H38  1  0.26185947  0.87026669  0.82368896  1
  H  H39  1  0.74743949  0.19642209  0.82729198  1
  H  H40  1  0.75863587  0.52892707  0.82143981  1
  H  H41  1  0.75711204  0.86506290  0.82532276  1
  H  H42  1  0.24608127  0.13208497  0.31663693  1
  H  H43  1  0.25639071  0.46978789  0.32366628  1
  H  H44  1  0.25552602  0.80338389  0.31849794  1
  H  H45  1  0.75229651  0.13910683  0.32611024  1
  H  H46  1  0.74757444  0.47284642  0.32314789  1
  H  H47  1  0.75441513  0.80343032  0.31714323  1
  H  H48  1  0.12346104  0.05652505  0.59310227  1
  H  H49  1  0.12064563  0.38412335  0.60082834  1
  H  H50  1  0.12989615  0.71706532  0.62923536  1
  H  H51  1  0.62764063  0.04765432  0.62847502  1
  H  H52  1  0.62357040  0.39089442  0.60246352  1
  H  H53  1  0.62838098  0.72182944  0.60882860  1
  H  H54  1  0.37592495  0.27997234  0.10647899  1
  H  H55  1  0.37585153  0.61023871  0.10861979  1
  H  H56  1  0.38100126  0.94410586  0.09979364  1
  H  H57  1  0.87748367  0.27461830  0.09896457  1
  H  H58  1  0.88199945  0.60882191  0.09209301  1
  H  H59  1  0.87597141  0.94271287  0.10314881  1
  H  H60  1  0.37086964  0.05885990  0.90020311  1
  H  H61  1  0.37393355  0.37909640  0.88467315  1
  H  H62  1  0.37214335  0.71602776  0.89536435  1
  H  H63  1  0.87010901  0.04724534  0.87404591  1
  H  H64  1  0.87949720  0.38691721  0.90099523  1
  H  H65  1  0.87450010  0.71935392  0.87514883  1
  H  H66  1  0.13023632  0.27862163  0.39279489  1
  H  H67  1  0.11618477  0.61266958  0.39340705  1
  H  H68  1  0.13147659  0.94777435  0.37990457  1
  H  H69  1  0.63284748  0.28149225  0.37843210  1
  H  H70  1  0.61269565  0.60890908  0.40059308  1
  H  H71  1  0.62656653  0.94356873  0.39540033  1
  H  H72  1  0.36104789  0.22861752  0.58870910  1
  H  H73  1  0.38144138  0.54956979  0.62620402  1
  H  H74  1  0.36880102  0.88460640  0.61629949  1
  H  H75  1  0.87004609  0.21989597  0.60708015  1
  H  H76  1  0.87870372  0.54963539  0.62341651  1
  H  H77  1  0.86872160  0.89268706  0.59863661  1
  H  H78  1  0.13515807  0.11025888  0.10120622  1
  H  H79  1  0.13266444  0.44167529  0.09278578  1
  H  H80  1  0.13045414  0.78212255  0.11244214  1
  H  H81  1  0.63020848  0.11559179  0.10092481  1
  H  H82  1  0.62687010  0.44900557  0.12596187  1
  H  H83  1  0.63089574  0.77624608  0.09774458  1
  H  H84  1  0.12726097  0.21781994  0.88884088  1
  H  H85  1  0.12667576  0.54785399  0.87763193  1
  H  H86  1  0.12345728  0.88596423  0.87619640  1
  H  H87  1  0.62309773  0.21989822  0.89436889  1
  H  H88  1  0.61935444  0.55042408  0.87513867  1
  H  H89  1  0.61756910  0.88241918  0.87656145  1
  H  H90  1  0.37135564  0.11296767  0.38865722  1
  H  H91  1  0.37646715  0.44393216  0.39797147  1
  H  H92  1  0.36880755  0.77798158  0.39491267  1
  H  H93  1  0.87001443  0.10989039  0.40110568  1
  H  H94  1  0.87938419  0.44546696  0.38210354  1
  H  H95  1  0.86667376  0.77868996  0.39590888  1
  H  H96  1  0.38576355  0.27709392  0.40147026  1
  H  H97  1  0.36579480  0.61944844  0.37534606  1
  H  H98  1  0.37770686  0.94492486  0.38772568  1
  H  H99  1  0.88197160  0.27792880  0.39678678  1
  H  H100  1  0.86806880  0.61201635  0.37572622  1
  H  H101  1  0.88332487  0.94511907  0.39847934  1
  H  H102  1  0.11313848  0.06136297  0.90975103  1
  H  H103  1  0.12598597  0.38417047  0.87480667  1
  H  H104  1  0.11797061  0.72675475  0.90856863  1
  H  H105  1  0.61867893  0.05124136  0.88421377  1
  H  H106  1  0.61894752  0.39123466  0.91118313  1
  H  H107  1  0.61914255  0.72288439  0.88559729  1
  H  H108  1  0.12519286  0.28122470  0.11823347  1
  H  H109  1  0.12502031  0.61739531  0.12724009  1
  H  H110  1  0.12414602  0.94714757  0.11637548  1
  H  H111  1  0.62437991  0.27832705  0.10073179  1
  H  H112  1  0.62492301  0.61160727  0.11140975  1
  H  H113  1  0.62904515  0.95106920  0.11855700  1
  H  H114  1  0.38657063  0.05995257  0.58703882  1
  H  H115  1  0.37590192  0.38496490  0.61812550  1
  H  H116  1  0.38032837  0.72131430  0.61281892  1
  H  H117  1  0.87821112  0.05168938  0.62397877  1
  H  H118  1  0.87270764  0.39065310  0.60838448  1
  H  H119  1  0.88604869  0.72679701  0.59270740  1
  H  H120  1  0.12168013  0.11136946  0.38705757  1
  H  H121  1  0.12767909  0.44482136  0.38822633  1
  H  H122  1  0.12046467  0.78580024  0.37974713  1
  H  H123  1  0.62242316  0.11416168  0.39196531  1
  H  H124  1  0.63215111  0.44246420  0.40000235  1
  H  H125  1  0.61873357  0.78303633  0.37434329  1
  H  H126  1  0.37640494  0.22039565  0.89433109  1
  H  H127  1  0.37224967  0.55570132  0.90298036  1
  H  H128  1  0.36838182  0.89063932  0.90793530  1
  H  H129  1  0.87157991  0.22002362  0.89427765  1
  H  H130  1  0.86345232  0.55932911  0.90698430  1
  H  H131  1  0.86251169  0.89196243  0.90866641  1
  H  H132  1  0.38333251  0.11946092  0.11654230  1
  H  H133  1  0.37788481  0.45289240  0.12438391  1
  H  H134  1  0.37854576  0.78095618  0.10429286  1
  H  H135  1  0.87905713  0.11326483  0.11184035  1
  H  H136  1  0.87256851  0.43971278  0.09716563  1
  H  H137  1  0.87726760  0.78427131  0.12162355  1
  H  H138  1  0.11892328  0.21529011  0.62718320  1
  H  H139  1  0.13488358  0.55563265  0.60205742  1
  H  H140  1  0.12089625  0.89205619  0.60041357  1
  H  H141  1  0.62195986  0.22344268  0.60451095  1
  H  H142  1  0.63409678  0.55556734  0.59561728  1
  H  H143  1  0.62134398  0.88539845  0.61975672  1
  H  H144  1  0.80358839  0.75150186  0.50378872  1
  H  H145  1  0.31334244  0.76545752  -0.00033012  1
  H  H146  1  0.03757368  0.74900830  1.00699245  1
  H  H147  1  0.05755151  0.58520226  0.50205850  1
  H  H148  1  0.95142625  0.41446768  1.00487790  1
  H  H149  1  0.70964585  0.57916192  0.49560692  1
  H  H150  1  0.96331509  0.58599019  -0.00610436  1
  H  H151  1  0.68485885  0.08307309  -0.00645846  1
  H  H152  1  0.96339635  0.75065279  0.49456084  1
  H  H153  1  0.14015720  0.91357577  -0.00764794  1
  H  H154  1  0.20416000  0.41366728  -0.01123947  1
  H  H155  1  0.16679073  0.25165767  1.00038151  1
  H  H156  1  0.18283513  0.76506262  0.00458948  1
  H  H157  1  0.08445897  0.25011898  0.49751074  1
  H  H158  1  0.66375908  0.08545555  0.49769924  1
  H  H159  1  0.54362908  0.58357028  0.50805812  1
  H  H160  1  0.32191249  0.41636199  0.50114857  1
  H  H161  1  0.64345241  0.75353136  0.48763360  1
  H  H162  1  0.56366291  0.77295105  0.97923768  1
  H  H163  1  0.36287763  0.58221254  0.51146840  1
  H  H164  1  0.32123843  0.07632358  0.49115642  1
  H  H165  1  0.20118531  0.07997904  -0.00414081  1
  H  H166  1  0.04780744  0.08121941  0.49277093  1
  H  H167  1  0.55996008  0.41848662  0.49627175  1
  H  H168  1  0.43620754  0.71467041  0.99968761  1
  H  H169  1  0.94493757  0.91629324  0.50719428  1
  H  H170  1  0.45479495  0.24889290  0.50276343  1
  H  H171  1  0.30868338  0.75082076  0.50446564  1
  H  H172  1  0.06905745  0.42324316  0.50356682  1
  H  H173  1  0.27705141  0.25490330  0.49262870  1
  H  H174  1  0.14848131  0.57949762  -0.00700147  1
  H  H175  1  0.16913317  0.08578320  0.49897950  1
  H  H176  1  0.79984973  0.92075872  0.49693355  1
  H  H177  1  0.47305997  0.08676227  0.49195881  1
  H  H178  1  0.39368959  0.41650230  0.99178056  1
  H  H179  1  0.63167450  0.91529873  -0.00876626  1
  H  H180  1  0.42128655  0.91169311  0.49674503  1
  H  H181  1  0.11804965  0.75140896  0.51538490  1
  H  H182  1  0.58342461  0.58293724  -0.00076150  1
  H  H183  1  0.78426409  0.58400565  1.00545917  1
  H  H184  1  0.54512689  0.40970173  1.01089986  1
  H  H185  1  0.70262330  0.74941695  -0.00643707  1
  H  H186  1  0.79669207  0.40510369  -0.00341408  1
  H  H187  1  0.03401187  0.08620132  1.00845818  1
  H  H188  1  0.84397044  0.08605811  0.00413469  1
  H  H189  1  0.20086306  0.58615984  0.49542279  1
  H  H190  1  0.89637365  0.58602336  0.48919639  1
  H  H191  1  0.91360270  0.40728199  0.50143655  1
  Pb  Pb192  1  0.25017498  0.05122944  0.74834071  1
  Pb  Pb193  1  0.24604636  0.38132890  0.74196392  1
  Pb  Pb194  1  0.24922558  0.71543933  0.76141452  1
  Pb  Pb195  1  0.74647927  0.04708794  0.75306404  1
  Pb  Pb196  1  0.75153537  0.38021244  0.75602095  1
  Pb  Pb197  1  0.74323688  0.71642094  0.74543851  1
  Pb  Pb198  1  0.24850318  0.28377721  0.25647593  1
  Pb  Pb199  1  0.24983641  0.61856686  0.25123562  1
  Pb  Pb200  1  0.25363888  0.95461512  0.24401257  1
  Pb  Pb201  1  0.75371664  0.28669620  0.24570754  1
  Pb  Pb202  1  0.74455464  0.61538900  0.24841220  1
  Pb  Pb203  1  0.74810607  0.95109868  0.25715519  1
  Pb  Pb204  1  -0.00455691  0.21294965  0.75123633  1
  Pb  Pb205  1  -0.00355460  0.55040463  0.75450573  1
  Pb  Pb206  1  -0.00526233  0.88181538  0.75043393  1
  Pb  Pb207  1  0.50054386  0.21672726  0.74110601  1
  Pb  Pb208  1  0.49967388  0.54616609  0.75053062  1
  Pb  Pb209  1  0.49439605  0.88150621  0.75259593  1
  Pb  Pb210  1  -0.00329403  0.11713184  0.24970658  1
  Pb  Pb211  1  0.00146294  0.45177970  0.24544797  1
  Pb  Pb212  1  0.00036994  0.78646610  0.25175876  1
  Pb  Pb213  1  0.50392165  0.12139655  0.25454415  1
  Pb  Pb214  1  0.49762886  0.44919330  0.25485828  1
  Pb  Pb215  1  0.49741163  0.78527053  0.23997931  1
  C  C216  1  0.00643328  0.04468354  0.63034795  1
  C  C217  1  -0.00256357  0.37914741  0.62694253  1
  C  C218  1  0.00151374  0.71114380  0.63141904  1
  C  C219  1  0.49914238  0.04382260  0.62979182  1
  C  C220  1  0.50273538  0.38020401  0.63335679  1
  C  C221  1  0.50498485  0.71197106  0.63552768  1
  C  C222  1  -0.00221367  0.28702217  0.13130173  1
  C  C223  1  -0.00314881  0.62297978  0.13266838  1
  C  C224  1  -0.00254369  0.95354603  0.13301638  1
  C  C225  1  0.50097879  0.28716626  0.12358582  1
  C  C226  1  0.50080253  0.61831129  0.13133900  1
  C  C227  1  0.50127795  0.95630954  0.13252634  1
  C  C228  1  -0.00134033  0.04352237  0.87179037  1
  C  C229  1  -0.00186341  0.37788327  0.86466888  1
  C  C230  1  0.00268074  0.71358598  0.86857904  1
  C  C231  1  0.49155682  0.04540344  0.86945349  1
  C  C232  1  0.50180025  0.37578979  0.87598160  1
  C  C233  1  0.49435129  0.71141224  0.86767111  1
  C  C234  1  0.00575829  0.28670675  0.37088211  1
  C  C235  1  -0.00540317  0.62070666  0.36395907  1
  C  C236  1  0.00367194  0.95326662  0.36795077  1
  C  C237  1  0.50513981  0.28877985  0.36789911  1
  C  C238  1  0.49471053  0.62274730  0.36738043  1
  C  C239  1  0.50336686  0.95241940  0.36831078  1
  C  C240  1  0.24736768  0.21414438  0.63105040  1
  C  C241  1  0.25441127  0.54566382  0.63421897  1
  C  C242  1  0.24177728  0.87912897  0.63114518  1
  C  C243  1  0.74504683  0.21260056  0.63057701  1
  C  C244  1  0.75103589  0.54216990  0.63204529  1
  C  C245  1  0.74914486  0.87919417  0.63093030  1
  C  C246  1  0.25570780  0.12423133  0.13194279  1
  C  C247  1  0.24878430  0.45562642  0.12895572  1
  C  C248  1  0.25576895  0.79483901  0.12867924  1
  C  C249  1  0.75316853  0.12347190  0.12829440  1
  C  C250  1  0.75520967  0.45490452  0.13340281  1
  C  C251  1  0.74942055  0.78899943  0.13289183  1
  C  C252  1  0.25199992  0.21155277  0.87080471  1
  C  C253  1  0.25269003  0.54513108  0.86959236  1
  C  C254  1  0.25019765  0.88284197  0.87127313  1
  C  C255  1  0.74735384  0.21260208  0.87455794  1
  C  C256  1  0.74747024  0.54497598  0.86805720  1
  C  C257  1  0.74471962  0.87985259  0.87215362  1
  C  C258  1  0.24702431  0.11776241  0.36468720  1
  C  C259  1  0.25391539  0.45371842  0.37090843  1
  C  C260  1  0.24860211  0.78938585  0.36623907  1
  C  C261  1  0.74774998  0.12190834  0.37287715  1
  C  C262  1  0.75286563  0.45457564  0.36921904  1
  C  C263  1  0.74615500  0.78858713  0.36461496  1
  C  C264  1  0.20848690  0.24072177  0.96322220  1
  C  C265  1  0.70689324  0.24248192  0.96547551  1
  C  C266  1  0.18911680  0.90547609  0.95965203  1
  C  C267  1  0.19365399  0.76651882  0.45606369  1
  C  C268  1  0.21642892  0.91075703  0.53721465  1
  C  C269  1  0.97806044  0.92680966  0.46507409  1
  C  C270  1  0.45682239  0.25859623  0.03321313  1
  C  C271  1  0.97454228  0.25449609  0.03748876  1
  C  C272  1  0.29012245  0.24114039  0.96374864  1
  C  C273  1  0.77150239  0.76193524  0.46128689  1
  C  C274  1  0.05911467  0.92790047  0.45704543  1
  C  C275  1  0.80211086  0.42095371  0.45666170  1
  C  C276  1  0.76940142  0.42033407  0.03960865  1
  C  C277  1  0.31333042  0.57187425  0.54623101  1
  C  C278  1  0.23251722  0.09255927  0.03812555  1
  C  C279  1  0.73163469  0.76116729  0.03704996  1
  C  C280  1  0.98038857  0.40468568  0.96079097  1
  C  C281  1  0.06720862  0.74146125  0.54868256  1
  C  C282  1  0.27643819  0.57349526  0.96571279  1
  C  C283  1  0.23431954  0.42715704  0.03118438  1
  C  C284  1  0.27453040  0.76280033  0.46335153  1
  C  C285  1  0.94378229  0.07581352  0.54530442  1
  C  C286  1  0.31411965  0.43257374  0.04324306  1
  C  C287  1  0.78784708  0.24261118  0.96544349  1
  C  C288  1  0.20605154  0.09511682  0.45856818  1
  C  C289  1  0.72033247  0.09395584  0.03437182  1
  C  C290  1  0.76305062  0.90864049  0.96883761  1
  C  C291  1  0.53756067  0.25803785  0.03141027  1
  C  C292  1  0.68986819  0.76324953  0.45356434  1
  C  C293  1  0.02333693  0.59530027  0.46051273  1
  C  C294  1  0.52697352  0.40708905  0.53814765  1
  C  C295  1  0.26964628  0.90683931  0.96912044  1
  C  C296  1  0.46212473  0.92321792  0.45915497  1
  C  C297  1  0.43285004  0.59853588  0.45460029  1
  C  C298  1  0.69180960  0.90997761  0.54361631  1
  C  C299  1  0.97015867  0.92193274  0.03934834  1
  C  C300  1  0.46694955  0.07928093  0.96239917  1
  C  C301  1  0.54215449  0.59250857  0.03715000  1
  C  C302  1  0.93117303  0.07301974  0.95451417  1
  C  C303  1  0.19545455  0.57080114  0.95879027  1
  C  C304  1  0.55144892  0.92833156  0.04383266  1
  C  C305  1  0.94167597  0.59553364  0.45419269  1
  C  C306  1  0.51322204  0.59503856  0.46498468  1
  C  C307  1  0.23196607  0.57397536  0.53781338  1
  C  C308  1  0.20572148  0.42576829  0.46270194  1
  C  C309  1  0.68252930  0.90616945  0.95921181  1
  C  C310  1  0.46059316  0.59191282  0.03780231  1
  C  C311  1  0.56249544  0.25686286  0.45467126  1
  N  N312  1  0.78556542  0.24250388  0.53856312  1
  N  N313  1  0.77022796  0.91117647  0.53741921  1
  N  N314  1  0.70936852  0.24392310  0.53783371  1
  N  N315  1  0.29381515  0.90807490  0.54083626  1
  N  N316  1  0.51975589  0.41349038  0.96759081  1
  N  N317  1  0.72487518  0.42032559  0.46386679  1
  N  N318  1  0.80993868  0.76381119  0.04495707  1
  N  N319  1  0.56957630  0.07395772  0.54927268  1
  N  N320  1  0.76039163  0.57687943  0.96153982  1
  N  N321  1  0.06256457  0.59595603  0.04893351  1
  N  N322  1  0.48409662  0.25678324  0.46146154  1
  N  N323  1  0.04543127  0.25847111  0.46099573  1
  N  N324  1  0.73482449  0.57494314  0.53911874  1
  N  N325  1  0.96733900  0.25844425  0.46415602  1
  N  N326  1  0.54133950  0.92280479  0.46213757  1
  N  N327  1  0.70424922  0.09295631  0.46183547  1
  N  N328  1  0.44789583  0.40542280  0.54313646  1
  N  N329  1  0.93768478  0.73941487  0.95350024  1
  N  N330  1  0.05874100  0.40483116  0.95195544  1
  N  N331  1  0.98901331  0.74503317  0.53760687  1
  N  N332  1  0.31122799  0.09523765  0.04333440  1
  N  N333  1  0.54399091  0.07703687  0.95860125  1
  N  N334  1  0.25494946  0.24261849  0.53609417  1
  N  N335  1  0.46457877  0.73803959  0.54216059  1
  N  N336  1  0.44272134  0.40008284  0.96171147  1
  N  N337  1  0.03306321  0.39787610  0.53218282  1
  N  N338  1  0.05166234  0.25695873  0.04224171  1
  N  N339  1  0.45710772  0.73679548  0.96122992  1
  N  N340  1  0.98606658  0.59283453  0.03839231  1
  N  N341  1  0.47459474  0.92520168  0.03671698  1
  N  N342  1  0.54003074  0.73538745  0.95922130  1
  N  N343  1  0.01453121  0.74214808  0.96320075  1
  N  N344  1  0.28494879  0.42568680  0.46440197  1
  N  N345  1  0.95483495  0.41154710  0.53797900  1
  N  N346  1  0.54078801  0.73810703  0.54096488  1
  N  N347  1  0.28571495  0.09584221  0.45819127  1
  N  N348  1  0.79969532  0.09298556  0.03954584  1
  N  N349  1  0.49337864  0.07840158  0.53681700  1
  N  N350  1  0.68341690  0.57358949  0.95220639  1
  N  N351  1  0.69132732  0.42394280  0.04898769  1
  N  N352  1  0.02164310  0.07544600  0.53546381  1
  N  N353  1  0.81203430  0.57244182  0.54737441  1
  N  N354  1  0.04741839  0.92410459  0.04273494  1
  N  N355  1  0.20979056  0.75155624  0.04524107  1
  N  N356  1  0.17865984  0.23825110  0.54760501  1
  N  N357  1  0.00853263  0.07754020  0.96585350  1
  N  N358  1  0.78222398  0.09156766  0.46643922  1
  N  N359  1  0.29179986  0.75173084  0.04214382  1
  N  N360  1  0.06155595  0.05419993  0.58725194  1
  N  N361  1  0.05990214  0.38964668  0.59079953  1
  N  N362  1  0.07479745  0.72194586  0.60742021  1
  N  N363  1  0.57233156  0.05453542  0.60792266  1
  N  N364  1  0.56208458  0.39169394  0.59300040  1
  N  N365  1  0.56737277  0.72188154  0.59882022  1
  N  N366  1  0.43432325  0.27620855  0.08952023  1
  N  N367  1  0.43587835  0.60727446  0.09463841  1
  N  N368  1  0.44324648  0.94329774  0.09313246  1
  N  N369  1  0.93911229  0.27249874  0.09077499  1
  N  N370  1  0.94456283  0.61174142  0.08808807  1
  N  N371  1  0.93722365  0.93984108  0.09358867  1
  N  N372  1  0.43193115  0.06017088  0.90919844  1
  N  N373  1  0.43134458  0.38557688  0.90250518  1
  N  N374  1  0.43271173  0.71305830  0.90638864  1
  N  N375  1  0.92476750  0.05329993  0.89578385  1
  N  N376  1  0.94147522  0.38873165  0.90756306  1
  N  N377  1  0.93094659  0.72351390  0.89394813  1
  N  N378  1  0.07030312  0.27608545  0.40476824  1
  N  N379  1  0.05489401  0.61094101  0.40382255  1
  N  N380  1  0.07389844  0.94358364  0.39832067  1
  N  N381  1  0.57577730  0.27616593  0.39667111  1
  N  N382  1  0.55090840  0.61031766  0.40935195  1
  N  N383  1  0.56537597  0.94102419  0.40504057  1
  N  N384  1  0.29832378  0.22726222  0.58609600  1
  N  N385  1  0.32539917  0.55432970  0.60642733  1
  N  N386  1  0.30957351  0.88829085  0.60089508  1
  N  N387  1  0.80917543  0.22328886  0.59594410  1
  N  N388  1  0.82143068  0.55470052  0.60596721  1
  N  N389  1  0.80689123  0.89041903  0.59043037  1
  N  N390  1  0.19670015  0.10981389  0.09226754  1
  N  N391  1  0.19436634  0.44200970  0.08594905  1
  N  N392  1  0.19003018  0.78179254  0.09718837  1
  N  N393  1  0.69119768  0.11203211  0.08968611  1
  N  N394  1  0.68437179  0.44545191  0.10728659  1
  N  N395  1  0.69269040  0.77613254  0.09076768  1
  N  N396  1  0.18606852  0.22229836  0.90419511  1
  N  N397  1  0.18209151  0.55326579  0.89778099  1
  N  N398  1  0.17847007  0.89051997  0.89769179  1
  N  N399  1  0.68215401  0.22428923  0.90995363  1
  N  N400  1  0.67613362  0.55584591  0.89350991  1
  N  N401  1  0.67276275  0.88831020  0.89775060  1
  N  N402  1  0.31075717  0.10641633  0.39919256  1
  N  N403  1  0.31536469  0.44352187  0.40814247  1
  N  N404  1  0.30773229  0.77738852  0.40588346  1
  N  N405  1  0.80885684  0.10889195  0.41049515  1
  N  N406  1  0.82154721  0.44168917  0.39928599  1
  N  N407  1  0.80515010  0.77773349  0.40551240  1
  N  N408  1  0.44765431  0.27799698  0.40872394  1
  N  N409  1  0.42208455  0.61500953  0.39529079  1
  N  N410  1  0.43730348  0.94113968  0.40187371  1
  N  N411  1  0.94310458  0.27510536  0.40746639  1
  N  N412  1  0.92534778  0.61115166  0.39411021  1
  N  N413  1  0.94447127  0.94275472  0.40831113  1
  N  N414  1  0.05116530  0.05671194  0.91547309  1
  N  N415  1  0.06786401  0.38791402  0.89217998  1
  N  N416  1  0.05591456  0.72420715  0.91275776  1
  N  N417  1  0.55944232  0.05524167  0.89929825  1
  N  N418  1  0.55728604  0.38859222  0.91804455  1
  N  N419  1  0.55896042  0.72814622  0.89852229  1
  N  N420  1  0.06631392  0.27752443  0.10208702  1
  N  N421  1  0.06875034  0.61266864  0.10810503  1
  N  N422  1  0.06472962  0.94380836  0.10217127  1
  N  N423  1  0.56466007  0.27525985  0.08662215  1
  N  N424  1  0.56603201  0.60901875  0.09664903  1
  N  N425  1  0.57070143  0.94661144  0.10208585  1
  N  N426  1  0.44910459  0.05754196  0.58440717  1
  N  N427  1  0.43475274  0.38894635  0.60287742  1
  N  N428  1  0.44098907  0.72191733  0.60039710  1
  N  N429  1  0.93430541  0.05722066  0.60401543  1
  N  N430  1  0.93226587  0.38903748  0.59339470  1
  N  N431  1  0.94836588  0.72327660  0.58756268  1
  N  N432  1  0.18164568  0.10998576  0.40106320  1
  N  N433  1  0.18651816  0.44247748  0.40453300  1
  N  N434  1  0.17816288  0.78215313  0.39723780  1
  N  N435  1  0.68188223  0.11209268  0.40548954  1
  N  N436  1  0.69398777  0.44170766  0.40792912  1
  N  N437  1  0.67578867  0.77954231  0.39341171  1
  N  N438  1  0.31618756  0.22366067  0.90799863  1
  N  N439  1  0.31060826  0.55803930  0.91200823  1
  N  N440  1  0.30642038  0.89345078  0.91587819  1
  N  N441  1  0.81259827  0.22457711  0.90983271  1
  N  N442  1  0.80072170  0.55657528  0.91176174  1
  N  N443  1  0.80047622  0.89285755  0.91652981  1
  N  N444  1  0.32394076  0.11499374  0.10173765  1
  N  N445  1  0.32228718  0.44948934  0.10271117  1
  N  N446  1  0.31773629  0.78114005  0.09300618  1
  N  N447  1  0.81968762  0.11252183  0.09685196  1
  N  N448  1  0.81022902  0.43935128  0.09084444  1
  N  N449  1  0.81929849  0.78092808  0.10455946  1
  N  N450  1  0.17455810  0.22112717  0.60685482  1
  N  N451  1  0.19644707  0.55759502  0.59284878  1
  N  N452  1  0.18215464  0.89359186  0.59141481  1
  N  N453  1  0.68265600  0.22549519  0.59486521  1
  N  N454  1  0.69641090  0.55352686  0.58927404  1
  N  N455  1  0.67847450  0.89056429  0.60161232  1
  Cl  Cl456  1  0.25915914  0.06068765  0.59763560  1
  Cl  Cl457  1  0.24551931  0.38734623  0.60544579  1
  Cl  Cl458  1  0.25806306  0.72349497  0.62968733  1
  Cl  Cl459  1  0.75232630  0.04688587  0.62212423  1
  Cl  Cl460  1  0.74953185  0.39298217  0.62393684  1
  Cl  Cl461  1  0.75954410  0.72513277  0.60924478  1
  Cl  Cl462  1  0.24989011  0.27842802  0.12623285  1
  Cl  Cl463  1  0.25298933  0.61296231  0.12017650  1
  Cl  Cl464  1  0.25532565  0.94203817  0.10868387  1
  Cl  Cl465  1  0.75274342  0.27638121  0.11190128  1
  Cl  Cl466  1  0.76254529  0.60458327  0.10379662  1
  Cl  Cl467  1  0.75429700  0.95067381  0.12497594  1
  Cl  Cl468  1  0.23724699  0.06189787  0.88433574  1
  Cl  Cl469  1  0.25225749  0.38202705  0.87399384  1
  Cl  Cl470  1  0.24585950  0.73243055  0.90177612  1
  Cl  Cl471  1  0.74322519  0.05578399  0.88737819  1
  Cl  Cl472  1  0.75044921  0.38923528  0.89275363  1
  Cl  Cl473  1  0.74224510  0.72177982  0.88066737  1
  Cl  Cl474  1  0.26156732  0.27740461  0.40048475  1
  Cl  Cl475  1  0.23773426  0.61148646  0.38459927  1
  Cl  Cl476  1  0.25546965  0.95048050  0.37516336  1
  Cl  Cl477  1  0.76051463  0.28291737  0.37692021  1
  Cl  Cl478  1  0.73546737  0.60173049  0.38729956  1
  Cl  Cl479  1  0.75659992  0.94259487  0.39475407  1
  Cl  Cl480  1  -0.00710730  0.21725473  0.61542153  1
  Cl  Cl481  1  0.01025777  0.55154797  0.62055419  1
  Cl  Cl482  1  -0.00757115  0.89102607  0.61283052  1
  Cl  Cl483  1  0.48403398  0.22634464  0.59878327  1
  Cl  Cl484  1  0.51614852  0.55614670  0.61612395  1
  Cl  Cl485  1  0.49342928  0.88689477  0.62012877  1
  Cl  Cl486  1  0.00876538  0.10699175  0.10796633  1
  Cl  Cl487  1  -0.00321257  0.44192866  0.11036369  1
  Cl  Cl488  1  0.00893009  0.77520613  0.11241013  1
  Cl  Cl489  1  0.50899709  0.11959952  0.12411301  1
  Cl  Cl490  1  0.50299135  0.43839976  0.11908458  1
  Cl  Cl491  1  0.50297100  0.77331579  0.10244650  1
  Cl  Cl492  1  -0.00138466  0.21413509  0.87922584  1
  Cl  Cl493  1  -0.01915671  0.56348246  0.89905425  1
  Cl  Cl494  1  -0.01593685  0.89041966  0.88146333  1
  Cl  Cl495  1  0.49812721  0.21784893  0.87241578  1
  Cl  Cl496  1  0.49272791  0.55142919  0.88377084  1
  Cl  Cl497  1  0.48714355  0.87928457  0.88408331  1
  Cl  Cl498  1  -0.00211144  0.10743080  0.38942539  1
  Cl  Cl499  1  0.00485538  0.44041763  0.38279431  1
  Cl  Cl500  1  -0.01002516  0.77577436  0.38949591  1
  Cl  Cl501  1  0.49419300  0.11045555  0.39807922  1
  Cl  Cl502  1  0.50460755  0.44220162  0.38915338  1
  Cl  Cl503  1  0.49154417  0.77873106  0.37010232  1
  Cl  Cl504  1  0.35152536  0.14789039  0.74945302  1
  Cl  Cl505  1  0.35900881  0.48133326  0.74357915  1
  Cl  Cl506  1  0.35503444  0.81821498  0.75217936  1
  Cl  Cl507  1  0.85598170  0.14855736  0.75347464  1
  Cl  Cl508  1  0.86067288  0.48253048  0.74811578  1
  Cl  Cl509  1  0.85609614  0.81623598  0.75219069  1
  Cl  Cl510  1  0.14419639  0.18843731  0.25404116  1
  Cl  Cl511  1  0.14010928  0.51777596  0.24976881  1
  Cl  Cl512  1  0.13756390  0.85595659  0.25146103  1
  Cl  Cl513  1  0.64415746  0.18477100  0.25897380  1
  Cl  Cl514  1  0.64263549  0.52191814  0.23885157  1
  Cl  Cl515  1  0.64326616  0.85404629  0.25187448  1
  Cl  Cl516  1  0.13128974  0.14567571  0.73910191  1
  Cl  Cl517  1  0.13501894  0.48048928  0.76217460  1
  Cl  Cl518  1  0.13326925  0.81315702  0.75585140  1
  Cl  Cl519  1  0.63643441  0.14874198  0.74484939  1
  Cl  Cl520  1  0.63921438  0.48147871  0.75749568  1
  Cl  Cl521  1  0.63704667  0.81358702  0.75016792  1
  Cl  Cl522  1  0.36381632  0.18494613  0.25993966  1
  Cl  Cl523  1  0.36246604  0.51819390  0.24840679  1
  Cl  Cl524  1  0.36013578  0.85095324  0.24525463  1
  Cl  Cl525  1  0.86179821  0.18216873  0.24592010  1
  Cl  Cl526  1  0.86350565  0.51931360  0.25823582  1
  Cl  Cl527  1  0.86280387  0.85182527  0.24679936  1
  Cl  Cl528  1  0.11184841  0.31129662  0.74402843  1
  Cl  Cl529  1  0.11468547  0.64679749  0.74868824  1
  Cl  Cl530  1  0.10614408  0.98049715  0.75180519  1
  Cl  Cl531  1  0.60233583  0.31494391  0.75142682  1
  Cl  Cl532  1  0.60954552  0.64769726  0.76099617  1
  Cl  Cl533  1  0.60918539  0.98037923  0.75102609  1
  Cl  Cl534  1  0.39290674  0.02009774  0.24929122  1
  Cl  Cl535  1  0.39620168  0.35308566  0.24970884  1
  Cl  Cl536  1  0.38883316  0.68485330  0.24698144  1
  Cl  Cl537  1  0.89782119  0.01960030  0.25117063  1
  Cl  Cl538  1  0.89645422  0.34827001  0.25222791  1
  Cl  Cl539  1  0.89196070  0.68584790  0.25018433  1
  Cl  Cl540  1  0.38281458  0.31425887  0.74480176  1
  Cl  Cl541  1  0.38798785  0.64794799  0.75240492  1
  Cl  Cl542  1  0.38668346  0.98385328  0.74769843  1
  Cl  Cl543  1  0.89280190  0.31877081  0.74454110  1
  Cl  Cl544  1  0.89339704  0.64886792  0.74986520  1
  Cl  Cl545  1  0.88495913  0.98352560  0.74855102  1
  Cl  Cl546  1  0.11885899  0.02293180  0.25251521  1
  Cl  Cl547  1  0.11688764  0.35300654  0.25370229  1
  Cl  Cl548  1  0.11494784  0.68784188  0.24311492  1
  Cl  Cl549  1  0.61177878  0.01806941  0.25557502  1
  Cl  Cl550  1  0.61519470  0.35218900  0.24923720  1
  Cl  Cl551  1  0.61224594  0.68532315  0.24728454  1
