# generated using pymatgen
data_H8PbC4(N3Cl2)2
_symmetry_space_group_name_H-M   'P 1'
_cell_length_a   16.62212798
_cell_length_b   22.49867720
_cell_length_c   21.58831376
_cell_angle_alpha   89.99956063
_cell_angle_beta   90.00096713
_cell_angle_gamma   89.99807626
_symmetry_Int_Tables_number   1
_chemical_formula_structural   H8PbC4(N3Cl2)2
_chemical_formula_sum   'H192 Pb24 C96 N144 Cl96'
_cell_volume   8073.50888354
_cell_formula_units_Z   24
loop_
 _symmetry_equiv_pos_site_id
 _symmetry_equiv_pos_as_xyz
  1  'x, y, z'
loop_
 _atom_site_type_symbol
 _atom_site_label
 _atom_site_symmetry_multiplicity
 _atom_site_fract_x
 _atom_site_fract_y
 _atom_site_fract_z
 _atom_site_occupancy
  H  H0  1  -0.00342510  0.03126388  0.68048471  1
  H  H1  1  -0.00008736  0.36594337  0.68029503  1
  H  H2  1  0.00693646  0.70116514  0.68229241  1
  H  H3  1  0.50123959  0.03243181  0.68310216  1
  H  H4  1  0.50394777  0.36530162  0.67913083  1
  H  H5  1  0.49658240  0.69919316  0.68231708  1
  H  H6  1  0.00239858  0.30053208  0.18257596  1
  H  H7  1  0.00111224  0.63409646  0.18107078  1
  H  H8  1  -0.00099881  0.96564793  0.18185978  1
  H  H9  1  0.49717000  0.30093615  0.18173345  1
  H  H10  1  0.49382655  0.63491646  0.18179825  1
  H  H11  1  0.49814673  0.96694851  0.18011830  1
  H  H12  1  0.00678434  0.03348243  0.81746848  1
  H  H13  1  -0.00096684  0.36653332  0.81796595  1
  H  H14  1  -0.00341135  0.69801243  0.82130147  1
  H  H15  1  0.50116367  0.03237570  0.82012230  1
  H  H16  1  0.50421678  0.36672654  0.81938735  1
  H  H17  1  0.50375369  0.69919193  0.82040623  1
  H  H18  1  0.00418551  0.30065338  0.31892375  1
  H  H19  1  -0.00700436  0.63469613  0.31891492  1
  H  H20  1  -0.00069220  0.96753526  0.32016072  1
  H  H21  1  0.50016149  0.29946553  0.31952197  1
  H  H22  1  0.49968638  0.63318665  0.31865558  1
  H  H23  1  0.50300066  0.96691735  0.31912685  1
  H  H24  1  0.24792950  0.19928202  0.68208776  1
  H  H25  1  0.24956686  0.53321079  0.68054430  1
  H  H26  1  0.24530440  0.86671751  0.68262897  1
  H  H27  1  0.74571750  0.19992011  0.68145791  1
  H  H28  1  0.75640011  0.53218484  0.68207461  1
  H  H29  1  0.75183962  0.86639868  0.68042965  1
  H  H30  1  0.24568343  0.13323263  0.18079325  1
  H  H31  1  0.24044086  0.46643904  0.18249057  1
  H  H32  1  0.24965175  0.80233167  0.17926264  1
  H  H33  1  0.75066868  0.13401389  0.18224039  1
  H  H34  1  0.75549083  0.46734083  0.17964353  1
  H  H35  1  0.75167401  0.79993611  0.18159754  1
  H  H36  1  0.24686647  0.19933178  0.81864070  1
  H  H37  1  0.25199590  0.53392636  0.81812890  1
  H  H38  1  0.24927028  0.86570024  0.81903555  1
  H  H39  1  0.74922148  0.19843541  0.81801441  1
  H  H40  1  0.74986112  0.53293013  0.81882483  1
  H  H41  1  0.75406804  0.86650095  0.81924553  1
  H  H42  1  0.24656184  0.13279430  0.31899307  1
  H  H43  1  0.24690162  0.46743787  0.31969683  1
  H  H44  1  0.25159930  0.80247455  0.31789526  1
  H  H45  1  0.75340539  0.13436299  0.31849433  1
  H  H46  1  0.74700230  0.46646841  0.31893649  1
  H  H47  1  0.74417155  0.80088230  0.31806881  1
  H  H48  1  0.12901141  0.05255437  0.61683582  1
  H  H49  1  0.11876515  0.38966402  0.60440914  1
  H  H50  1  0.11646517  0.72295381  0.60118633  1
  H  H51  1  0.62612677  0.05310090  0.60966302  1
  H  H52  1  0.61470983  0.39068464  0.59770619  1
  H  H53  1  0.62436302  0.72091218  0.61332285  1
  H  H54  1  0.37497411  0.27917710  0.10639623  1
  H  H55  1  0.37942073  0.61041461  0.10165027  1
  H  H56  1  0.37932164  0.94422264  0.10376507  1
  H  H57  1  0.87148830  0.28205932  0.11880634  1
  H  H58  1  0.87620381  0.61219021  0.10869783  1
  H  H59  1  0.88104084  0.94548713  0.10683606  1
  H  H60  1  0.37296112  0.05336217  0.88855500  1
  H  H61  1  0.37587588  0.38562210  0.88406509  1
  H  H62  1  0.37442275  0.72020524  0.88800609  1
  H  H63  1  0.87023489  0.05128386  0.87570232  1
  H  H64  1  0.87485010  0.38753701  0.88859891  1
  H  H65  1  0.88198084  0.72350376  0.89909293  1
  H  H66  1  0.11999651  0.27719735  0.39535899  1
  H  H67  1  0.12793998  0.61514112  0.37924152  1
  H  H68  1  0.12438244  0.94711634  0.39159276  1
  H  H69  1  0.62306904  0.27820522  0.39178111  1
  H  H70  1  0.62439135  0.61267693  0.38722936  1
  H  H71  1  0.62599696  0.94589010  0.39107820  1
  H  H72  1  0.37878762  0.22017199  0.61460211  1
  H  H73  1  0.37183644  0.55436722  0.60695478  1
  H  H74  1  0.37400327  0.88676034  0.61309281  1
  H  H75  1  0.87768211  0.22115621  0.61518058  1
  H  H76  1  0.86984586  0.55616307  0.60065306  1
  H  H77  1  0.87522251  0.88765281  0.60861061  1
  H  H78  1  0.13114907  0.10962588  0.10342253  1
  H  H79  1  0.13136555  0.44478617  0.10108241  1
  H  H80  1  0.12387230  0.77975450  0.10915815  1
  H  H81  1  0.62694510  0.11321321  0.11209531  1
  H  H82  1  0.62231928  0.44751343  0.11753199  1
  H  H83  1  0.62050585  0.78139841  0.11690763  1
  H  H84  1  0.12945768  0.22254903  0.89683861  1
  H  H85  1  0.12085424  0.55209858  0.88260525  1
  H  H86  1  0.12458456  0.88806065  0.89179420  1
  H  H87  1  0.62652682  0.22141068  0.88975589  1
  H  H88  1  0.62551382  0.55252939  0.88805054  1
  H  H89  1  0.62055644  0.88464398  0.88148171  1
  H  H90  1  0.37258886  0.11444135  0.38665801  1
  H  H91  1  0.38162003  0.44765059  0.38184131  1
  H  H92  1  0.37468993  0.77745373  0.39041647  1
  H  H93  1  0.86995772  0.10901598  0.39604938  1
  H  H94  1  0.87891223  0.44709804  0.38388265  1
  H  H95  1  0.87917255  0.78329932  0.37620676  1
  H  H96  1  0.37399959  0.27872964  0.39007514  1
  H  H97  1  0.37525008  0.61276061  0.38931214  1
  H  H98  1  0.37669495  0.94870431  0.38650876  1
  H  H99  1  0.87077277  0.28158016  0.38279416  1
  H  H100  1  0.88154930  0.60915711  0.40115580  1
  H  H101  1  0.87517026  0.94464558  0.39055443  1
  H  H102  1  0.11791882  0.05464348  0.89736611  1
  H  H103  1  0.12514141  0.38883073  0.88816093  1
  H  H104  1  0.12927914  0.71660230  0.88413518  1
  H  H105  1  0.62157437  0.05534774  0.89325455  1
  H  H106  1  0.62447310  0.38870317  0.89367442  1
  H  H107  1  0.62251614  0.72180296  0.89683994  1
  H  H108  1  0.12085511  0.27905375  0.10781826  1
  H  H109  1  0.12490532  0.61206032  0.10742236  1
  H  H110  1  0.13046925  0.94726794  0.11708412  1
  H  H111  1  0.62416347  0.28089252  0.11257090  1
  H  H112  1  0.62695694  0.61545588  0.11832484  1
  H  H113  1  0.62795756  0.94638946  0.11404670  1
  H  H114  1  0.37761073  0.05382750  0.60950769  1
  H  H115  1  0.36757648  0.38440240  0.62152031  1
  H  H116  1  0.37404334  0.71976461  0.60975864  1
  H  H117  1  0.88105146  0.05545088  0.60057641  1
  H  H118  1  0.86994528  0.38757116  0.61542692  1
  H  H119  1  0.86903100  0.71806869  0.62518088  1
  H  H120  1  0.12327577  0.11158966  0.39124629  1
  H  H121  1  0.13308708  0.44345491  0.39807175  1
  H  H122  1  0.12497159  0.78237968  0.38570031  1
  H  H123  1  0.62098745  0.11587592  0.38138151  1
  H  H124  1  0.63118214  0.44289294  0.39860086  1
  H  H125  1  0.63151384  0.77892240  0.39763621  1
  H  H126  1  0.37774389  0.21939913  0.88454367  1
  H  H127  1  0.37019427  0.55361023  0.89308257  1
  H  H128  1  0.37328799  0.88771425  0.89225415  1
  H  H129  1  0.87535110  0.21994146  0.88877079  1
  H  H130  1  0.87479025  0.55364948  0.88866297  1
  H  H131  1  0.86965795  0.88987987  0.89827332  1
  H  H132  1  0.38015134  0.11390184  0.11800395  1
  H  H133  1  0.37846195  0.44953282  0.12619394  1
  H  H134  1  0.37256551  0.77977234  0.10843989  1
  H  H135  1  0.87626645  0.11328988  0.11372594  1
  H  H136  1  0.87077818  0.44347048  0.10076253  1
  H  H137  1  0.86970698  0.77843076  0.10715273  1
  H  H138  1  0.12946340  0.22107428  0.60574136  1
  H  H139  1  0.12359536  0.55433064  0.60922210  1
  H  H140  1  0.12541854  0.88834878  0.60550239  1
  H  H141  1  0.62956448  0.22310270  0.60210170  1
  H  H142  1  0.62281364  0.55095467  0.61935768  1
  H  H143  1  0.62616153  0.88762091  0.60899631  1
  H  H144  1  0.93654069  0.92098670  -0.00482566  1
  H  H145  1  0.31493098  0.57994524  1.00430421  1
  H  H146  1  0.07677883  0.41478806  0.99457046  1
  H  H147  1  0.16927518  0.75850693  0.49940691  1
  H  H148  1  0.42725420  0.73948260  0.49634514  1
  H  H149  1  0.33093859  0.08548997  0.49948363  1
  H  H150  1  0.66981014  0.58206672  0.99988241  1
  H  H151  1  0.05834794  0.41610725  0.49962059  1
  H  H152  1  0.69723994  0.41699498  0.50094858  1
  H  H153  1  0.66997957  0.08553573  0.00160526  1
  H  H154  1  0.80884660  0.08606393  0.50023582  1
  H  H155  1  0.05399801  0.07943642  1.00621221  1
  H  H156  1  0.41780906  0.75020476  0.99306754  1
  H  H157  1  0.44729376  0.58379821  -0.00026155  1
  H  H158  1  0.92323703  0.41307806  1.00077123  1
  H  H159  1  0.09600910  0.75222694  0.98797246  1
  H  H160  1  0.06096332  0.25010411  0.50463697  1
  H  H161  1  0.90528046  0.25344707  0.48951367  1
  H  H162  1  0.41754833  0.92095698  0.49953576  1
  H  H163  1  0.81445056  0.75040125  -0.00362611  1
  H  H164  1  0.83773757  0.08557973  0.00219647  1
  H  H165  1  0.80111318  0.58059665  0.49884802  1
  H  H166  1  0.54541058  0.41573449  0.49570071  1
  H  H167  1  0.65347553  0.08576832  0.49306030  1
  H  H168  1  0.80532038  0.41949943  -0.00348343  1
  H  H169  1  0.19866706  0.42110121  -0.00737646  1
  H  H170  1  0.64991266  0.91330231  0.99406361  1
  H  H171  1  0.18898454  0.24509871  0.49663419  1
  H  H172  1  0.69505147  0.75692134  0.50701144  1
  H  H173  1  0.19423373  0.24866263  1.00005724  1
  H  H174  1  0.90413907  0.25167030  0.00734091  1
  H  H175  1  0.85759514  0.75426330  0.49036494  1
  H  H176  1  0.94900072  0.07820818  0.49752462  1
  H  H177  1  0.57807369  0.74465274  0.50590586  1
  H  H178  1  0.80685754  0.91491218  1.00169248  1
  H  H179  1  0.58002768  0.25253719  0.00279067  1
  H  H180  1  0.34754882  0.08504038  0.01144611  1
  H  H181  1  0.31984304  0.76226538  0.49805788  1
  H  H182  1  0.58105326  0.58448036  0.49957094  1
  H  H183  1  0.17163378  0.58312325  0.50523581  1
  H  H184  1  0.19185278  0.08255158  -0.00530396  1
  H  H185  1  0.19551414  0.41728506  0.50633560  1
  H  H186  1  0.06660909  0.25159329  -0.00222627  1
  H  H187  1  0.04952060  0.74902527  0.49308950  1
  H  H188  1  0.40946919  0.41527573  0.99789704  1
  H  H189  1  0.35226192  0.42007479  0.49024513  1
  H  H190  1  0.95256648  0.58581930  0.50244926  1
  H  H191  1  0.94832257  0.73494394  1.00322942  1
  Pb  Pb192  1  0.25412480  0.04798364  0.75380731  1
  Pb  Pb193  1  0.24972461  0.38110505  0.74803248  1
  Pb  Pb194  1  0.24825702  0.71341809  0.74506491  1
  Pb  Pb195  1  0.74887101  0.04672595  0.74486552  1
  Pb  Pb196  1  0.74706263  0.38050012  0.74911283  1
  Pb  Pb197  1  0.74793361  0.71670806  0.75428234  1
  Pb  Pb198  1  0.25225752  0.28475774  0.24833662  1
  Pb  Pb199  1  0.25024005  0.61806915  0.24772359  1
  Pb  Pb200  1  0.25281576  0.95477080  0.25180389  1
  Pb  Pb201  1  0.74808944  0.28484582  0.24972094  1
  Pb  Pb202  1  0.75332110  0.62080579  0.25413303  1
  Pb  Pb203  1  0.74873179  0.95194844  0.24518843  1
  Pb  Pb204  1  0.00205111  0.21398345  0.75035712  1
  Pb  Pb205  1  -0.00333973  0.54761723  0.74272515  1
  Pb  Pb206  1  0.00220707  0.88217257  0.75118445  1
  Pb  Pb207  1  0.50202647  0.21341921  0.75025840  1
  Pb  Pb208  1  0.49854807  0.54826039  0.75230976  1
  Pb  Pb209  1  0.49703030  0.87977055  0.74818147  1
  Pb  Pb210  1  0.00117621  0.11679688  0.25216183  1
  Pb  Pb211  1  -0.00085700  0.44979629  0.24735457  1
  Pb  Pb212  1  0.00341586  0.78766966  0.24326636  1
  Pb  Pb213  1  0.50004997  0.12000289  0.25025928  1
  Pb  Pb214  1  0.50442774  0.45302653  0.25644106  1
  Pb  Pb215  1  0.49728656  0.78552304  0.25350365  1
  C  C216  1  0.00176540  0.04602835  0.63285302  1
  C  C217  1  -0.00356585  0.38040853  0.63256516  1
  C  C218  1  -0.00226360  0.71406303  0.63440778  1
  C  C219  1  0.50185455  0.04609882  0.63492546  1
  C  C220  1  0.49549711  0.37937866  0.63151539  1
  C  C221  1  0.49874136  0.71349394  0.63421063  1
  C  C222  1  -0.00198687  0.28664323  0.13451298  1
  C  C223  1  0.00086561  0.61957742  0.13313106  1
  C  C224  1  0.00318085  0.95243728  0.13373885  1
  C  C225  1  0.49853573  0.28655006  0.13381742  1
  C  C226  1  0.49975085  0.62034730  0.13413971  1
  C  C227  1  0.50175384  0.95246373  0.13251243  1
  C  C228  1  -0.00154090  0.04667457  0.86531413  1
  C  C229  1  0.00014196  0.38112908  0.86597613  1
  C  C230  1  0.00269248  0.71275361  0.86905307  1
  C  C231  1  0.49815909  0.04691841  0.86767498  1
  C  C232  1  0.50089202  0.38060768  0.86733762  1
  C  C233  1  0.49996049  0.71403681  0.86812628  1
  C  C234  1  -0.00234819  0.28595409  0.36665042  1
  C  C235  1  0.00059205  0.62000921  0.36644061  1
  C  C236  1  -0.00018378  0.95297778  0.36779063  1
  C  C237  1  0.49879888  0.28538883  0.36735875  1
  C  C238  1  0.50033440  0.61936279  0.36668492  1
  C  C239  1  0.50134613  0.95327231  0.36718969  1
  C  C240  1  0.25217548  0.21363232  0.63426641  1
  C  C241  1  0.24790988  0.54792867  0.63270855  1
  C  C242  1  0.24824320  0.88064394  0.63457500  1
  C  C243  1  0.75114109  0.21428062  0.63364540  1
  C  C244  1  0.75001933  0.54653682  0.63439093  1
  C  C245  1  0.75077073  0.88085569  0.63266480  1
  C  C246  1  0.25290101  0.11895396  0.13300706  1
  C  C247  1  0.24987254  0.45328287  0.13473459  1
  C  C248  1  0.24834256  0.78727095  0.13183191  1
  C  C249  1  0.75141177  0.11970178  0.13419762  1
  C  C250  1  0.74986685  0.45342749  0.13183520  1
  C  C251  1  0.74759435  0.78647193  0.13358557  1
  C  C252  1  0.25102112  0.21361893  0.86650596  1
  C  C253  1  0.24790875  0.54687905  0.86633548  1
  C  C254  1  0.24890986  0.88036492  0.86686676  1
  C  C255  1  0.75080079  0.21333180  0.86551202  1
  C  C256  1  0.74953865  0.54682990  0.86681033  1
  C  C257  1  0.74835783  0.88063680  0.86724135  1
  C  C258  1  0.24800408  0.11935148  0.36711277  1
  C  C259  1  0.25472426  0.45287075  0.36733052  1
  C  C260  1  0.25110466  0.78743507  0.36576980  1
  C  C261  1  0.74836620  0.11982618  0.36632896  1
  C  C262  1  0.75212547  0.45233910  0.36679836  1
  C  C263  1  0.75198023  0.78691622  0.36584222  1
  C  C264  1  0.22425052  0.09282786  0.03715903  1
  C  C265  1  0.22298017  0.23703792  0.53888329  1
  C  C266  1  0.43695621  0.40553553  0.54354753  1
  C  C267  1  0.95975954  0.40545952  0.95969875  1
  C  C268  1  0.27917264  0.57056628  0.96325273  1
  C  C269  1  0.28550005  0.75992332  0.03865188  1
  C  C270  1  0.01832893  0.73874593  0.53611695  1
  C  C271  1  0.69749975  0.76259958  0.04224768  1
  C  C272  1  0.94633068  0.40790179  0.54135333  1
  C  C273  1  0.96268784  0.92500488  0.46008464  1
  C  C274  1  0.54644978  0.92637017  0.04105407  1
  C  C275  1  0.53622398  0.40623909  0.96210433  1
  C  C276  1  0.70976491  0.57190012  0.96150587  1
  C  C277  1  0.94034576  0.06940219  0.95434609  1
  C  C278  1  0.19789862  0.56978040  0.95786145  1
  C  C279  1  0.45460333  0.40544790  0.96064750  1
  C  C280  1  0.03057243  0.26163056  0.03850986  1
  C  C281  1  0.02127977  0.07058614  0.96352590  1
  C  C282  1  0.78740950  0.90670848  0.53928745  1
  C  C283  1  0.69525611  0.90408747  0.95755723  1
  C  C284  1  0.20655908  0.76247445  0.45817638  1
  C  C285  1  0.22736644  0.42700526  0.46345217  1
  C  C286  1  0.72709610  0.76385655  0.46359532  1
  C  C287  1  0.20850788  0.09467970  0.46126494  1
  C  C288  1  0.45880162  0.92942790  0.46147674  1
  C  C289  1  0.79132742  0.57202017  0.96019258  1
  C  C290  1  0.46070124  0.73686557  0.53959944  1
  C  C291  1  0.71427674  0.24058981  0.95896909  1
  C  C292  1  0.53433649  0.25907861  0.46060320  1
  C  C293  1  0.22989836  0.42946899  0.03609860  1
  C  C294  1  0.69575158  0.42687164  0.04175219  1
  C  C295  1  0.79388595  0.09559919  0.04000511  1
  C  C296  1  0.54073264  0.59465087  0.46137786  1
  C  C297  1  0.53205790  0.07400472  0.96174759  1
  C  C298  1  0.77890419  0.76106925  0.03720514  1
  C  C299  1  0.29007836  0.09510335  0.46145559  1
  C  C300  1  0.53896540  0.26238756  0.04114861  1
  C  C301  1  0.45911141  0.59500369  0.46053355  1
  C  C302  1  0.97201450  0.92929659  0.03662341  1
  C  C303  1  0.94858826  0.26205889  0.04280944  1
  C  C304  1  0.31064330  0.43087546  0.04659150  1
  C  C305  1  0.93772625  0.73692059  0.54625662  1
  C  C306  1  0.80864420  0.76422856  0.45580166  1
  C  C307  1  0.02798638  0.26000863  0.46229638  1
  C  C308  1  0.54036613  0.92849426  0.46138469  1
  C  C309  1  0.71161269  0.09531978  0.03950246  1
  C  C310  1  0.05322839  0.92980882  0.04214303  1
  C  C311  1  0.69683234  0.09461235  0.45647602  1
  N  N312  1  0.04017155  0.92572136  0.46172920  1
  N  N313  1  0.55414767  0.59655602  0.04441734  1
  N  N314  1  0.97516253  0.74473515  0.96163066  1
  N  N315  1  0.72708098  0.42803993  0.46101309  1
  N  N316  1  0.72238294  0.23973562  0.53761269  1
  N  N317  1  0.97752946  0.07308699  0.53934781  1
  N  N318  1  0.22438449  0.23928948  0.95999709  1
  N  N319  1  0.30645901  0.42876809  0.45661142  1
  N  N320  1  0.45775468  0.73843510  0.95876311  1
  N  N321  1  0.94869114  0.26158723  0.45650012  1
  N  N322  1  0.30202139  0.23736386  0.54204272  1
  N  N323  1  0.05527778  0.07179896  0.54329727  1
  N  N324  1  0.47639998  0.59470819  0.03999837  1
  N  N325  1  0.77238621  0.57171326  0.53993342  1
  N  N326  1  0.77448998  0.42641014  0.03696693  1
  N  N327  1  0.54065117  0.07104642  0.54081525  1
  N  N328  1  0.29193528  0.90455640  0.54151256  1
  N  N329  1  0.03825476  0.59418107  0.03886803  1
  N  N330  1  0.46899513  0.92505224  0.03653290  1
  N  N331  1  0.30222528  0.23828753  0.95719655  1
  N  N332  1  0.05831345  0.59657424  0.45515366  1
  N  N333  1  0.30343279  0.09472969  0.04358120  1
  N  N334  1  0.28663122  0.90619403  0.96090001  1
  N  N335  1  0.51537277  0.40759192  0.53636808  1
  N  N336  1  0.21547154  0.90529415  0.53904741  1
  N  N337  1  0.02520959  0.40755901  0.53856850  1
  N  N338  1  0.96203135  0.59457830  0.03911642  1
  N  N339  1  0.77625067  0.09107083  0.46019992  1
  N  N340  1  0.80490262  0.42985812  0.45769079  1
  N  N341  1  0.20970224  0.57101486  0.54060288  1
  N  N342  1  0.54002061  0.73927774  0.54259295  1
  N  N343  1  0.28630287  0.75859784  0.45843574  1
  N  N344  1  0.20735025  0.75977228  0.03787272  1
  N  N345  1  0.03924762  0.40639413  0.95825713  1
  N  N346  1  0.46421850  0.07084760  0.54053710  1
  N  N347  1  0.45973800  0.26237844  0.03850071  1
  N  N348  1  0.21048858  0.90621631  0.96076487  1
  N  N349  1  0.45693816  0.25951983  0.46148493  1
  N  N350  1  0.69468188  0.56942116  0.54465248  1
  N  N351  1  0.98059156  0.59326070  0.46081815  1
  N  N352  1  0.28792483  0.57189476  0.53829185  1
  N  N353  1  0.53577244  0.73961831  0.96307360  1
  N  N354  1  0.77471862  0.90596241  0.96226738  1
  N  N355  1  0.05386827  0.73365644  0.95862196  1
  N  N356  1  0.71007225  0.90666079  0.53805207  1
  N  N357  1  0.45415102  0.07324338  0.96114203  1
  N  N358  1  0.79209237  0.23980337  0.95967430  1
  N  N359  1  0.79875922  0.23893530  0.54184637  1
  N  N360  1  0.06988007  0.05638238  0.60216382  1
  N  N361  1  0.05730923  0.38964868  0.59437940  1
  N  N362  1  0.05495099  0.72414265  0.59240909  1
  N  N363  1  0.56539325  0.05551893  0.59917472  1
  N  N364  1  0.55245347  0.38951266  0.59029012  1
  N  N365  1  0.56357099  0.72324961  0.60038014  1
  N  N366  1  0.43621140  0.27739078  0.09657803  1
  N  N367  1  0.44140800  0.60934248  0.09414352  1
  N  N368  1  0.44109766  0.94141937  0.09486618  1
  N  N369  1  0.93002535  0.27748605  0.10258983  1
  N  N370  1  0.93720771  0.60988620  0.09755263  1
  N  N371  1  0.94170848  0.94341170  0.09508545  1
  N  N372  1  0.43313128  0.05598532  0.90132077  1
  N  N373  1  0.43419980  0.38939356  0.90032931  1
  N  N374  1  0.43447070  0.72399877  0.90117397  1
  N  N375  1  0.92729786  0.05503316  0.89491468  1
  N  N376  1  0.93501784  0.39016407  0.90226437  1
  N  N377  1  0.94337612  0.72136936  0.90893466  1
  N  N378  1  0.05874134  0.27492246  0.40640008  1
  N  N379  1  0.06984111  0.61114470  0.39579441  1
  N  N380  1  0.06349208  0.94352991  0.40300664  1
  N  N381  1  0.56289016  0.27492602  0.40411673  1
  N  N382  1  0.56527871  0.60998024  0.40168427  1
  N  N383  1  0.56589794  0.94278559  0.40453456  1
  N  N384  1  0.31852444  0.22279198  0.60148733  1
  N  N385  1  0.31106540  0.55708373  0.59589032  1
  N  N386  1  0.31350681  0.88985947  0.60077326  1
  N  N387  1  0.81783390  0.22326466  0.60158232  1
  N  N388  1  0.80786042  0.55695336  0.59382452  1
  N  N389  1  0.81520075  0.89112282  0.59614021  1
  N  N390  1  0.19243470  0.10804776  0.09261205  1
  N  N391  1  0.19287013  0.44344731  0.09249972  1
  N  N392  1  0.18439468  0.77703827  0.09734007  1
  N  N393  1  0.68693482  0.11015471  0.09851187  1
  N  N394  1  0.68049357  0.44318768  0.10046890  1
  N  N395  1  0.67915704  0.77773407  0.10043928  1
  N  N396  1  0.19122344  0.22346002  0.90553382  1
  N  N397  1  0.17943885  0.55566828  0.89942588  1
  N  N398  1  0.18537255  0.89037502  0.90249206  1
  N  N399  1  0.68693504  0.22456455  0.90212641  1
  N  N400  1  0.68489173  0.55602921  0.90212842  1
  N  N401  1  0.67896588  0.88886754  0.89832935  1
  N  N402  1  0.31339596  0.11062006  0.40166532  1
  N  N403  1  0.32288334  0.44493624  0.39753846  1
  N  N404  1  0.31379931  0.77791723  0.40198921  1
  N  N405  1  0.80803781  0.10910197  0.40518751  1
  N  N406  1  0.82000352  0.44431702  0.39849355  1
  N  N407  1  0.82209840  0.77849906  0.39492604  1
  N  N408  1  0.43451542  0.27597146  0.40201830  1
  N  N409  1  0.43513564  0.60964953  0.40339299  1
  N  N410  1  0.43573234  0.94472632  0.40156457  1
  N  N411  1  0.93025968  0.27744314  0.39762737  1
  N  N412  1  0.94384451  0.60970344  0.40789661  1
  N  N413  1  0.93513895  0.94138892  0.40354435  1
  N  N414  1  0.05649070  0.05637531  0.90672474  1
  N  N415  1  0.06425589  0.39091522  0.90068085  1
  N  N416  1  0.07056151  0.72318008  0.89903867  1
  N  N417  1  0.56101880  0.05817356  0.90535761  1
  N  N418  1  0.56398451  0.39129195  0.90582537  1
  N  N419  1  0.56154511  0.72387198  0.90635474  1
  N  N420  1  0.06002163  0.27696191  0.09615986  1
  N  N421  1  0.06398629  0.60956797  0.09709052  1
  N  N422  1  0.07167042  0.94358945  0.10069018  1
  N  N423  1  0.56422829  0.27688409  0.09933567  1
  N  N424  1  0.56796812  0.61221827  0.10316077  1
  N  N425  1  0.56903433  0.94292231  0.09925089  1
  N  N426  1  0.43877762  0.05550712  0.59866262  1
  N  N427  1  0.42431347  0.38884195  0.60268043  1
  N  N428  1  0.43432935  0.72204942  0.59684465  1
  N  N429  1  0.94298667  0.05541487  0.59274737  1
  N  N430  1  0.92819982  0.39123080  0.59948088  1
  N  N431  1  0.92585805  0.72208815  0.60575618  1
  N  N432  1  0.18327444  0.10928667  0.40436288  1
  N  N433  1  0.19477045  0.44179653  0.40807912  1
  N  N434  1  0.18456498  0.77800746  0.40042552  1
  N  N435  1  0.67944863  0.11111592  0.39792313  1
  N  N436  1  0.69310124  0.44197865  0.40635027  1
  N  N437  1  0.69290598  0.77758373  0.40700439  1
  N  N438  1  0.31827324  0.22300468  0.89850379  1
  N  N439  1  0.30942229  0.55606281  0.90488402  1
  N  N440  1  0.31211132  0.89026803  0.90275888  1
  N  N441  1  0.81484107  0.22265373  0.90035250  1
  N  N442  1  0.81501661  0.55703832  0.90307367  1
  N  N443  1  0.80755131  0.89088632  0.90680104  1
  N  N444  1  0.32078793  0.11061415  0.10265879  1
  N  N445  1  0.32177549  0.44519546  0.10627862  1
  N  N446  1  0.31246645  0.77635808  0.09540434  1
  N  N447  1  0.81687717  0.11071511  0.09932177  1
  N  N448  1  0.80917407  0.44455078  0.09201136  1
  N  N449  1  0.80916831  0.77627612  0.09534191  1
  N  N450  1  0.19056499  0.22315077  0.59534889  1
  N  N451  1  0.18382271  0.55777967  0.59789144  1
  N  N452  1  0.18699572  0.89021092  0.59648497  1
  N  N453  1  0.69158006  0.22456932  0.59417329  1
  N  N454  1  0.68146204  0.55497576  0.60393078  1
  N  N455  1  0.68692475  0.89064045  0.59775341  1
  Cl  Cl456  1  0.25446317  0.05376226  0.62083859  1
  Cl  Cl457  1  0.24036938  0.39005543  0.61111240  1
  Cl  Cl458  1  0.24705840  0.72301159  0.60772797  1
  Cl  Cl459  1  0.75764242  0.05754633  0.60316142  1
  Cl  Cl460  1  0.73736405  0.39205761  0.60928834  1
  Cl  Cl461  1  0.74321546  0.71891650  0.61868959  1
  Cl  Cl462  1  0.24521823  0.27757069  0.11122952  1
  Cl  Cl463  1  0.25533440  0.61270256  0.11345029  1
  Cl  Cl464  1  0.25548698  0.95080565  0.12004733  1
  Cl  Cl465  1  0.74714204  0.28520082  0.11864278  1
  Cl  Cl466  1  0.75225034  0.61375104  0.12076805  1
  Cl  Cl467  1  0.75512052  0.94162189  0.10774602  1
  Cl  Cl468  1  0.24550433  0.05815850  0.88981603  1
  Cl  Cl469  1  0.24577721  0.38626855  0.88081290  1
  Cl  Cl470  1  0.25239495  0.71626120  0.87803030  1
  Cl  Cl471  1  0.74371526  0.05133842  0.87747787  1
  Cl  Cl472  1  0.75220587  0.38945209  0.88655089  1
  Cl  Cl473  1  0.75519698  0.72175974  0.88773078  1
  Cl  Cl474  1  0.24395914  0.28056529  0.38244269  1
  Cl  Cl475  1  0.25112856  0.61454827  0.38175458  1
  Cl  Cl476  1  0.24844482  0.94900208  0.38012396  1
  Cl  Cl477  1  0.74737852  0.28277535  0.38122837  1
  Cl  Cl478  1  0.76073971  0.60771243  0.39304927  1
  Cl  Cl479  1  0.75120888  0.95018937  0.37600978  1
  Cl  Cl480  1  0.00346400  0.22346038  0.61135937  1
  Cl  Cl481  1  -0.00663351  0.55527866  0.60192998  1
  Cl  Cl482  1  0.00146834  0.88499044  0.61995766  1
  Cl  Cl483  1  0.50615815  0.22142888  0.61848665  1
  Cl  Cl484  1  0.49649891  0.55069602  0.61859399  1
  Cl  Cl485  1  0.49870189  0.88401430  0.61381751  1
  Cl  Cl486  1  0.00661288  0.11189705  0.12025479  1
  Cl  Cl487  1  -0.00098766  0.44089292  0.10804627  1
  Cl  Cl488  1  -0.00277186  0.77576907  0.10571919  1
  Cl  Cl489  1  0.50315872  0.11418561  0.11767354  1
  Cl  Cl490  1  0.50176947  0.45082444  0.12544399  1
  Cl  Cl491  1  0.49515856  0.78033560  0.12067537  1
  Cl  Cl492  1  0.00584304  0.22173862  0.88446559  1
  Cl  Cl493  1  -0.00266023  0.54850669  0.87288878  1
  Cl  Cl494  1  -0.00587533  0.88659217  0.88730968  1
  Cl  Cl495  1  0.50326760  0.21916829  0.88360798  1
  Cl  Cl496  1  0.49406947  0.55594308  0.88905940  1
  Cl  Cl497  1  0.49634140  0.88405761  0.87926125  1
  Cl  Cl498  1  -0.00805802  0.11065339  0.39184421  1
  Cl  Cl499  1  0.00952657  0.44402919  0.38878966  1
  Cl  Cl500  1  0.00492249  0.78243722  0.37566459  1
  Cl  Cl501  1  0.49768279  0.11632701  0.37797877  1
  Cl  Cl502  1  0.50992381  0.44283421  0.39584515  1
  Cl  Cl503  1  0.50277473  0.77624827  0.39263542  1
  Cl  Cl504  1  0.36139480  0.14305213  0.75146876  1
  Cl  Cl505  1  0.35920874  0.47551048  0.74676138  1
  Cl  Cl506  1  0.36348351  0.80915366  0.74808756  1
  Cl  Cl507  1  0.86325821  0.14276522  0.75092268  1
  Cl  Cl508  1  0.86290162  0.47657963  0.74983335  1
  Cl  Cl509  1  0.85993016  0.80794727  0.74932935  1
  Cl  Cl510  1  0.13779582  0.18997091  0.25074838  1
  Cl  Cl511  1  0.14176651  0.52329794  0.25248849  1
  Cl  Cl512  1  0.13731959  0.85682758  0.24713241  1
  Cl  Cl513  1  0.63837627  0.19022223  0.25069155  1
  Cl  Cl514  1  0.63683460  0.52329957  0.24848742  1
  Cl  Cl515  1  0.63959634  0.85728021  0.24886779  1
  Cl  Cl516  1  0.13573549  0.14414336  0.74960369  1
  Cl  Cl517  1  0.13625689  0.47696790  0.74929007  1
  Cl  Cl518  1  0.13694486  0.80878531  0.75186528  1
  Cl  Cl519  1  0.63806279  0.14304521  0.74906000  1
  Cl  Cl520  1  0.63866790  0.47662336  0.74866388  1
  Cl  Cl521  1  0.63842291  0.80901848  0.75038303  1
  Cl  Cl522  1  0.36272897  0.19112512  0.24767484  1
  Cl  Cl523  1  0.36391706  0.52357202  0.25158552  1
  Cl  Cl524  1  0.36278582  0.85566407  0.25151314  1
  Cl  Cl525  1  0.86113231  0.19186876  0.25012291  1
  Cl  Cl526  1  0.86194738  0.52195787  0.25301514  1
  Cl  Cl527  1  0.86371609  0.85616762  0.25029417  1
  Cl  Cl528  1  0.11039812  0.30960265  0.74998673  1
  Cl  Cl529  1  0.11220837  0.64325392  0.75104566  1
  Cl  Cl530  1  0.10794216  0.97652265  0.74942859  1
  Cl  Cl531  1  0.61228344  0.31115755  0.75223814  1
  Cl  Cl532  1  0.60973016  0.64224490  0.74847286  1
  Cl  Cl533  1  0.61484134  0.97626007  0.74931026  1
  Cl  Cl534  1  0.38740688  0.02414626  0.24963728  1
  Cl  Cl535  1  0.38676469  0.35767965  0.25125064  1
  Cl  Cl536  1  0.39013229  0.69112982  0.25292701  1
  Cl  Cl537  1  0.88753892  0.02495237  0.25011348  1
  Cl  Cl538  1  0.88813660  0.35810207  0.25173764  1
  Cl  Cl539  1  0.88800181  0.68941666  0.24997177  1
  Cl  Cl540  1  0.38479868  0.31037777  0.74823799  1
  Cl  Cl541  1  0.38873746  0.64331844  0.74964150  1
  Cl  Cl542  1  0.38756933  0.97694299  0.75092403  1
  Cl  Cl543  1  0.88691893  0.31089202  0.74833300  1
  Cl  Cl544  1  0.88909913  0.64256095  0.74765557  1
  Cl  Cl545  1  0.88484795  0.97661009  0.75284037  1
  Cl  Cl546  1  0.11213343  0.02422728  0.25040631  1
  Cl  Cl547  1  0.10898323  0.35703464  0.25035471  1
  Cl  Cl548  1  0.11230745  0.68978758  0.25214938  1
  Cl  Cl549  1  0.61416899  0.02381324  0.24928324  1
  Cl  Cl550  1  0.61183041  0.35790196  0.25064044  1
  Cl  Cl551  1  0.61388251  0.68932649  0.24886914  1
