# generated using pymatgen
data_H8PbC4(N3Cl2)2
_symmetry_space_group_name_H-M   'P 1'
_cell_length_a   16.62280241
_cell_length_b   22.49973782
_cell_length_c   21.58785735
_cell_angle_alpha   89.99928871
_cell_angle_beta   90.00946666
_cell_angle_gamma   89.99911759
_symmetry_Int_Tables_number   1
_chemical_formula_structural   H8PbC4(N3Cl2)2
_chemical_formula_sum   'H192 Pb24 C96 N144 Cl96'
_cell_volume   8074.04626770
_cell_formula_units_Z   24
loop_
 _symmetry_equiv_pos_site_id
 _symmetry_equiv_pos_as_xyz
  1  'x, y, z'
loop_
 _atom_site_type_symbol
 _atom_site_label
 _atom_site_symmetry_multiplicity
 _atom_site_fract_x
 _atom_site_fract_y
 _atom_site_fract_z
 _atom_site_occupancy
  H  H0  1  -0.00353918  0.03375990  0.68119703  1
  H  H1  1  0.00734528  0.36605025  0.68159788  1
  H  H2  1  0.00607707  0.69942951  0.68207454  1
  H  H3  1  0.50600727  0.03306670  0.67906864  1
  H  H4  1  0.49418167  0.36447884  0.68169618  1
  H  H5  1  0.50346667  0.70037865  0.68139484  1
  H  H6  1  0.00530829  0.29949488  0.17913872  1
  H  H7  1  0.00455503  0.63551755  0.18278318  1
  H  H8  1  0.00321248  0.96761263  0.18146489  1
  H  H9  1  0.50224128  0.29978797  0.18121010  1
  H  H10  1  0.49707848  0.63568218  0.18155549  1
  H  H11  1  0.49675946  0.96802487  0.17879664  1
  H  H12  1  0.00065037  0.03310330  0.82282484  1
  H  H13  1  -0.00233489  0.36617758  0.81564969  1
  H  H14  1  -0.00225304  0.70001431  0.81912805  1
  H  H15  1  0.49592838  0.03133202  0.82063221  1
  H  H16  1  0.50819640  0.36495573  0.81644085  1
  H  H17  1  0.49988736  0.70216099  0.82182765  1
  H  H18  1  -0.00072614  0.30091717  0.31783199  1
  H  H19  1  0.00269958  0.63396717  0.31984185  1
  H  H20  1  -0.00710563  0.96842253  0.31860047  1
  H  H21  1  0.50474529  0.30160904  0.31953386  1
  H  H22  1  0.50466940  0.63392157  0.31976177  1
  H  H23  1  0.50099092  0.96716895  0.31732538  1
  H  H24  1  0.24948736  0.19910196  0.67892380  1
  H  H25  1  0.24680314  0.53160200  0.68062499  1
  H  H26  1  0.24491629  0.86706036  0.68244701  1
  H  H27  1  0.74948066  0.19934163  0.68086453  1
  H  H28  1  0.74740708  0.53206565  0.68025129  1
  H  H29  1  0.75775361  0.86753188  0.68259556  1
  H  H30  1  0.25054046  0.13188933  0.17732968  1
  H  H31  1  0.24420112  0.46863586  0.18182377  1
  H  H32  1  0.25560775  0.80117630  0.18174992  1
  H  H33  1  0.75253017  0.13310492  0.18061033  1
  H  H34  1  0.75250260  0.46888842  0.18251941  1
  H  H35  1  0.74905749  0.80250397  0.17992417  1
  H  H36  1  0.24869765  0.19850021  0.82016173  1
  H  H37  1  0.25799154  0.53346470  0.81794608  1
  H  H38  1  0.24819545  0.86641714  0.81962257  1
  H  H39  1  0.74747563  0.19824094  0.82106350  1
  H  H40  1  0.75246823  0.53317571  0.81636084  1
  H  H41  1  0.74934786  0.86464511  0.82107732  1
  H  H42  1  0.25255795  0.13334066  0.31920272  1
  H  H43  1  0.24751795  0.46680817  0.31974301  1
  H  H44  1  0.24547923  0.80118072  0.31961782  1
  H  H45  1  0.74711555  0.13447471  0.32071760  1
  H  H46  1  0.74986986  0.46805923  0.31793058  1
  H  H47  1  0.74831407  0.80040524  0.31637989  1
  H  H48  1  0.12060180  0.05301814  0.61180714  1
  H  H49  1  0.11787354  0.38816350  0.60144943  1
  H  H50  1  0.11865446  0.72452081  0.60044229  1
  H  H51  1  0.61523745  0.05829000  0.59626950  1
  H  H52  1  0.62276259  0.38629191  0.61326889  1
  H  H53  1  0.61893704  0.72268959  0.60182332  1
  H  H54  1  0.36986818  0.27927190  0.11677752  1
  H  H55  1  0.37989926  0.61090326  0.10441454  1
  H  H56  1  0.37371137  0.94682909  0.10638814  1
  H  H57  1  0.86743869  0.28153300  0.12294590  1
  H  H58  1  0.87654884  0.61430937  0.11435404  1
  H  H59  1  0.87169678  0.94746303  0.11481895  1
  H  H60  1  0.37714909  0.05488269  0.89724097  1
  H  H61  1  0.37249142  0.38426973  0.87834892  1
  H  H62  1  0.37518597  0.72136719  0.89026276  1
  H  H63  1  0.87728840  0.05301314  0.89231210  1
  H  H64  1  0.87451257  0.38671208  0.88660111  1
  H  H65  1  0.87423740  0.72102878  0.89052465  1
  H  H66  1  0.12382865  0.27971392  0.39101374  1
  H  H67  1  0.11774691  0.60966147  0.39848804  1
  H  H68  1  0.12651826  0.94825279  0.38149326  1
  H  H69  1  0.62193084  0.27660824  0.39779432  1
  H  H70  1  0.61634821  0.60802714  0.40085355  1
  H  H71  1  0.62626529  0.94754689  0.38640120  1
  H  H72  1  0.37493561  0.21824518  0.60894589  1
  H  H73  1  0.38047973  0.55146985  0.61964160  1
  H  H74  1  0.37518534  0.88532977  0.61633611  1
  H  H75  1  0.87609453  0.22050133  0.61005580  1
  H  H76  1  0.88019634  0.55261529  0.61716157  1
  H  H77  1  0.86871392  0.88966419  0.60270935  1
  H  H78  1  0.12438801  0.11354927  0.10937622  1
  H  H79  1  0.12929231  0.44259456  0.10340936  1
  H  H80  1  0.12632779  0.77998192  0.11270718  1
  H  H81  1  0.62407408  0.11161867  0.11365425  1
  H  H82  1  0.62493184  0.44779654  0.11533743  1
  H  H83  1  0.62511726  0.78023574  0.10662450  1
  H  H84  1  0.13135566  0.22037402  0.89795879  1
  H  H85  1  0.12280266  0.55219548  0.87883193  1
  H  H86  1  0.13009072  0.88810068  0.89331965  1
  H  H87  1  0.63520096  0.22470391  0.90055180  1
  H  H88  1  0.62497546  0.55464480  0.88631197  1
  H  H89  1  0.62665970  0.88716780  0.89321006  1
  H  H90  1  0.37974787  0.11161176  0.38909838  1
  H  H91  1  0.37812780  0.44697073  0.38442251  1
  H  H92  1  0.38111718  0.78121478  0.37939561  1
  H  H93  1  0.87969088  0.11333596  0.38292726  1
  H  H94  1  0.87697226  0.44823557  0.38500419  1
  H  H95  1  0.87885654  0.78030660  0.38025570  1
  H  H96  1  0.37421493  0.28071123  0.38645400  1
  H  H97  1  0.36861646  0.61390888  0.37885495  1
  H  H98  1  0.37717011  0.94649765  0.38732600  1
  H  H99  1  0.87532496  0.27842234  0.39066394  1
  H  H100  1  0.86941776  0.61350877  0.38211388  1
  H  H101  1  0.87906317  0.94502447  0.39941868  1
  H  H102  1  0.12638008  0.05340208  0.89063504  1
  H  H103  1  0.12443004  0.38554336  0.88317665  1
  H  H104  1  0.12357380  0.72004614  0.88616035  1
  H  H105  1  0.62595113  0.05203866  0.88567391  1
  H  H106  1  0.62038974  0.38900012  0.89661906  1
  H  H107  1  0.62426335  0.72094363  0.89091370  1
  H  H108  1  0.11399797  0.27330068  0.09649542  1
  H  H109  1  0.12540103  0.61234016  0.10870454  1
  H  H110  1  0.12081422  0.94752098  0.10391006  1
  H  H111  1  0.61742339  0.27613338  0.10127537  1
  H  H112  1  0.62879478  0.61595693  0.11824028  1
  H  H113  1  0.62264918  0.94542377  0.10893051  1
  H  H114  1  0.36863302  0.05135280  0.62264357  1
  H  H115  1  0.37446145  0.38869342  0.60495032  1
  H  H116  1  0.37043704  0.71959390  0.61951471  1
  H  H117  1  0.87122812  0.05445079  0.61051671  1
  H  H118  1  0.87032306  0.38437120  0.62448340  1
  H  H119  1  0.87197638  0.71748236  0.61924318  1
  H  H120  1  0.13154059  0.11182017  0.39411651  1
  H  H121  1  0.12902451  0.44446549  0.39634314  1
  H  H122  1  0.13314032  0.77604043  0.40042135  1
  H  H123  1  0.63146731  0.10996956  0.39918165  1
  H  H124  1  0.62783555  0.44688142  0.38938383  1
  H  H125  1  0.62983388  0.77932472  0.39129075  1
  H  H126  1  0.37989058  0.21806033  0.88481279  1
  H  H127  1  0.36958406  0.55860383  0.90027593  1
  H  H128  1  0.37929932  0.88409938  0.88468994  1
  H  H129  1  0.88227011  0.21499515  0.88322827  1
  H  H130  1  0.87392804  0.55616390  0.88917816  1
  H  H131  1  0.87584114  0.88735202  0.89068020  1
  H  H132  1  0.37350649  0.11265588  0.10719631  1
  H  H133  1  0.37731669  0.44809612  0.12087334  1
  H  H134  1  0.37499827  0.77978413  0.10444067  1
  H  H135  1  0.87329074  0.11216859  0.10482066  1
  H  H136  1  0.87463115  0.44340001  0.10958850  1
  H  H137  1  0.87380628  0.77925326  0.10786887  1
  H  H138  1  0.12653464  0.22321434  0.60802274  1
  H  H139  1  0.13204471  0.55730717  0.60144040  1
  H  H140  1  0.12584408  0.88886833  0.60914326  1
  H  H141  1  0.62736147  0.22067962  0.60755940  1
  H  H142  1  0.63169794  0.55680153  0.60219646  1
  H  H143  1  0.62092419  0.88421178  0.62434197  1
  H  H144  1  0.58760252  0.91804661  0.49740010  1
  H  H145  1  0.19358467  0.24381108  1.00280102  1
  H  H146  1  0.84517821  0.75326656  0.49277297  1
  H  H147  1  0.67420981  0.41662094  0.49884522  1
  H  H148  1  0.07120638  0.58661410  0.00011342  1
  H  H149  1  0.04940268  0.75026337  0.49895476  1
  H  H150  1  0.68405019  0.75562466  0.50230748  1
  H  H151  1  0.44033977  0.59391538  -0.00136408  1
  H  H152  1  0.59489956  0.58900473  0.00563461  1
  H  H153  1  0.08105024  0.40902164  0.99759807  1
  H  H154  1  0.18522113  0.91631090  1.00474928  1
  H  H155  1  0.33747924  0.08548760  0.49486204  1
  H  H156  1  0.05259738  0.41370574  0.49293726  1
  H  H157  1  0.41935556  0.91781158  0.49769710  1
  H  H158  1  0.05269558  0.58357188  0.50207361  1
  H  H159  1  0.82627852  0.24873168  0.50543721  1
  H  H160  1  0.06025089  0.92161263  -0.00423923  1
  H  H161  1  0.69580133  0.08446779  0.50280214  1
  H  H162  1  0.66811917  0.42383586  0.00173143  1
  H  H163  1  0.92396607  0.40809531  1.00043688  1
  H  H164  1  0.84144203  0.41754811  0.49620071  1
  H  H165  1  0.80417656  0.91639440  0.49445123  1
  H  H166  1  0.94718305  0.92192411  0.50175306  1
  H  H167  1  0.35194121  0.58043204  0.50686767  1
  H  H168  1  0.81790866  0.43017467  0.00178806  1
  H  H169  1  0.17833230  0.23938351  0.50267436  1
  H  H170  1  0.39920477  0.74849892  0.50694632  1
  H  H171  1  0.82178820  0.58548677  0.99733324  1
  H  H172  1  0.04243745  0.24530869  -0.00394300  1
  H  H173  1  0.32948726  0.25548695  0.50856600  1
  H  H174  1  0.55340361  0.41374723  1.00369397  1
  H  H175  1  0.55607624  0.75061183  0.49952270  1
  H  H176  1  0.07590806  0.08105542  0.49947976  1
  H  H177  1  0.19598239  0.57934504  0.49775826  1
  H  H178  1  0.20143361  0.75238100  0.50331732  1
  H  H179  1  0.19387294  0.42667166  -0.00194479  1
  H  H180  1  0.69583282  0.58128286  0.49802967  1
  H  H181  1  0.08192650  0.74924215  0.99908393  1
  H  H182  1  0.19028914  0.41608775  0.50055214  1
  H  H183  1  0.29827521  0.58545591  1.00057309  1
  H  H184  1  0.54422517  0.08381761  0.49521697  1
  H  H185  1  0.70401510  0.24050952  1.00392018  1
  H  H186  1  0.66496481  0.08160234  0.00351218  1
  H  H187  1  0.54733767  0.58182643  0.50284742  1
  H  H188  1  0.85323375  0.24807698  0.99027017  1
  H  H189  1  0.34688847  0.41708411  0.00871545  1
  H  H190  1  0.17729097  0.91692195  0.49887885  1
  H  H191  1  0.55065312  0.24864690  -0.00042181  1
  Pb  Pb192  1  0.24995243  0.04496226  0.74947788  1
  Pb  Pb193  1  0.25021370  0.38066787  0.74779673  1
  Pb  Pb194  1  0.24553659  0.71521591  0.74503475  1
  Pb  Pb195  1  0.74620697  0.04693847  0.74526398  1
  Pb  Pb196  1  0.74691288  0.37996321  0.75516590  1
  Pb  Pb197  1  0.75109965  0.71539413  0.74667244  1
  Pb  Pb198  1  0.24756742  0.28334537  0.24903191  1
  Pb  Pb199  1  0.24904313  0.61922304  0.24899552  1
  Pb  Pb200  1  0.24896151  0.95405968  0.24726112  1
  Pb  Pb201  1  0.74633476  0.28423330  0.25064379  1
  Pb  Pb202  1  0.74839187  0.62037357  0.25498865  1
  Pb  Pb203  1  0.75196988  0.95406766  0.25166290  1
  Pb  Pb204  1  0.00085991  0.21186843  0.75297707  1
  Pb  Pb205  1  -0.00106368  0.54684689  0.74603681  1
  Pb  Pb206  1  -0.00271027  0.88383642  0.74800501  1
  Pb  Pb207  1  0.49975163  0.21072699  0.75506031  1
  Pb  Pb208  1  0.50081456  0.55111352  0.75260670  1
  Pb  Pb209  1  0.49968595  0.87878765  0.75088000  1
  Pb  Pb210  1  -0.00117316  0.11944637  0.25029799  1
  Pb  Pb211  1  -0.00045453  0.45208360  0.24792735  1
  Pb  Pb212  1  0.00107528  0.78722876  0.25240384  1
  Pb  Pb213  1  0.50116907  0.11714858  0.25505646  1
  Pb  Pb214  1  0.49951568  0.45308195  0.24914447  1
  Pb  Pb215  1  0.50057875  0.78795551  0.25276931  1
  C  C216  1  -0.00342872  0.04711654  0.63305708  1
  C  C217  1  -0.00131797  0.37972075  0.63396067  1
  C  C218  1  -0.00087501  0.71394053  0.63443564  1
  C  C219  1  0.49675429  0.04708341  0.63150019  1
  C  C220  1  0.49695879  0.37936697  0.63402248  1
  C  C221  1  0.49774113  0.71445807  0.63337124  1
  C  C222  1  -0.00431111  0.28539397  0.13160952  1
  C  C223  1  0.00211470  0.62065771  0.13508018  1
  C  C224  1  -0.00154739  0.95377914  0.13347568  1
  C  C225  1  0.49649907  0.28539176  0.13344319  1
  C  C226  1  0.50163277  0.62161631  0.13348179  1
  C  C227  1  0.49784959  0.95314697  0.13124152  1
  C  C228  1  0.00137138  0.04704299  0.87108735  1
  C  C229  1  -0.00115652  0.38026233  0.86375004  1
  C  C230  1  -0.00094173  0.71399593  0.86709483  1
  C  C231  1  0.49952309  0.04635456  0.86808375  1
  C  C232  1  0.50005293  0.37977670  0.86387627  1
  C  C233  1  0.49981313  0.71512006  0.87036369  1
  C  C234  1  -0.00043554  0.28666185  0.36584463  1
  C  C235  1  -0.00327262  0.61984969  0.36751353  1
  C  C236  1  -0.00081575  0.95365614  0.36618890  1
  C  C237  1  0.50043106  0.28673534  0.36718599  1
  C  C238  1  0.49683942  0.61954229  0.36736086  1
  C  C239  1  0.50156344  0.95293927  0.36544084  1
  C  C240  1  0.25022449  0.21375875  0.63097682  1
  C  C241  1  0.25288366  0.54607892  0.63277715  1
  C  C242  1  0.24821240  0.88065966  0.63438479  1
  C  C243  1  0.75137278  0.21381844  0.63302445  1
  C  C244  1  0.75298277  0.54627962  0.63257245  1
  C  C245  1  0.74920513  0.88078671  0.63478668  1
  C  C246  1  0.24950337  0.11877372  0.12882094  1
  C  C247  1  0.24998844  0.45379608  0.13409816  1
  C  C248  1  0.25215477  0.78697380  0.13376072  1
  C  C249  1  0.75004402  0.11865632  0.13276098  1
  C  C250  1  0.75137483  0.45357755  0.13478617  1
  C  C251  1  0.74933412  0.78740145  0.13229866  1
  C  C252  1  0.25315241  0.21204835  0.86814025  1
  C  C253  1  0.25046480  0.54780893  0.86556429  1
  C  C254  1  0.25225463  0.87989055  0.86761587  1
  C  C255  1  0.75534081  0.21290453  0.86868554  1
  C  C256  1  0.75012467  0.54744819  0.86431132  1
  C  C257  1  0.75082908  0.87983315  0.86850825  1
  C  C258  1  0.25514363  0.11917856  0.36721308  1
  C  C259  1  0.25124182  0.45254002  0.36750464  1
  C  C260  1  0.25298265  0.78687007  0.36723031  1
  C  C261  1  0.75245675  0.12015938  0.36837127  1
  C  C262  1  0.75163726  0.45331610  0.36581401  1
  C  C263  1  0.75265344  0.78645595  0.36444914  1
  C  C264  1  0.80163381  0.76351564  0.45673994  1
  C  C265  1  0.53963984  0.73797302  0.96304827  1
  C  C266  1  0.79656763  0.42773536  0.45899021  1
  C  C267  1  0.55216982  0.59728111  0.04278609  1
  C  C268  1  0.71558563  0.90840135  0.96103268  1
  C  C269  1  0.43901369  0.59301104  0.45569215  1
  C  C270  1  0.30197442  0.42567346  0.45870570  1
  C  C271  1  0.93502807  0.26130510  0.04377979  1
  C  C272  1  0.80625153  0.57296555  0.54214084  1
  C  C273  1  0.20747097  0.09534306  0.03667008  1
  C  C274  1  0.21495648  0.90614679  0.53836654  1
  C  C275  1  0.46205591  0.92556883  0.03828715  1
  C  C276  1  0.71972742  0.76376979  0.46095550  1
  C  C277  1  0.52273406  0.40488978  0.96001688  1
  C  C278  1  0.96247783  0.07236166  0.96337830  1
  C  C279  1  0.04105483  0.73927922  0.96114240  1
  C  C280  1  0.96019789  0.40284725  0.95887982  1
  C  C281  1  0.71427922  0.42706227  0.46049969  1
  C  C282  1  0.69063259  0.90374605  0.54594746  1
  C  C283  1  0.78400392  0.57356311  0.95803558  1
  C  C284  1  0.44446393  0.73837214  0.54316587  1
  C  C285  1  0.02645949  0.93005182  0.03796871  1
  C  C286  1  0.03606822  0.07146676  0.53813503  1
  C  C287  1  0.22058353  0.90543193  0.96386789  1
  C  C288  1  0.93940112  0.40279052  0.54539267  1
  C  C289  1  0.31009957  0.76161818  0.45635032  1
  C  C290  1  0.30461775  0.23745859  0.95946333  1
  C  C291  1  0.95443083  0.07167658  0.53937419  1
  C  C292  1  0.80599699  0.09225207  0.45823075  1
  C  C293  1  0.46155908  0.92788432  0.45985239  1
  C  C294  1  0.95944884  0.73915690  0.96095845  1
  C  C295  1  0.77166395  0.90585029  0.53686135  1
  C  C296  1  0.70596497  0.42816879  0.04275259  1
  C  C297  1  0.54499530  0.07323378  0.95903049  1
  C  C298  1  0.04287992  0.07252444  0.96282809  1
  C  C299  1  0.43601462  0.07275066  0.54367669  1
  C  C300  1  0.45946567  0.73807093  0.96290157  1
  C  C301  1  0.30178695  0.90362019  0.95891508  1
  C  C302  1  0.94267348  0.59292442  0.45756839  1
  C  C303  1  0.02039207  0.40427823  0.53582801  1
  C  C304  1  0.70785895  0.09257787  0.04104766  1
  C  C305  1  0.54384631  0.92816920  0.45955652  1
  C  C306  1  0.30673030  0.57158703  0.54332245  1
  C  C307  1  0.30316270  0.42678379  0.04494842  1
  C  C308  1  0.29639509  0.90449722  0.54242706  1
  C  C309  1  0.04233028  0.40255941  0.95760351  1
  C  C310  1  0.03440325  0.59600334  0.04056460  1
  C  C311  1  0.28775586  0.09515324  0.03591586  1
  N  N312  1  0.05414536  0.93005543  0.45575937  1
  N  N313  1  0.94765851  0.92929787  0.04174412  1
  N  N314  1  0.73088973  0.24538011  0.96130716  1
  N  N315  1  0.20835470  0.76257465  0.04083232  1
  N  N316  1  0.94326503  0.73642240  0.54484464  1
  N  N317  1  0.78722954  0.09326965  0.03742561  1
  N  N318  1  0.52109397  0.26157162  0.03901344  1
  N  N319  1  0.53015682  0.25973912  0.46265435  1
  N  N320  1  0.79298320  0.90862047  0.96159729  1
  N  N321  1  0.54111687  0.40565203  0.54176209  1
  N  N322  1  0.44399376  0.40389310  0.95379011  1
  N  N323  1  0.23156804  0.75990785  0.46256426  1
  N  N324  1  0.28458023  0.76229312  0.03815072  1
  N  N325  1  0.72743201  0.57342601  0.53799177  1
  N  N326  1  0.51463389  0.07461824  0.53585421  1
  N  N327  1  0.71109599  0.23883516  0.53911331  1
  N  N328  1  0.97640678  0.92772753  0.46042241  1
  N  N329  1  0.01331928  0.25853832  0.03576496  1
  N  N330  1  0.96103707  0.26157740  0.46000267  1
  N  N331  1  0.51739633  0.59171961  0.46257035  1
  N  N332  1  0.72729347  0.09229174  0.46273445  1
  N  N333  1  0.78801118  0.75956740  0.03902673  1
  N  N334  1  0.47259233  0.59459824  0.03918994  1
  N  N335  1  0.80835823  0.23274330  0.95780254  1
  N  N336  1  0.95501740  0.59621667  0.04206987  1
  N  N337  1  0.27059595  0.57153988  0.96069085  1
  N  N338  1  0.70466580  0.57207683  0.95772026  1
  N  N339  1  0.02138375  0.59253296  0.46216807  1
  N  N340  1  0.46460971  0.40669310  0.53925929  1
  N  N341  1  0.03795324  0.26222413  0.46022958  1
  N  N342  1  0.29088525  0.23369847  0.53807459  1
  N  N343  1  0.53933898  0.92482941  0.03780050  1
  N  N344  1  0.02090237  0.73838232  0.53946110  1
  N  N345  1  0.29572497  0.09483744  0.45863727  1
  N  N346  1  0.78579347  0.42482681  0.04182704  1
  N  N347  1  0.71188319  0.75971286  0.03869670  1
  N  N348  1  0.21259010  0.24729839  0.54133996  1
  N  N349  1  0.52385002  0.73857806  0.53800499  1
  N  N350  1  0.45363582  0.26142675  0.45903710  1
  N  N351  1  0.78918316  0.23815840  0.54157693  1
  N  N352  1  0.22735927  0.57435742  0.53844216  1
  N  N353  1  0.21716544  0.09495521  0.46180109  1
  N  N354  1  0.22580491  0.23802354  0.96274647  1
  N  N355  1  0.22366331  0.42496218  0.03963870  1
  N  N356  1  0.44330851  0.26235520  0.04286544  1
  N  N357  1  0.22311179  0.42601233  0.46177858  1
  N  N358  1  0.19286880  0.56961292  0.95482935  1
  N  N359  1  0.46752193  0.07484885  0.96375031  1
  N  N360  1  0.06100137  0.05607104  0.59751394  1
  N  N361  1  0.05630906  0.38994216  0.59237527  1
  N  N362  1  0.05647275  0.72514451  0.59377300  1
  N  N363  1  0.55284977  0.05723210  0.58958049  1
  N  N364  1  0.56238853  0.38888923  0.60049527  1
  N  N365  1  0.55676320  0.72469190  0.59374013  1
  N  N366  1  0.42848868  0.27740639  0.10191818  1
  N  N367  1  0.44152980  0.61315530  0.09434147  1
  N  N368  1  0.43370786  0.94280822  0.09446369  1
  N  N369  1  0.92373585  0.27756050  0.10332626  1
  N  N370  1  0.93691129  0.61170668  0.10118666  1
  N  N371  1  0.93177489  0.94423472  0.10122176  1
  N  N372  1  0.43899917  0.05768267  0.90586071  1
  N  N373  1  0.43153414  0.38830620  0.89369733  1
  N  N374  1  0.43423088  0.72443552  0.90625736  1
  N  N375  1  0.93644640  0.05703293  0.90751860  1
  N  N376  1  0.93434688  0.38917056  0.90005898  1
  N  N377  1  0.93435388  0.72400072  0.90425805  1
  N  N378  1  0.06279787  0.27750940  0.40186554  1
  N  N379  1  0.05590894  0.61018452  0.40717887  1
  N  N380  1  0.06754702  0.94431528  0.39668065  1
  N  N381  1  0.56042250  0.27547726  0.40594485  1
  N  N382  1  0.55412738  0.60954726  0.40842804  1
  N  N383  1  0.56692123  0.94371681  0.40037700  1
  N  N384  1  0.31477476  0.22487641  0.59705083  1
  N  N385  1  0.32260209  0.55543349  0.60239507  1
  N  N386  1  0.31603982  0.88924038  0.60051948  1
  N  N387  1  0.81547599  0.22339420  0.59827060  1
  N  N388  1  0.82220135  0.55647215  0.60081156  1
  N  N389  1  0.80704944  0.89139471  0.59347047  1
  N  N390  1  0.18334284  0.10963826  0.09356090  1
  N  N391  1  0.19088303  0.44516905  0.09410628  1
  N  N392  1  0.18687415  0.77758679  0.10013218  1
  N  N393  1  0.68369869  0.10832724  0.09923326  1
  N  N394  1  0.68446120  0.44342391  0.10077205  1
  N  N395  1  0.68618221  0.77694365  0.09645695  1
  N  N396  1  0.19299658  0.22081544  0.90706841  1
  N  N397  1  0.18113779  0.55472930  0.89545012  1
  N  N398  1  0.19058253  0.89039927  0.90570969  1
  N  N399  1  0.69713250  0.22280205  0.90936504  1
  N  N400  1  0.68524690  0.55587481  0.89878541  1
  N  N401  1  0.68683338  0.89103746  0.90516491  1
  N  N402  1  0.31976506  0.11010839  0.40155377  1
  N  N403  1  0.31966526  0.44218761  0.40040942  1
  N  N404  1  0.32355873  0.77747133  0.39704359  1
  N  N405  1  0.82178856  0.10915308  0.39973038  1
  N  N406  1  0.81791453  0.44391124  0.39965883  1
  N  N407  1  0.82059916  0.77756865  0.39661929  1
  N  N408  1  0.43406564  0.27761323  0.39966621  1
  N  N409  1  0.42589283  0.60991604  0.39669758  1
  N  N410  1  0.43698739  0.94312222  0.40096990  1
  N  N411  1  0.93627342  0.27691415  0.40177301  1
  N  N412  1  0.92719162  0.60966288  0.39887163  1
  N  N413  1  0.94117239  0.94380789  0.40679119  1
  N  N414  1  0.06731939  0.05726424  0.90628916  1
  N  N415  1  0.06498994  0.38858420  0.89824637  1
  N  N416  1  0.06451231  0.72353511  0.90141229  1
  N  N417  1  0.56696656  0.05625026  0.90102634  1
  N  N418  1  0.55870654  0.39065976  0.90509039  1
  N  N419  1  0.56520000  0.72420114  0.90657177  1
  N  N420  1  0.05154623  0.27426008  0.08986415  1
  N  N421  1  0.06483145  0.61042098  0.09747459  1
  N  N422  1  0.05953118  0.94463141  0.09406199  1
  N  N423  1  0.55531657  0.27499632  0.09370260  1
  N  N424  1  0.57022466  0.61222365  0.10166604  1
  N  N425  1  0.56198156  0.94228483  0.09696254  1
  N  N426  1  0.42518172  0.05606612  0.60309251  1
  N  N427  1  0.43586575  0.39054382  0.59632197  1
  N  N428  1  0.42824813  0.72301241  0.60242906  1
  N  N429  1  0.93085481  0.05701571  0.59678144  1
  N  N430  1  0.92715648  0.38818336  0.60484140  1
  N  N431  1  0.93029200  0.72143007  0.60388535  1
  N  N432  1  0.19280276  0.10972375  0.40468731  1
  N  N433  1  0.19062710  0.44264043  0.40573734  1
  N  N434  1  0.19536221  0.77713460  0.40803698  1
  N  N435  1  0.69309993  0.11101300  0.40801338  1
  N  N436  1  0.68793743  0.44284210  0.40213054  1
  N  N437  1  0.69064220  0.77788982  0.40304740  1
  N  N438  1  0.32181195  0.22206490  0.90078636  1
  N  N439  1  0.30738066  0.55913312  0.90662287  1
  N  N440  1  0.32047479  0.88830668  0.90080567  1
  N  N441  1  0.82406488  0.22227604  0.89808812  1
  N  N442  1  0.81328961  0.55812876  0.90124145  1
  N  N443  1  0.81524807  0.89041197  0.90269362  1
  N  N444  1  0.31418786  0.10920699  0.09205546  1
  N  N445  1  0.31940071  0.44296195  0.10376617  1
  N  N446  1  0.31332295  0.77732820  0.09556032  1
  N  N447  1  0.81170290  0.10924897  0.09509503  1
  N  N448  1  0.81374107  0.44483786  0.09794960  1
  N  N449  1  0.81294639  0.77657933  0.09708407  1
  N  N450  1  0.18681883  0.22255167  0.59513405  1
  N  N451  1  0.19418019  0.55597128  0.59273295  1
  N  N452  1  0.18604071  0.89099327  0.59679831  1
  N  N453  1  0.68799902  0.22363235  0.59655472  1
  N  N454  1  0.69348074  0.55558149  0.59310180  1
  N  N455  1  0.67795510  0.88874334  0.60524344  1
  Cl  Cl456  1  0.24613922  0.05487312  0.61636830  1
  Cl  Cl457  1  0.24500854  0.38910538  0.60770354  1
  Cl  Cl458  1  0.23929632  0.72391323  0.60407851  1
  Cl  Cl459  1  0.73838256  0.05871727  0.60546822  1
  Cl  Cl460  1  0.74492988  0.38689973  0.62195819  1
  Cl  Cl461  1  0.74215294  0.71862945  0.61064860  1
  Cl  Cl462  1  0.23673989  0.27476531  0.10822736  1
  Cl  Cl463  1  0.25708628  0.60775305  0.10923539  1
  Cl  Cl464  1  0.24595785  0.94853621  0.11456964  1
  Cl  Cl465  1  0.73833941  0.27493792  0.10525344  1
  Cl  Cl466  1  0.75321554  0.61196987  0.12261937  1
  Cl  Cl467  1  0.74656448  0.94902170  0.12339445  1
  Cl  Cl468  1  0.25397680  0.05116001  0.88039760  1
  Cl  Cl469  1  0.24670227  0.38796715  0.88753412  1
  Cl  Cl470  1  0.25015274  0.71624623  0.87297407  1
  Cl  Cl471  1  0.74906286  0.05262809  0.87651465  1
  Cl  Cl472  1  0.74672190  0.38924905  0.89284130  1
  Cl  Cl473  1  0.75094417  0.71697635  0.87420582  1
  Cl  Cl474  1  0.24773481  0.27797897  0.39285527  1
  Cl  Cl475  1  0.24001794  0.60873816  0.39364950  1
  Cl  Cl476  1  0.25072118  0.94806399  0.38031135  1
  Cl  Cl477  1  0.75089167  0.27625941  0.38442608  1
  Cl  Cl478  1  0.73808537  0.60756161  0.39362999  1
  Cl  Cl479  1  0.75749755  0.94888049  0.38752476  1
  Cl  Cl480  1  0.00074304  0.21963661  0.62133294  1
  Cl  Cl481  1  0.01076252  0.55831679  0.60581090  1
  Cl  Cl482  1  -0.00684387  0.88974608  0.61011648  1
  Cl  Cl483  1  0.49922002  0.21376738  0.62271296  1
  Cl  Cl484  1  0.51015175  0.55993135  0.60902479  1
  Cl  Cl485  1  0.49678901  0.88455076  0.61652844  1
  Cl  Cl486  1  -0.00304354  0.11902896  0.11924834  1
  Cl  Cl487  1  0.00231957  0.44229525  0.11193184  1
  Cl  Cl488  1  0.00161368  0.77967679  0.11981922  1
  Cl  Cl489  1  0.50051277  0.11627518  0.12512551  1
  Cl  Cl490  1  0.50344357  0.44812642  0.11336654  1
  Cl  Cl491  1  0.49856011  0.78182385  0.12093448  1
  Cl  Cl492  1  0.00884422  0.22216407  0.89486086  1
  Cl  Cl493  1  -0.00168158  0.55417484  0.87805276  1
  Cl  Cl494  1  0.00364194  0.88721518  0.88085594  1
  Cl  Cl495  1  0.51417687  0.22333497  0.89293997  1
  Cl  Cl496  1  0.49263260  0.56004332  0.89330105  1
  Cl  Cl497  1  0.50303310  0.88330207  0.87836729  1
  Cl  Cl498  1  0.00765941  0.11256318  0.38484704  1
  Cl  Cl499  1  0.00667994  0.44992969  0.38182606  1
  Cl  Cl500  1  0.01161797  0.77537353  0.39352170  1
  Cl  Cl501  1  0.50753712  0.10719900  0.39543031  1
  Cl  Cl502  1  0.50242123  0.45465769  0.37721248  1
  Cl  Cl503  1  0.50675149  0.77384511  0.39101640  1
  Cl  Cl504  1  0.36246812  0.14474574  0.74861273  1
  Cl  Cl505  1  0.35922733  0.47639008  0.74918935  1
  Cl  Cl506  1  0.36356584  0.80971720  0.74707410  1
  Cl  Cl507  1  0.86309255  0.14470420  0.75019188  1
  Cl  Cl508  1  0.86432698  0.47691042  0.74704824  1
  Cl  Cl509  1  0.86105758  0.80849783  0.74876109  1
  Cl  Cl510  1  0.14151935  0.19051605  0.25130445  1
  Cl  Cl511  1  0.14002629  0.52321867  0.24955086  1
  Cl  Cl512  1  0.13702718  0.85621060  0.25155616  1
  Cl  Cl513  1  0.64008728  0.19099260  0.24958839  1
  Cl  Cl514  1  0.63822787  0.52300533  0.24855557  1
  Cl  Cl515  1  0.63694414  0.85639652  0.25309326  1
  Cl  Cl516  1  0.13804319  0.14531975  0.74880270  1
  Cl  Cl517  1  0.13815283  0.47731645  0.75246234  1
  Cl  Cl518  1  0.13952515  0.80882689  0.74788813  1
  Cl  Cl519  1  0.64060773  0.14510584  0.74951711  1
  Cl  Cl520  1  0.63759012  0.47815703  0.75264575  1
  Cl  Cl521  1  0.63636347  0.81004455  0.74528288  1
  Cl  Cl522  1  0.35994635  0.19117071  0.25077879  1
  Cl  Cl523  1  0.36228770  0.52316626  0.25029005  1
  Cl  Cl524  1  0.36346190  0.85573428  0.25440539  1
  Cl  Cl525  1  0.86164178  0.19112334  0.24973561  1
  Cl  Cl526  1  0.86309936  0.52278823  0.25064679  1
  Cl  Cl527  1  0.86454791  0.85594182  0.25217562  1
  Cl  Cl528  1  0.11264237  0.31180207  0.75083715  1
  Cl  Cl529  1  0.11301211  0.64308477  0.74918601  1
  Cl  Cl530  1  0.11222061  0.97721048  0.74932767  1
  Cl  Cl531  1  0.61238462  0.31104753  0.75041087  1
  Cl  Cl532  1  0.60867480  0.64166529  0.75073265  1
  Cl  Cl533  1  0.61182962  0.97758647  0.74725591  1
  Cl  Cl534  1  0.38861044  0.02445642  0.25315571  1
  Cl  Cl535  1  0.38792367  0.35742314  0.24866701  1
  Cl  Cl536  1  0.38579621  0.68895519  0.25444771  1
  Cl  Cl537  1  0.88788072  0.02409299  0.24936524  1
  Cl  Cl538  1  0.88845328  0.35745422  0.24562058  1
  Cl  Cl539  1  0.88780456  0.68878594  0.25400364  1
  Cl  Cl540  1  0.38539482  0.31020766  0.75291158  1
  Cl  Cl541  1  0.38941411  0.64214219  0.74613747  1
  Cl  Cl542  1  0.38625222  0.97648347  0.74657500  1
  Cl  Cl543  1  0.88587331  0.31087415  0.75069973  1
  Cl  Cl544  1  0.88865848  0.64271480  0.74558779  1
  Cl  Cl545  1  0.88875798  0.97651741  0.74885281  1
  Cl  Cl546  1  0.11254021  0.02258147  0.25360829  1
  Cl  Cl547  1  0.11272132  0.35639326  0.25017398  1
  Cl  Cl548  1  0.11451149  0.68855215  0.25162597  1
  Cl  Cl549  1  0.61134979  0.02404029  0.25191013  1
  Cl  Cl550  1  0.61272236  0.35687074  0.24829911  1
  Cl  Cl551  1  0.61236291  0.68804841  0.25045728  1
