# generated using pymatgen
data_H8PbC4(N3Cl2)2
_symmetry_space_group_name_H-M   'P 1'
_cell_length_a   16.62443835
_cell_length_b   22.50461882
_cell_length_c   21.58870585
_cell_angle_alpha   89.99951088
_cell_angle_beta   90.00448539
_cell_angle_gamma   90.00225447
_symmetry_Int_Tables_number   1
_chemical_formula_structural   H8PbC4(N3Cl2)2
_chemical_formula_sum   'H192 Pb24 C96 N144 Cl96'
_cell_volume   8076.91012735
_cell_formula_units_Z   24
loop_
 _symmetry_equiv_pos_site_id
 _symmetry_equiv_pos_as_xyz
  1  'x, y, z'
loop_
 _atom_site_type_symbol
 _atom_site_label
 _atom_site_symmetry_multiplicity
 _atom_site_fract_x
 _atom_site_fract_y
 _atom_site_fract_z
 _atom_site_occupancy
  H  H0  1  -0.00461637  0.03247351  0.68230209  1
  H  H1  1  -0.00532547  0.36573910  0.67913424  1
  H  H2  1  0.00102399  0.69859789  0.67869610  1
  H  H3  1  0.50470091  0.03209714  0.68065526  1
  H  H4  1  0.50480868  0.36508419  0.68203058  1
  H  H5  1  0.50570866  0.69825506  0.67798007  1
  H  H6  1  0.01035572  0.29756394  0.17742462  1
  H  H7  1  -0.00889825  0.63453592  0.17942942  1
  H  H8  1  -0.00249571  0.96973657  0.18134932  1
  H  H9  1  0.49959062  0.29844899  0.17618900  1
  H  H10  1  0.50623923  0.63656040  0.18215252  1
  H  H11  1  0.50029855  0.97091467  0.17785185  1
  H  H12  1  0.00012930  0.03483735  0.82358012  1
  H  H13  1  0.00439328  0.35531172  0.82352122  1
  H  H14  1  -0.00233907  0.69828114  0.81944905  1
  H  H15  1  0.49726644  0.03065470  0.82258700  1
  H  H16  1  0.49314368  0.36318901  0.82375217  1
  H  H17  1  0.49599594  0.70037953  0.82137880  1
  H  H18  1  0.00728837  0.30312515  0.32005146  1
  H  H19  1  -0.00205248  0.63546147  0.31914795  1
  H  H20  1  -0.00515628  0.96841923  0.31945579  1
  H  H21  1  0.49712069  0.30126037  0.32180756  1
  H  H22  1  0.50376529  0.63302750  0.32127776  1
  H  H23  1  0.50457923  0.96984647  0.32124132  1
  H  H24  1  0.24102298  0.19767182  0.67879056  1
  H  H25  1  0.25154612  0.52887428  0.67876539  1
  H  H26  1  0.25639695  0.86423377  0.68123331  1
  H  H27  1  0.74811632  0.19943323  0.68125948  1
  H  H28  1  0.75170765  0.53021081  0.68154904  1
  H  H29  1  0.74153739  0.86580164  0.67862497  1
  H  H30  1  0.24780585  0.13677497  0.17710601  1
  H  H31  1  0.24145731  0.46669424  0.18412137  1
  H  H32  1  0.25471669  0.80432358  0.17935269  1
  H  H33  1  0.74902905  0.13616842  0.17872758  1
  H  H34  1  0.75891031  0.46559362  0.17865290  1
  H  H35  1  0.75287122  0.80226431  0.17865624  1
  H  H36  1  0.25140805  0.19492824  0.82361882  1
  H  H37  1  0.26011530  0.53246521  0.82162555  1
  H  H38  1  0.24833825  0.86595324  0.81887589  1
  H  H39  1  0.74417761  0.19655764  0.82255305  1
  H  H40  1  0.74325229  0.53010404  0.81767495  1
  H  H41  1  0.75314021  0.86712669  0.81997376  1
  H  H42  1  0.24659960  0.13347119  0.31804311  1
  H  H43  1  0.25927314  0.46937487  0.31984704  1
  H  H44  1  0.24562899  0.80345391  0.32312567  1
  H  H45  1  0.75597484  0.13424174  0.31873628  1
  H  H46  1  0.74677276  0.46765105  0.31894840  1
  H  H47  1  0.74928664  0.80164834  0.32162874  1
  H  H48  1  0.12879764  0.05250633  0.61768654  1
  H  H49  1  0.12494117  0.38785029  0.61301824  1
  H  H50  1  0.11480609  0.72497944  0.59979233  1
  H  H51  1  0.62933576  0.05486204  0.61065815  1
  H  H52  1  0.62075390  0.38763147  0.60376939  1
  H  H53  1  0.61214957  0.72682149  0.59435976  1
  H  H54  1  0.37388269  0.27832721  0.10903825  1
  H  H55  1  0.37758835  0.61374271  0.11688127  1
  H  H56  1  0.37742247  0.94755222  0.10627033  1
  H  H57  1  0.87340068  0.28265222  0.12056677  1
  H  H58  1  0.88225859  0.60854303  0.09748743  1
  H  H59  1  0.88088879  0.94638120  0.10388768  1
  H  H60  1  0.37581926  0.05512998  0.89539642  1
  H  H61  1  0.38621175  0.39019611  0.90720234  1
  H  H62  1  0.38846812  0.72477769  0.90288826  1
  H  H63  1  0.87577023  0.05466744  0.89236649  1
  H  H64  1  0.87785062  0.38536860  0.88885893  1
  H  H65  1  0.88418501  0.72431059  0.89929675  1
  H  H66  1  0.11553547  0.27367866  0.40276430  1
  H  H67  1  0.12674665  0.61312717  0.38664541  1
  H  H68  1  0.12147833  0.94663776  0.38777521  1
  H  H69  1  0.62098469  0.27876496  0.39215328  1
  H  H70  1  0.62268661  0.61401279  0.39743032  1
  H  H71  1  0.61886592  0.94199346  0.39957889  1
  H  H72  1  0.38004248  0.21674581  0.62363296  1
  H  H73  1  0.37549072  0.55444422  0.60950142  1
  H  H74  1  0.37618748  0.88980227  0.60549481  1
  H  H75  1  0.87999834  0.21999148  0.61732395  1
  H  H76  1  0.87375258  0.55460665  0.60737531  1
  H  H77  1  0.88054986  0.88256173  0.62332773  1
  H  H78  1  0.12457873  0.11340358  0.10559318  1
  H  H79  1  0.12080055  0.44416204  0.11144594  1
  H  H80  1  0.11886208  0.78167988  0.12168516  1
  H  H81  1  0.62536798  0.11384810  0.10444676  1
  H  H82  1  0.61811417  0.44817909  0.12690004  1
  H  H83  1  0.61497193  0.78386425  0.12095355  1
  H  H84  1  0.12553384  0.21947202  0.89279079  1
  H  H85  1  0.12027967  0.55153949  0.87461369  1
  H  H86  1  0.12496724  0.88971021  0.89288750  1
  H  H87  1  0.62762399  0.22065087  0.89887622  1
  H  H88  1  0.62255779  0.55638402  0.89181270  1
  H  H89  1  0.62013218  0.88591623  0.88357883  1
  H  H90  1  0.37347063  0.11332652  0.38735020  1
  H  H91  1  0.37315242  0.44347480  0.40081901  1
  H  H92  1  0.38228310  0.78455132  0.38195186  1
  H  H93  1  0.86931000  0.11135527  0.39729711  1
  H  H94  1  0.87884526  0.44868763  0.38214878  1
  H  H95  1  0.88295521  0.78031892  0.38257217  1
  H  H96  1  0.37211724  0.27714090  0.39217569  1
  H  H97  1  0.37451386  0.61048138  0.38621025  1
  H  H98  1  0.37081450  0.94710403  0.38154088  1
  H  H99  1  0.86932219  0.28484960  0.37558184  1
  H  H100  1  0.87709526  0.61192106  0.39171788  1
  H  H101  1  0.87225617  0.94483169  0.38878794  1
  H  H102  1  0.12487536  0.05416320  0.89226132  1
  H  H103  1  0.12606453  0.38570315  0.89352538  1
  H  H104  1  0.13235135  0.71975000  0.87864644  1
  H  H105  1  0.62503535  0.05433657  0.88997921  1
  H  H106  1  0.63146871  0.38060993  0.88062163  1
  H  H107  1  0.63492352  0.71840105  0.87487631  1
  H  H108  1  0.11982653  0.27624791  0.09705700  1
  H  H109  1  0.12909616  0.61523471  0.12222675  1
  H  H110  1  0.12974293  0.94907508  0.11589561  1
  H  H111  1  0.62286434  0.27885947  0.10630929  1
  H  H112  1  0.62664481  0.61011383  0.10765316  1
  H  H113  1  0.62628624  0.94623161  0.10871427  1
  H  H114  1  0.38037954  0.05429222  0.60838627  1
  H  H115  1  0.37210764  0.38672535  0.61816986  1
  H  H116  1  0.36638605  0.71789237  0.62436822  1
  H  H117  1  0.88019881  0.05498662  0.60342961  1
  H  H118  1  0.87682521  0.38852972  0.60191158  1
  H  H119  1  0.86695763  0.71980860  0.61797512  1
  H  H120  1  0.12411656  0.11064275  0.39198086  1
  H  H121  1  0.12601290  0.44742310  0.38231473  1
  H  H122  1  0.13597571  0.77424505  0.40381247  1
  H  H123  1  0.62097603  0.11649092  0.37779525  1
  H  H124  1  0.63006706  0.44609081  0.39417224  1
  H  H125  1  0.63503765  0.77576705  0.40041152  1
  H  H126  1  0.37485173  0.22026845  0.89420009  1
  H  H127  1  0.36561543  0.56041898  0.90598499  1
  H  H128  1  0.37367383  0.88853583  0.89042888  1
  H  H129  1  0.87590398  0.21562264  0.88345151  1
  H  H130  1  0.87183275  0.55384721  0.88286187  1
  H  H131  1  0.86800230  0.89216921  0.89994941  1
  H  H132  1  0.37386164  0.11390452  0.10711855  1
  H  H133  1  0.37025423  0.44503831  0.11874132  1
  H  H134  1  0.36601537  0.77820806  0.09856719  1
  H  H135  1  0.87458733  0.11425211  0.10694747  1
  H  H136  1  0.86366619  0.44050185  0.09509120  1
  H  H137  1  0.86226412  0.77569991  0.09736431  1
  H  H138  1  0.13559658  0.22624995  0.59329359  1
  H  H139  1  0.12688709  0.55501473  0.60893436  1
  H  H140  1  0.12746748  0.88624260  0.61490672  1
  H  H141  1  0.63092975  0.22133200  0.60584573  1
  H  H142  1  0.62544705  0.55441677  0.61117225  1
  H  H143  1  0.63413880  0.89240154  0.59437437  1
  H  H144  1  0.80784800  0.08579371  0.50593259  1
  H  H145  1  0.68041135  0.56542939  0.99917655  1
  H  H146  1  0.68459636  0.25024813  0.49703938  1
  H  H147  1  0.91570299  0.91597967  0.50016493  1
  H  H148  1  0.64582334  0.08880394  0.49185169  1
  H  H149  1  0.08300322  0.41641382  0.50721737  1
  H  H150  1  0.94336396  0.08067701  0.49627412  1
  H  H151  1  0.05937350  0.38906318  0.99886772  1
  H  H152  1  0.29649393  0.75415478  -0.00413109  1
  H  H153  1  0.56412098  0.57400361  0.49415638  1
  H  H154  1  0.16839719  0.91772538  0.50514881  1
  H  H155  1  0.28999166  0.58505258  1.00629950  1
  H  H156  1  0.41693933  0.58772107  0.00408902  1
  H  H157  1  0.04857968  0.75181346  0.49704926  1
  H  H158  1  0.83160050  0.57864487  0.99620679  1
  H  H159  1  0.94919952  0.75158362  1.00125409  1
  H  H160  1  0.84882425  0.24803202  0.99662014  1
  H  H161  1  0.41162551  0.59143881  0.49268907  1
  H  H162  1  0.79360772  0.75006219  -0.00873546  1
  H  H163  1  0.55789685  0.41426668  0.49652461  1
  H  H164  1  0.20885889  0.75742474  0.50651292  1
  H  H165  1  0.08521774  0.58404931  0.49196746  1
  H  H166  1  0.68702280  0.41886150  0.50502356  1
  H  H167  1  0.45796335  0.75477865  1.00865230  1
  H  H168  1  0.61182883  0.41266856  0.99140079  1
  H  H169  1  0.92756473  0.58163450  0.50056564  1
  H  H170  1  0.79106192  0.41341746  -0.01023490  1
  H  H171  1  0.10613091  0.58685225  0.01249522  1
  H  H172  1  0.63432603  0.75377216  0.00881665  1
  H  H173  1  0.35708454  0.75075903  0.48974819  1
  H  H174  1  0.53835765  0.75073306  0.49373441  1
  H  H175  1  0.04461094  0.25339284  0.50418199  1
  H  H176  1  0.88694718  0.25276411  0.48788375  1
  H  H177  1  0.21285691  0.24874464  0.49401404  1
  H  H178  1  0.80007390  0.92158397  1.00064131  1
  H  H179  1  0.95164647  0.58353010  -0.00902050  1
  H  H180  1  0.56811601  0.60151221  0.00053931  1
  H  H181  1  0.70067253  0.74870864  0.50330902  1
  H  H182  1  0.93215313  0.39816341  0.99578146  1
  H  H183  1  0.32758854  0.08364074  0.49678518  1
  H  H184  1  0.46209748  0.40108465  1.00904600  1
  H  H185  1  0.17167746  0.42171597  -0.00044249  1
  H  H186  1  0.33137375  0.41917253  0.00551783  1
  H  H187  1  0.10537684  0.74890133  0.99162991  1
  H  H188  1  0.41933541  0.24972622  0.49731139  1
  H  H189  1  0.70849575  0.91795439  0.49422983  1
  H  H190  1  0.94293429  0.92341396  -0.00466553  1
  H  H191  1  0.55271731  0.91668148  0.50286290  1
  Pb  Pb192  1  0.25426130  0.04604663  0.74971110  1
  Pb  Pb193  1  0.25132518  0.37886115  0.75853927  1
  Pb  Pb194  1  0.24794601  0.71594526  0.75133193  1
  Pb  Pb195  1  0.75295301  0.04745217  0.74669795  1
  Pb  Pb196  1  0.75065764  0.37838644  0.74608766  1
  Pb  Pb197  1  0.75423573  0.71616862  0.74512440  1
  Pb  Pb198  1  0.24496501  0.28394082  0.25391933  1
  Pb  Pb199  1  0.24975974  0.62093964  0.24678319  1
  Pb  Pb200  1  0.24931998  0.95512666  0.25032359  1
  Pb  Pb201  1  0.74428709  0.28685471  0.25036232  1
  Pb  Pb202  1  0.74667550  0.61855275  0.24566718  1
  Pb  Pb203  1  0.74911073  0.95322946  0.24970435  1
  Pb  Pb204  1  0.00396049  0.21221927  0.74214176  1
  Pb  Pb205  1  -0.00008306  0.54532413  0.74587592  1
  Pb  Pb206  1  0.00191686  0.88420232  0.75531588  1
  Pb  Pb207  1  0.50139165  0.21204162  0.74904970  1
  Pb  Pb208  1  0.49907940  0.54942559  0.75133669  1
  Pb  Pb209  1  0.50453282  0.88157211  0.74116026  1
  Pb  Pb210  1  -0.00266267  0.12081820  0.25296061  1
  Pb  Pb211  1  -0.00479711  0.45082181  0.24140776  1
  Pb  Pb212  1  -0.00044781  0.78727157  0.24918308  1
  Pb  Pb213  1  0.49826899  0.12080976  0.24691976  1
  Pb  Pb214  1  0.49377110  0.45079803  0.25251071  1
  Pb  Pb215  1  0.49864875  0.78842338  0.25260761  1
  C  C216  1  0.00172410  0.04686317  0.63457619  1
  C  C217  1  -0.00092906  0.38107813  0.63160238  1
  C  C218  1  -0.00570923  0.71316404  0.63113396  1
  C  C219  1  0.50452101  0.04696709  0.63310260  1
  C  C220  1  0.49909721  0.37992023  0.63444975  1
  C  C221  1  0.49481437  0.71312434  0.63091062  1
  C  C222  1  0.00098426  0.28562679  0.12940233  1
  C  C223  1  0.00156567  0.61941306  0.13222709  1
  C  C224  1  0.00286920  0.95503858  0.13367131  1
  C  C225  1  0.49868307  0.28504978  0.12792775  1
  C  C226  1  0.50414023  0.62087461  0.13455211  1
  C  C227  1  0.50160699  0.95499221  0.13069602  1
  C  C228  1  0.00029022  0.04824111  0.87200837  1
  C  C229  1  0.00275455  0.37420671  0.86977209  1
  C  C230  1  0.00461901  0.71356591  0.86694026  1
  C  C231  1  0.49954103  0.04653091  0.86974590  1
  C  C232  1  0.50387581  0.37809659  0.87110420  1
  C  C233  1  0.50670731  0.71420230  0.86889936  1
  C  C234  1  -0.00243019  0.28847221  0.36745877  1
  C  C235  1  0.00108446  0.61972045  0.36670805  1
  C  C236  1  -0.00424471  0.95337834  0.36713091  1
  C  C237  1  0.49616590  0.28632392  0.36947357  1
  C  C238  1  0.50028914  0.61864377  0.36929884  1
  C  C239  1  0.49833037  0.95438035  0.36845017  1
  C  C240  1  0.25191273  0.21259616  0.63173178  1
  C  C241  1  0.25101971  0.54566215  0.63194678  1
  C  C242  1  0.25357946  0.88008672  0.63387183  1
  C  C243  1  0.75270560  0.21373319  0.63346581  1
  C  C244  1  0.75029007  0.54585200  0.63404045  1
  C  C245  1  0.75173201  0.87988091  0.63120083  1
  C  C246  1  0.24896624  0.12108842  0.12983351  1
  C  C247  1  0.24425879  0.45237646  0.13612971  1
  C  C248  1  0.24677556  0.78907233  0.13208375  1
  C  C249  1  0.74958384  0.12128904  0.13097760  1
  C  C250  1  0.74676519  0.45230520  0.13112675  1
  C  C251  1  0.74243635  0.78731477  0.13137623  1
  C  C252  1  0.25044331  0.21155881  0.87055705  1
  C  C253  1  0.24890050  0.54709564  0.86882407  1
  C  C254  1  0.24874320  0.88064778  0.86669847  1
  C  C255  1  0.74984925  0.21118330  0.87013253  1
  C  C256  1  0.74524592  0.54589583  0.86525163  1
  C  C257  1  0.74745974  0.88154903  0.86772076  1
  C  C258  1  0.24797476  0.11890432  0.36593036  1
  C  C259  1  0.25306405  0.45394609  0.36719353  1
  C  C260  1  0.25500308  0.78738796  0.37015418  1
  C  C261  1  0.74833333  0.11973315  0.36639675  1
  C  C262  1  0.75163675  0.45426165  0.36693366  1
  C  C263  1  0.75566089  0.78669719  0.36906892  1
  C  C264  1  0.52495738  0.40533521  0.53910052  1
  C  C265  1  0.80087848  0.23760692  0.96134958  1
  C  C266  1  0.72248156  0.23960094  0.53679967  1
  C  C267  1  0.02269002  0.26350433  0.03258027  1
  C  C268  1  0.95747773  0.92660128  0.46188702  1
  C  C269  1  0.44347488  0.92486485  0.45717223  1
  C  C270  1  0.80283801  0.43064120  0.45776423  1
  C  C271  1  0.53788349  0.25791497  0.46295551  1
  C  C272  1  0.45709912  0.59522363  0.04315910  1
  C  C273  1  0.28921197  0.57648165  0.54012716  1
  C  C274  1  0.48864542  0.74183622  0.96619206  1
  C  C275  1  0.94329162  0.26503643  0.04054571  1
  C  C276  1  0.18527119  0.57280728  0.95492804  1
  C  C277  1  0.28657810  0.24303802  0.96198992  1
  C  C278  1  0.79180553  0.57148111  0.95681187  1
  C  C279  1  0.18902609  0.76107295  0.04446158  1
  C  C280  1  0.56951391  0.73906331  0.95596536  1
  C  C281  1  0.76177423  0.42613461  0.03298006  1
  C  C282  1  0.69312575  0.09700918  0.45673663  1
  C  C283  1  0.46634383  0.07595405  0.96243812  1
  C  C284  1  0.54344484  0.07544436  0.54061840  1
  C  C285  1  0.28750748  0.09381484  0.45839671  1
  C  C286  1  0.29023118  0.42934418  0.04315363  1
  C  C287  1  0.20822841  0.42958937  0.04040211  1
  C  C288  1  0.97625983  0.07130748  0.53881450  1
  C  C289  1  0.05972357  0.73969119  0.95564851  1
  C  C290  1  0.53721854  0.26125641  0.03479697  1
  C  C291  1  0.76375550  0.76016579  0.03494417  1
  C  C292  1  0.93696932  0.26199545  0.45385528  1
  C  C293  1  0.81463216  0.90496008  0.54406160  1
  C  C294  1  0.03901583  0.92755192  0.45979788  1
  C  C295  1  0.21074017  0.90680827  0.54257080  1
  C  C296  1  0.04068043  0.07187392  0.96438599  1
  C  C297  1  0.81075409  0.75827067  0.45845768  1
  C  C298  1  0.93854585  0.74117427  0.54174135  1
  C  C299  1  0.98017509  0.59269031  0.03534455  1
  C  C300  1  0.45667439  0.26129503  0.03565696  1
  C  C301  1  0.68119929  0.42933215  0.04462923  1
  C  C302  1  0.96451990  0.59261261  0.46071921  1
  C  C303  1  0.43219745  0.73756572  0.54398850  1
  C  C304  1  0.96050991  0.07219866  0.96447240  1
  C  C305  1  0.72173359  0.42930043  0.46370693  1
  C  C306  1  0.21311881  0.09101466  0.03780775  1
  C  C307  1  0.71937171  0.23936075  0.96501263  1
  C  C308  1  0.77484966  0.09553658  0.46363551  1
  C  C309  1  0.46596623  0.92494732  0.03861243  1
  C  C310  1  0.80367603  0.23834742  0.54255376  1
  C  C311  1  0.97599512  0.93097835  0.03814319  1
  N  N312  1  0.56314453  0.39819745  0.95822042  1
  N  N313  1  0.95867747  0.41429303  0.95602424  1
  N  N314  1  0.05865086  0.59409610  0.04527746  1
  N  N315  1  0.70943482  0.57133419  0.54056014  1
  N  N316  1  0.53209049  0.60126399  0.46514250  1
  N  N317  1  0.05493684  0.93016678  0.04252799  1
  N  N318  1  0.21207211  0.90625967  0.96112553  1
  N  N319  1  0.04172987  0.41133211  0.95930264  1
  N  N320  1  0.23789117  0.24268256  0.53763438  1
  N  N321  1  0.44609648  0.40594192  0.54392879  1
  N  N322  1  0.78916672  0.09469502  0.03760299  1
  N  N323  1  0.27825082  0.42598861  0.46305994  1
  N  N324  1  0.29001210  0.90726893  0.53886148  1
  N  N325  1  0.20198002  0.42746003  0.45724924  1
  N  N326  1  0.52207245  0.92421874  0.46227992  1
  N  N327  1  0.71185807  0.57263474  0.95912306  1
  N  N328  1  0.96439464  0.40636529  0.53629965  1
  N  N329  1  0.45391542  0.58799526  0.45752935  1
  N  N330  1  0.20923224  0.24301771  0.96285878  1
  N  N331  1  0.53705987  0.59362666  0.04065325  1
  N  N332  1  0.46571196  0.07501239  0.53848572  1
  N  N333  1  0.26733028  0.75996186  0.03735788  1
  N  N334  1  0.01580733  0.25800510  0.46210012  1
  N  N335  1  0.26331586  0.57536567  0.96447286  1
  N  N336  1  0.98057236  0.74079531  0.96179942  1
  N  N337  1  0.51025808  0.74067270  0.53506724  1
  N  N338  1  0.54345078  0.92400548  0.03822797  1
  N  N339  1  0.29042842  0.09085082  0.03709889  1
  N  N340  1  0.04414989  0.59386497  0.45798492  1
  N  N341  1  0.73638819  0.90782258  0.53547594  1
  N  N342  1  0.31117470  0.76567280  0.45759286  1
  N  N343  1  0.73189325  0.75749994  0.46329663  1
  N  N344  1  0.78620808  0.57212327  0.53960774  1
  N  N345  1  0.45882690  0.25863164  0.46182204  1
  N  N346  1  0.04251120  0.40545469  0.54134520  1
  N  N347  1  0.21104041  0.57677342  0.53873589  1
  N  N348  1  0.71312318  0.09440791  0.03692126  1
  N  N349  1  0.31512812  0.23867034  0.54614766  1
  N  N350  1  0.28824964  0.90566248  0.96052473  1
  N  N351  1  0.05514297  0.07076812  0.54358108  1
  N  N352  1  0.20817561  0.09337076  0.46051167  1
  N  N353  1  0.68491083  0.76218278  0.04386518  1
  N  N354  1  0.69329077  0.90438379  0.95785486  1
  N  N355  1  0.01740479  0.74228056  0.53682177  1
  N  N356  1  0.48554659  0.40837835  0.96558110  1
  N  N357  1  0.77102347  0.90648292  0.96192425  1
  N  N358  1  0.54366234  0.07623942  0.96188585  1
  N  N359  1  0.23374062  0.75380484  0.46285499  1
  N  N360  1  0.06925777  0.05558392  0.60318249  1
  N  N361  1  0.06501236  0.39129004  0.59913937  1
  N  N362  1  0.05286182  0.72336742  0.59117180  1
  N  N363  1  0.56950263  0.05843182  0.59774924  1
  N  N364  1  0.55939522  0.38984788  0.59444215  1
  N  N365  1  0.54974988  0.72384882  0.58824787  1
  N  N366  1  0.43269781  0.27550473  0.09259591  1
  N  N367  1  0.43678690  0.60985198  0.10163522  1
  N  N368  1  0.43756864  0.94340218  0.09426151  1
  N  N369  1  0.92981425  0.27869277  0.10043981  1
  N  N370  1  0.94407781  0.60794753  0.08938810  1
  N  N371  1  0.94232094  0.94530284  0.09390395  1
  N  N372  1  0.43633354  0.05817073  0.90701533  1
  N  N373  1  0.44836943  0.38741928  0.91405225  1
  N  N374  1  0.45045486  0.72581398  0.91108528  1
  N  N375  1  0.93490732  0.05797818  0.90802302  1
  N  N376  1  0.93799378  0.38647263  0.90280832  1
  N  N377  1  0.94652728  0.72381293  0.90743866  1
  N  N378  1  0.05335228  0.27754875  0.40967884  1
  N  N379  1  0.06651350  0.61020571  0.39996820  1
  N  N380  1  0.06172424  0.94343830  0.40247352  1
  N  N381  1  0.56110962  0.27502757  0.40585195  1
  N  N382  1  0.56153329  0.60816226  0.40681400  1
  N  N383  1  0.55708324  0.94439629  0.40843526  1
  N  N384  1  0.32300602  0.22208971  0.60546848  1
  N  N385  1  0.31563254  0.55786690  0.59646335  1
  N  N386  1  0.31495748  0.89090147  0.59626801  1
  N  N387  1  0.82163776  0.22282678  0.60114097  1
  N  N388  1  0.81260297  0.55620403  0.59729283  1
  N  N389  1  0.82419084  0.88826007  0.60357106  1
  N  N390  1  0.18471190  0.10944334  0.09352560  1
  N  N391  1  0.18081596  0.44382492  0.09860931  1
  N  N392  1  0.17581378  0.77772464  0.10345184  1
  N  N393  1  0.68682359  0.11086412  0.09480476  1
  N  N394  1  0.67326670  0.44512006  0.10478648  1
  N  N395  1  0.67266969  0.77897615  0.10346031  1
  N  N396  1  0.18633172  0.22274680  0.90476342  1
  N  N397  1  0.17602837  0.55615487  0.89530507  1
  N  N398  1  0.18586075  0.89063193  0.90303342  1
  N  N399  1  0.68858971  0.22352965  0.91002459  1
  N  N400  1  0.68342980  0.55291456  0.90312209  1
  N  N401  1  0.67911757  0.88852689  0.89906932  1
  N  N402  1  0.31347637  0.10927216  0.40067597  1
  N  N403  1  0.31122775  0.44223875  0.40738988  1
  N  N404  1  0.32472896  0.77684519  0.39771743  1
  N  N405  1  0.80791842  0.10942625  0.40702701  1
  N  N406  1  0.82049771  0.44544941  0.39936356  1
  N  N407  1  0.82554659  0.77595746  0.39986379  1
  N  N408  1  0.43229799  0.27703389  0.40440852  1
  N  N409  1  0.43376516  0.61006141  0.40173791  1
  N  N410  1  0.42856235  0.94280665  0.39891466  1
  N  N411  1  0.92591444  0.27948628  0.39478489  1
  N  N412  1  0.93741236  0.60853207  0.40396020  1
  N  N413  1  0.93174373  0.94274680  0.40272241  1
  N  N414  1  0.06581146  0.05746381  0.90790489  1
  N  N415  1  0.06572123  0.38526307  0.90533112  1
  N  N416  1  0.07482651  0.72318243  0.89654901  1
  N  N417  1  0.56466023  0.05754476  0.90292604  1
  N  N418  1  0.57423985  0.38782030  0.89798038  1
  N  N419  1  0.57942513  0.72242615  0.89618580  1
  N  N420  1  0.05870127  0.27549283  0.08667168  1
  N  N421  1  0.07139449  0.61047911  0.10479685  1
  N  N422  1  0.06987399  0.94546246  0.10193514  1
  N  N423  1  0.56330327  0.27561373  0.09113357  1
  N  N424  1  0.56569926  0.61351953  0.09652540  1
  N  N425  1  0.56587073  0.94320330  0.09683138  1
  N  N426  1  0.44153726  0.05685770  0.59746172  1
  N  N427  1  0.43171497  0.39018643  0.60342963  1
  N  N428  1  0.42221414  0.72159677  0.60386642  1
  N  N429  1  0.94170958  0.05725571  0.59443567  1
  N  N430  1  0.93804432  0.39073369  0.59285752  1
  N  N431  1  0.92423740  0.72362189  0.60044189  1
  N  N432  1  0.18523351  0.10865616  0.40243669  1
  N  N433  1  0.18521384  0.44454423  0.39770578  1
  N  N434  1  0.19820572  0.77708153  0.41192888  1
  N  N435  1  0.67849193  0.11165712  0.39594604  1
  N  N436  1  0.69066229  0.44417883  0.40577594  1
  N  N437  1  0.69689129  0.77643793  0.40884588  1
  N  N438  1  0.31471182  0.22423046  0.90634941  1
  N  N439  1  0.30350708  0.55768094  0.91186090  1
  N  N440  1  0.31263548  0.88989615  0.90208402  1
  N  N441  1  0.81815105  0.21996781  0.90104474  1
  N  N442  1  0.81252293  0.55702947  0.89835207  1
  N  N443  1  0.80593960  0.89363349  0.90722722  1
  N  N444  1  0.31310156  0.10996935  0.09561332  1
  N  N445  1  0.31116377  0.44362895  0.10274633  1
  N  N446  1  0.30397433  0.77972332  0.09079038  1
  N  N447  1  0.81353868  0.11132905  0.09579710  1
  N  N448  1  0.80167776  0.44093271  0.08776425  1
  N  N449  1  0.80000168  0.77523788  0.08906189  1
  N  N450  1  0.19798289  0.22394794  0.58835764  1
  N  N451  1  0.18754700  0.55741538  0.59742178  1
  N  N452  1  0.18697338  0.89019541  0.60053912  1
  N  N453  1  0.69187214  0.22395640  0.59489389  1
  N  N454  1  0.68613084  0.55564470  0.59920555  1
  N  N455  1  0.69666182  0.89132320  0.58880215  1
  Cl  Cl456  1  0.25641674  0.05405905  0.61594383  1
  Cl  Cl457  1  0.24653049  0.38401632  0.62672780  1
  Cl  Cl458  1  0.23653895  0.72744409  0.60761088  1
  Cl  Cl459  1  0.75557834  0.05160812  0.61091176  1
  Cl  Cl460  1  0.74869845  0.38723016  0.61336033  1
  Cl  Cl461  1  0.73405100  0.72827369  0.60571980  1
  Cl  Cl462  1  0.24661832  0.28008211  0.12568811  1
  Cl  Cl463  1  0.25588958  0.61326848  0.10551391  1
  Cl  Cl464  1  0.25387532  0.94955509  0.12243967  1
  Cl  Cl465  1  0.74618210  0.28162929  0.11992046  1
  Cl  Cl466  1  0.75291465  0.60688850  0.10335935  1
  Cl  Cl467  1  0.75757815  0.94162491  0.11273195  1
  Cl  Cl468  1  0.25205235  0.05430610  0.87818309  1
  Cl  Cl469  1  0.25832804  0.39214881  0.89460311  1
  Cl  Cl470  1  0.26304985  0.72280603  0.89044105  1
  Cl  Cl471  1  0.74949540  0.05094698  0.87501332  1
  Cl  Cl472  1  0.75666624  0.38516242  0.88194152  1
  Cl  Cl473  1  0.76486837  0.72201347  0.88396872  1
  Cl  Cl474  1  0.23967852  0.27154205  0.39681196  1
  Cl  Cl475  1  0.25104185  0.61588475  0.37886218  1
  Cl  Cl476  1  0.24488269  0.94366955  0.38313856  1
  Cl  Cl477  1  0.74279217  0.28276561  0.38363639  1
  Cl  Cl478  1  0.74607395  0.61801196  0.37767858  1
  Cl  Cl479  1  0.73999940  0.93741400  0.39168642  1
  Cl  Cl480  1  0.01326816  0.22818156  0.60299822  1
  Cl  Cl481  1  -0.00062980  0.55697658  0.60970382  1
  Cl  Cl482  1  0.00428273  0.88100197  0.62312908  1
  Cl  Cl483  1  0.50557140  0.22071000  0.61339090  1
  Cl  Cl484  1  0.50169733  0.55856532  0.61045245  1
  Cl  Cl485  1  0.51069676  0.89053366  0.60115465  1
  Cl  Cl486  1  -0.00204205  0.11663355  0.12142453  1
  Cl  Cl487  1  -0.00913010  0.43804445  0.10383945  1
  Cl  Cl488  1  -0.01405963  0.77425382  0.10821751  1
  Cl  Cl489  1  0.50075880  0.11583684  0.11476396  1
  Cl  Cl490  1  0.49197189  0.43972582  0.11414665  1
  Cl  Cl491  1  0.48679533  0.77944791  0.11813903  1
  Cl  Cl492  1  0.00343429  0.21906489  0.87237538  1
  Cl  Cl493  1  -0.00609760  0.55557242  0.88131562  1
  Cl  Cl494  1  -0.00822987  0.88839075  0.89098951  1
  Cl  Cl495  1  0.50088070  0.21839704  0.88012318  1
  Cl  Cl496  1  0.49503894  0.56061440  0.89584708  1
  Cl  Cl497  1  0.49541183  0.88552846  0.87237956  1
  Cl  Cl498  1  -0.00508146  0.11243262  0.38839453  1
  Cl  Cl499  1  0.00324716  0.44827956  0.37457170  1
  Cl  Cl500  1  0.01553042  0.77328657  0.39069099  1
  Cl  Cl501  1  0.49649076  0.11855266  0.37851739  1
  Cl  Cl502  1  0.50111427  0.44693980  0.38652979  1
  Cl  Cl503  1  0.51170088  0.77602911  0.39677873  1
  Cl  Cl504  1  0.36280914  0.14672954  0.74493123  1
  Cl  Cl505  1  0.36211823  0.48052449  0.75110458  1
  Cl  Cl506  1  0.35873987  0.80986700  0.74312327  1
  Cl  Cl507  1  0.86191456  0.14621295  0.74539814  1
  Cl  Cl508  1  0.86187135  0.47944609  0.75433677  1
  Cl  Cl509  1  0.86001203  0.80981806  0.74470640  1
  Cl  Cl510  1  0.13911340  0.18821182  0.25547924  1
  Cl  Cl511  1  0.13901374  0.52279947  0.24695145  1
  Cl  Cl512  1  0.13714581  0.85383782  0.24740142  1
  Cl  Cl513  1  0.63757858  0.18834659  0.25407913  1
  Cl  Cl514  1  0.63821480  0.52340865  0.24277942  1
  Cl  Cl515  1  0.63732610  0.85260883  0.24654851  1
  Cl  Cl516  1  0.14035332  0.14550548  0.74649292  1
  Cl  Cl517  1  0.13774506  0.47946645  0.75434841  1
  Cl  Cl518  1  0.14006495  0.80801873  0.75298810  1
  Cl  Cl519  1  0.63921876  0.14525718  0.74841750  1
  Cl  Cl520  1  0.63780518  0.47884592  0.75244273  1
  Cl  Cl521  1  0.63871737  0.81166313  0.75503139  1
  Cl  Cl522  1  0.36189288  0.18909525  0.25099325  1
  Cl  Cl523  1  0.36280205  0.52173374  0.24537605  1
  Cl  Cl524  1  0.36042057  0.85327310  0.25734928  1
  Cl  Cl525  1  0.86011464  0.18822092  0.25272863  1
  Cl  Cl526  1  0.86189451  0.52029496  0.25085353  1
  Cl  Cl527  1  0.86079126  0.85181961  0.25376136  1
  Cl  Cl528  1  0.11054206  0.31500163  0.74994936  1
  Cl  Cl529  1  0.11178503  0.64602112  0.75450075  1
  Cl  Cl530  1  0.11023256  0.97745777  0.74931932  1
  Cl  Cl531  1  0.61222140  0.31314998  0.75499759  1
  Cl  Cl532  1  0.61195372  0.64373835  0.75569777  1
  Cl  Cl533  1  0.61119701  0.97625373  0.74973619  1
  Cl  Cl534  1  0.38885333  0.01952754  0.25328045  1
  Cl  Cl535  1  0.38982226  0.35600539  0.24967455  1
  Cl  Cl536  1  0.38990904  0.68614221  0.25507842  1
  Cl  Cl537  1  0.88590398  0.02016040  0.25400284  1
  Cl  Cl538  1  0.88728923  0.35627999  0.25184441  1
  Cl  Cl539  1  0.89280751  0.68585865  0.24894088  1
  Cl  Cl540  1  0.39091804  0.31389033  0.74663814  1
  Cl  Cl541  1  0.39162554  0.64443103  0.74448812  1
  Cl  Cl542  1  0.38840683  0.97684837  0.74541319  1
  Cl  Cl543  1  0.89125639  0.31290799  0.74545807  1
  Cl  Cl544  1  0.88840253  0.64693895  0.74800890  1
  Cl  Cl545  1  0.88906406  0.97724586  0.75068077  1
  Cl  Cl546  1  0.11042228  0.02037081  0.25187933  1
  Cl  Cl547  1  0.11025856  0.35381983  0.24972625  1
  Cl  Cl548  1  0.11381083  0.68830408  0.24427522  1
  Cl  Cl549  1  0.61353214  0.02139435  0.25054127  1
  Cl  Cl550  1  0.61117289  0.35513079  0.24801260  1
  Cl  Cl551  1  0.61015049  0.68710194  0.24799202  1
