# generated using pymatgen
data_H8PbC4(N3Cl2)2
_symmetry_space_group_name_H-M   'P 1'
_cell_length_a   16.62184872
_cell_length_b   22.50593237
_cell_length_c   21.58901265
_cell_angle_alpha   90.00015063
_cell_angle_beta   90.01756827
_cell_angle_gamma   89.99933696
_symmetry_Int_Tables_number   1
_chemical_formula_structural   H8PbC4(N3Cl2)2
_chemical_formula_sum   'H192 Pb24 C96 N144 Cl96'
_cell_volume   8076.23775079
_cell_formula_units_Z   24
loop_
 _symmetry_equiv_pos_site_id
 _symmetry_equiv_pos_as_xyz
  1  'x, y, z'
loop_
 _atom_site_type_symbol
 _atom_site_label
 _atom_site_symmetry_multiplicity
 _atom_site_fract_x
 _atom_site_fract_y
 _atom_site_fract_z
 _atom_site_occupancy
  H  H0  1  0.00704564  0.02916502  0.67854887  1
  H  H1  1  0.00065931  0.36705663  0.67604997  1
  H  H2  1  -0.01128487  0.69999917  0.67624195  1
  H  H3  1  0.49700838  0.02923728  0.67867123  1
  H  H4  1  0.50307395  0.36501095  0.67987459  1
  H  H5  1  0.49610960  0.69817186  0.68240552  1
  H  H6  1  -0.01096545  0.30310994  0.17660864  1
  H  H7  1  0.00908656  0.63424094  0.18082495  1
  H  H8  1  -0.00759871  0.96781871  0.17984809  1
  H  H9  1  0.51481899  0.30240594  0.17771661  1
  H  H10  1  0.49959039  0.63536679  0.18052372  1
  H  H11  1  0.50367905  0.96626725  0.17977403  1
  H  H12  1  -0.00741842  0.03041403  0.82072356  1
  H  H13  1  0.00477643  0.36618463  0.82037959  1
  H  H14  1  0.01412278  0.69937874  0.82306093  1
  H  H15  1  0.50898749  0.03157601  0.81874077  1
  H  H16  1  0.49165703  0.36477238  0.82123481  1
  H  H17  1  0.49248620  0.69742688  0.82103035  1
  H  H18  1  -0.00413705  0.30331949  0.32015864  1
  H  H19  1  -0.00789681  0.63511832  0.32161863  1
  H  H20  1  -0.00393901  0.96833627  0.32462454  1
  H  H21  1  0.50747488  0.30269066  0.31791458  1
  H  H22  1  0.50068502  0.63436809  0.32262250  1
  H  H23  1  0.49345644  0.97009708  0.31953028  1
  H  H24  1  0.24915384  0.19820736  0.68060267  1
  H  H25  1  0.25266397  0.52983854  0.67584623  1
  H  H26  1  0.25834009  0.86352695  0.67685323  1
  H  H27  1  0.75956823  0.19857586  0.68090176  1
  H  H28  1  0.75110877  0.52934441  0.67850388  1
  H  H29  1  0.75081274  0.86359175  0.67824404  1
  H  H30  1  0.26325354  0.13474830  0.17772288  1
  H  H31  1  0.26161062  0.46671763  0.18277406  1
  H  H32  1  0.25668876  0.80317959  0.17899979  1
  H  H33  1  0.74356243  0.13780206  0.18109814  1
  H  H34  1  0.73719319  0.46877508  0.17476429  1
  H  H35  1  0.74320894  0.80164235  0.17734605  1
  H  H36  1  0.25042208  0.19986310  0.82343517  1
  H  H37  1  0.24094186  0.53314545  0.81842765  1
  H  H38  1  0.25819732  0.86564938  0.82296928  1
  H  H39  1  0.75543426  0.19806350  0.82132934  1
  H  H40  1  0.75540810  0.53027721  0.81839498  1
  H  H41  1  0.74493520  0.86348008  0.81888633  1
  H  H42  1  0.24231005  0.13487466  0.32246591  1
  H  H43  1  0.23925899  0.46702199  0.32405947  1
  H  H44  1  0.26066009  0.80358206  0.32052492  1
  H  H45  1  0.75417205  0.13609704  0.32049425  1
  H  H46  1  0.76054897  0.47025646  0.32149469  1
  H  H47  1  0.74698548  0.80288682  0.31945722  1
  H  H48  1  0.11295132  0.05776148  0.59348484  1
  H  H49  1  0.12415880  0.38895829  0.60734379  1
  H  H50  1  0.12739473  0.71624465  0.62378418  1
  H  H51  1  0.61497817  0.05584897  0.60296100  1
  H  H52  1  0.62230571  0.38738985  0.60591035  1
  H  H53  1  0.63193992  0.71801924  0.62096887  1
  H  H54  1  0.37933671  0.28195143  0.11763190  1
  H  H55  1  0.37001151  0.61400416  0.11677217  1
  H  H56  1  0.37101884  0.94732701  0.11712407  1
  H  H57  1  0.88700545  0.27414291  0.09032117  1
  H  H58  1  0.86857375  0.61740257  0.12777447  1
  H  H59  1  0.87764197  0.94277149  0.10034020  1
  H  H60  1  0.37780828  0.05061419  0.88309620  1
  H  H61  1  0.37815575  0.38999064  0.90100387  1
  H  H62  1  0.38094534  0.72528353  0.90254155  1
  H  H63  1  0.88213860  0.05478734  0.90165597  1
  H  H64  1  0.87201781  0.38480005  0.88283639  1
  H  H65  1  0.87599881  0.71745518  0.88016985  1
  H  H66  1  0.13166903  0.28365829  0.38045835  1
  H  H67  1  0.12997164  0.61698246  0.37823461  1
  H  H68  1  0.12842329  0.94713524  0.38813774  1
  H  H69  1  0.62530539  0.27984397  0.39211733  1
  H  H70  1  0.62794671  0.60844195  0.38953814  1
  H  H71  1  0.62747543  0.94779660  0.38330924  1
  H  H72  1  0.37041931  0.22216842  0.60752986  1
  H  H73  1  0.36703238  0.55584318  0.59827521  1
  H  H74  1  0.36898586  0.89272591  0.59726084  1
  H  H75  1  0.86884962  0.22662401  0.59854365  1
  H  H76  1  0.86944356  0.55429390  0.60222667  1
  H  H77  1  0.86983370  0.88756358  0.60247054  1
  H  H78  1  0.12304582  0.11583012  0.12510826  1
  H  H79  1  0.12219419  0.45067112  0.12819893  1
  H  H80  1  0.12167196  0.78217053  0.11746412  1
  H  H81  1  0.62331278  0.11069473  0.10620075  1
  H  H82  1  0.63119650  0.43855389  0.09231054  1
  H  H83  1  0.62747488  0.77683643  0.09898457  1
  H  H84  1  0.12219732  0.22543738  0.88959776  1
  H  H85  1  0.13539441  0.55631420  0.90197925  1
  H  H86  1  0.12660467  0.88354256  0.88430012  1
  H  H87  1  0.62030128  0.22039188  0.88026709  1
  H  H88  1  0.63313793  0.55273371  0.89191050  1
  H  H89  1  0.62949488  0.88727048  0.89702306  1
  H  H90  1  0.38412918  0.11692227  0.37320289  1
  H  H91  1  0.37730597  0.44975463  0.37803268  1
  H  H92  1  0.36858166  0.77495735  0.40400816  1
  H  H93  1  0.88076313  0.10988923  0.38883450  1
  H  H94  1  0.87488992  0.44466469  0.40021902  1
  H  H95  1  0.87183324  0.78052461  0.39147152  1
  H  H96  1  0.37641844  0.28298872  0.38209618  1
  H  H97  1  0.37946817  0.61328707  0.39655748  1
  H  H98  1  0.37973868  0.94381933  0.39998949  1
  H  H99  1  0.88323929  0.27989123  0.40003679  1
  H  H100  1  0.88257549  0.61039816  0.40183929  1
  H  H101  1  0.88006172  0.94166412  0.40048162  1
  H  H102  1  0.12941743  0.05225258  0.87910844  1
  H  H103  1  0.12065393  0.38916034  0.89615063  1
  H  H104  1  0.12204867  0.72630368  0.90601941  1
  H  H105  1  0.62549726  0.05686678  0.89580337  1
  H  H106  1  0.62631568  0.38386582  0.88226612  1
  H  H107  1  0.62786236  0.71846457  0.88127890  1
  H  H108  1  0.13065952  0.28390400  0.12747990  1
  H  H109  1  0.11469812  0.61101360  0.09748741  1
  H  H110  1  0.12536711  0.94649990  0.11839215  1
  H  H111  1  0.62670907  0.27568805  0.09766830  1
  H  H112  1  0.61907903  0.61171501  0.10696020  1
  H  H113  1  0.61995342  0.94423696  0.10435453  1
  H  H114  1  0.36711508  0.05253211  0.61185902  1
  H  H115  1  0.37322574  0.38542734  0.61590514  1
  H  H116  1  0.38379057  0.72454026  0.60294122  1
  H  H117  1  0.86858097  0.05035079  0.62380964  1
  H  H118  1  0.87546933  0.38711565  0.60837230  1
  H  H119  1  0.88208262  0.72338213  0.59223940  1
  H  H120  1  0.13958295  0.10530913  0.40818534  1
  H  H121  1  0.13145446  0.44356633  0.40568463  1
  H  H122  1  0.12324907  0.78350516  0.37786341  1
  H  H123  1  0.63145851  0.11248972  0.39124323  1
  H  H124  1  0.62678757  0.44766191  0.38262070  1
  H  H125  1  0.62270877  0.77769153  0.38936429  1
  H  H126  1  0.37017439  0.21924974  0.89908052  1
  H  H127  1  0.38176031  0.54899202  0.87204019  1
  H  H128  1  0.37505464  0.89082727  0.89910410  1
  H  H129  1  0.86799107  0.22614211  0.90103568  1
  H  H130  1  0.88194946  0.55411587  0.88661683  1
  H  H131  1  0.87797286  0.88492379  0.88202625  1
  H  H132  1  0.36603346  0.10694288  0.09048695  1
  H  H133  1  0.36865034  0.44320694  0.09997962  1
  H  H134  1  0.36903966  0.77767133  0.09711617  1
  H  H135  1  0.87246157  0.11288708  0.11730427  1
  H  H136  1  0.87639595  0.44972350  0.12019053  1
  H  H137  1  0.87513688  0.77979372  0.11251002  1
  H  H138  1  0.12134624  0.22287229  0.61249269  1
  H  H139  1  0.11917812  0.55060438  0.61382395  1
  H  H140  1  0.12193764  0.88336921  0.61751883  1
  H  H141  1  0.62284603  0.21621738  0.62106497  1
  H  H142  1  0.62129789  0.55312893  0.61455135  1
  H  H143  1  0.62111907  0.88768391  0.61144037  1
  H  H144  1  0.69354867  0.91281493  1.00459503  1
  H  H145  1  0.56204043  0.91641891  -0.00628915  1
  H  H146  1  0.79570160  0.25606331  0.49961887  1
  H  H147  1  0.84156802  0.58370119  0.99694050  1
  H  H148  1  0.55829067  0.09739342  0.99091637  1
  H  H149  1  0.57193226  0.25040032  0.50152475  1
  H  H150  1  0.85764782  0.41862326  0.01070573  1
  H  H151  1  0.57172857  0.41501015  0.49688908  1
  H  H152  1  0.94652715  0.58108277  0.50780649  1
  H  H153  1  0.40113033  0.58349833  0.00484660  1
  H  H154  1  0.31934817  0.25472740  0.50096544  1
  H  H155  1  0.29804923  0.75297232  -0.00425981  1
  H  H156  1  0.58772036  0.59008982  0.49560055  1
  H  H157  1  0.14861954  0.58104104  0.50580055  1
  H  H158  1  0.20676652  0.58281312  1.00803367  1
  H  H159  1  0.42227453  0.05442120  0.99251552  1
  H  H160  1  0.83284380  0.08404904  0.00449525  1
  H  H161  1  0.29325658  0.75359660  0.50511970  1
  H  H162  1  0.10223556  0.25858094  0.48888852  1
  H  H163  1  0.44543093  0.41634176  1.00365056  1
  H  H164  1  0.83782269  0.08314209  0.49437339  1
  H  H165  1  0.10220445  0.07899182  0.98774301  1
  H  H166  1  0.03613851  0.08254870  0.49420801  1
  H  H167  1  0.16059194  0.24745087  0.99776221  1
  H  H168  1  0.83652920  0.75188796  0.00648685  1
  H  H169  1  0.66480753  0.91621205  0.50619259  1
  H  H170  1  0.67134910  0.74899140  0.49830970  1
  H  H171  1  0.68137908  0.09256830  0.00049670  1
  H  H172  1  0.29890587  0.41913299  -0.00704624  1
  H  H173  1  0.21643347  0.07977446  0.50653893  1
  H  H174  1  0.40347064  0.41439465  0.50368458  1
  H  H175  1  0.15636263  0.91360386  0.99859328  1
  H  H176  1  0.94723315  0.25646901  0.50810721  1
  H  H177  1  0.79962875  0.25428853  1.00281492  1
  H  H178  1  0.56773935  0.58285678  -0.00178102  1
  H  H179  1  0.04361989  0.58275160  -0.00797604  1
  H  H180  1  0.28547325  0.08333583  -0.00763165  1
  H  H181  1  0.45260093  0.75223421  1.00298160  1
  H  H182  1  0.40592478  0.08009360  0.50508369  1
  H  H183  1  0.43444324  0.57265720  0.49341661  1
  H  H184  1  0.45072555  0.75176932  0.49678320  1
  H  H185  1  0.96635518  0.24980174  -0.00820559  1
  H  H186  1  0.09204903  0.91580506  0.49470847  1
  H  H187  1  0.94944927  0.07713510  1.00994923  1
  H  H188  1  0.68027831  0.08312588  0.50150585  1
  H  H189  1  0.06789281  0.42058710  1.00350696  1
  H  H190  1  0.31384057  0.25794670  0.99753502  1
  H  H191  1  0.11030809  0.74466069  0.50790882  1
  Pb  Pb192  1  0.24787536  0.04491161  0.74578966  1
  Pb  Pb193  1  0.25306879  0.38357681  0.75462067  1
  Pb  Pb194  1  0.25059898  0.71439204  0.75394526  1
  Pb  Pb195  1  0.74552120  0.04888799  0.75421382  1
  Pb  Pb196  1  0.74933611  0.37866174  0.74953527  1
  Pb  Pb197  1  0.75418656  0.71272311  0.74543411  1
  Pb  Pb198  1  0.25074173  0.28752372  0.24565508  1
  Pb  Pb199  1  0.24599131  0.61758918  0.25042906  1
  Pb  Pb200  1  0.25089491  0.95453541  0.25500401  1
  Pb  Pb201  1  0.75505409  0.28577285  0.24993101  1
  Pb  Pb202  1  0.74861534  0.62104740  0.25329118  1
  Pb  Pb203  1  0.74556258  0.95121207  0.24855697  1
  Pb  Pb204  1  0.00131877  0.21699710  0.74960911  1
  Pb  Pb205  1  0.00062335  0.54651995  0.75111592  1
  Pb  Pb206  1  -0.00221388  0.87948369  0.74488003  1
  Pb  Pb207  1  0.49375698  0.21425056  0.75159509  1
  Pb  Pb208  1  0.50515317  0.54882797  0.74388474  1
  Pb  Pb209  1  0.50032768  0.87946276  0.75041355  1
  Pb  Pb210  1  0.00195837  0.11617304  0.25514291  1
  Pb  Pb211  1  -0.00238922  0.45452041  0.25604906  1
  Pb  Pb212  1  -0.00149818  0.78804619  0.24983142  1
  Pb  Pb213  1  0.50064482  0.12185437  0.23955225  1
  Pb  Pb214  1  0.50145951  0.45283432  0.24080307  1
  Pb  Pb215  1  0.49365329  0.78444508  0.24965044  1
  C  C216  1  -0.00346106  0.04491674  0.63172706  1
  C  C217  1  0.00010439  0.38136352  0.62807296  1
  C  C218  1  0.00046666  0.71310998  0.62881604  1
  C  C219  1  0.49244413  0.04522436  0.63143939  1
  C  C220  1  0.49945395  0.37987341  0.63206891  1
  C  C221  1  0.50434128  0.71296482  0.63496685  1
  C  C222  1  0.00219866  0.28787388  0.12998134  1
  C  C223  1  -0.00240168  0.62075718  0.13345800  1
  C  C224  1  -0.00174648  0.95281214  0.13251561  1
  C  C225  1  0.50666996  0.28677974  0.13079723  1
  C  C226  1  0.49606573  0.61978746  0.13292871  1
  C  C227  1  0.49842582  0.95239350  0.13191859  1
  C  C228  1  0.00204960  0.04578273  0.86797570  1
  C  C229  1  -0.00049937  0.38053910  0.86813785  1
  C  C230  1  0.00383266  0.71375261  0.87011900  1
  C  C231  1  0.50388066  0.04621581  0.86661398  1
  C  C232  1  0.49855686  0.37926861  0.86871222  1
  C  C233  1  0.50014455  0.71308037  0.86818089  1
  C  C234  1  0.00423122  0.28853828  0.36773751  1
  C  C235  1  0.00131446  0.62091082  0.36908117  1
  C  C236  1  0.00196999  0.95274205  0.37188033  1
  C  C237  1  0.50339081  0.28817379  0.36565954  1
  C  C238  1  0.50274615  0.61879666  0.37036973  1
  C  C239  1  0.50018865  0.95430682  0.36675510  1
  C  C240  1  0.24668748  0.21403391  0.63316009  1
  C  C241  1  0.24582476  0.54520316  0.62856027  1
  C  C242  1  0.24936453  0.87951345  0.63021665  1
  C  C243  1  0.75063957  0.21361235  0.63362660  1
  C  C244  1  0.74733882  0.54546217  0.63142474  1
  C  C245  1  0.74681675  0.87941043  0.63090584  1
  C  C246  1  0.25112249  0.12010129  0.13070970  1
  C  C247  1  0.25086831  0.45378613  0.13510018  1
  C  C248  1  0.24949097  0.78828534  0.13152722  1
  C  C249  1  0.74571273  0.12167680  0.13364620  1
  C  C250  1  0.74872793  0.45284139  0.12818374  1
  C  C251  1  0.74893620  0.78631422  0.12991914  1
  C  C252  1  0.24738464  0.21477201  0.87133130  1
  C  C253  1  0.25251230  0.54630575  0.86594005  1
  C  C254  1  0.25262300  0.88034577  0.87053594  1
  C  C255  1  0.74813290  0.21368402  0.86843980  1
  C  C256  1  0.75679701  0.54572796  0.86591737  1
  C  C257  1  0.75091233  0.87900540  0.86620780  1
  C  C258  1  0.25509952  0.11990512  0.36925579  1
  C  C259  1  0.24971942  0.45323668  0.37142340  1
  C  C260  1  0.25106763  0.78843461  0.36765627  1
  C  C261  1  0.75603189  0.11980488  0.36788485  1
  C  C262  1  0.75380059  0.45443625  0.36849801  1
  C  C263  1  0.74717218  0.78705823  0.36685752  1
  C  C264  1  0.27097061  0.91168454  0.53580035  1
  C  C265  1  0.28405080  0.90838453  0.96564054  1
  C  C266  1  0.23649921  0.57189981  0.96462995  1
  C  C267  1  0.53304108  0.40524253  0.53634860  1
  C  C268  1  0.26871978  0.42944708  0.03636664  1
  C  C269  1  0.30968313  0.42869202  0.45832980  1
  C  C270  1  0.28034613  0.24254695  0.53998152  1
  C  C271  1  0.31636457  0.56913099  0.95226722  1
  C  C272  1  0.52944433  0.25684867  0.03600180  1
  C  C273  1  0.06958996  0.25996256  0.04632125  1
  C  C274  1  0.44612553  0.92805249  0.04131034  1
  C  C275  1  0.06065552  0.59585170  0.45661109  1
  C  C276  1  0.72580398  0.90476275  0.96151135  1
  C  C277  1  0.32118276  0.09345864  0.45393354  1
  C  C278  1  0.23004275  0.42646923  0.46734494  1
  C  C279  1  0.98016151  0.59308702  0.46643976  1
  C  C280  1  0.48198485  0.74023167  0.53955304  1
  C  C281  1  0.55428474  0.40599971  0.95803045  1
  C  C282  1  0.97816465  0.07092176  0.96507792  1
  C  C283  1  0.71040456  0.75965300  0.45948555  1
  C  C284  1  0.53496032  0.26124932  0.46160535  1
  C  C285  1  0.72946629  0.42098615  0.03158252  1
  C  C286  1  0.98111905  0.73863314  0.53136115  1
  C  C287  1  0.97835407  0.26397414  0.46450544  1
  C  C288  1  0.93346368  0.59749060  0.04720425  1
  C  C289  1  0.70157592  0.57582841  0.54156714  1
  C  C290  1  0.45366286  0.26272960  0.45665057  1
  C  C291  1  0.94711730  0.40594487  0.95837372  1
  C  C292  1  0.77915985  0.42388491  0.46258631  1
  C  C293  1  0.02857678  0.40826455  0.96438747  1
  C  C294  1  0.27476058  0.57385728  0.53234246  1
  C  C295  1  0.18840316  0.43215723  0.04770565  1
  C  C296  1  0.79318181  0.09293440  0.04340577  1
  C  C297  1  0.20231366  0.90552139  0.96236692  1
  C  C298  1  0.97024277  0.92119167  0.46641366  1
  C  C299  1  0.06155136  0.73618457  0.54070033  1
  C  C300  1  0.03917343  0.40788225  0.53581630  1
  C  C301  1  0.44760053  0.59372574  0.04114596  1
  C  C302  1  0.01363104  0.59444975  0.03510017  1
  C  C303  1  0.95865978  0.40716586  0.53618268  1
  C  C304  1  0.52961853  0.59315496  0.03768265  1
  C  C305  1  0.71763436  0.09267064  0.46137643  1
  C  C306  1  0.04784018  0.92510424  0.04306106  1
  C  C307  1  0.79719229  0.57269345  0.95807449  1
  C  C308  1  0.02229846  0.74304599  0.96602012  1
  C  C309  1  0.52751755  0.92682772  0.03517584  1
  C  C310  1  0.69147035  0.24438419  0.95612535  1
  C  C311  1  0.45094376  0.40451872  0.53982591  1
  N  N312  1  0.19382797  0.90813157  0.54125149  1
  N  N313  1  0.20282908  0.24538571  0.96017104  1
  N  N314  1  0.27042213  0.76149062  0.03733892  1
  N  N315  1  0.45220599  0.25925115  0.04084773  1
  N  N316  1  0.94553422  0.74001904  0.95889071  1
  N  N317  1  0.44858196  0.07172002  0.54153554  1
  N  N318  1  0.26241478  0.08999359  0.03635556  1
  N  N319  1  0.76889909  0.23958991  0.53881699  1
  N  N320  1  0.55057159  0.92742294  0.45697465  1
  N  N321  1  0.55749521  0.73846635  0.95649340  1
  N  N322  1  0.47569593  0.40772826  0.96317696  1
  N  N323  1  0.47426982  0.92597117  0.46241445  1
  N  N324  1  0.18560564  0.09458040  0.04610869  1
  N  N325  1  0.46773981  0.60000498  0.46526913  1
  N  N326  1  0.52672396  0.07311868  0.53712999  1
  N  N327  1  0.45390718  0.07146987  0.95582098  1
  N  N328  1  0.53458060  0.06548424  0.96228729  1
  N  N329  1  0.05672926  0.07217455  0.95540610  1
  N  N330  1  0.76992611  0.24470200  0.96226106  1
  N  N331  1  0.80469566  0.90580134  0.95624172  1
  N  N332  1  0.78282887  0.90731922  0.53683907  1
  N  N333  1  0.80704344  0.42594729  0.04198952  1
  N  N334  1  0.77907757  0.57619239  0.53629061  1
  N  N335  1  0.26829134  0.75892952  0.46165676  1
  N  N336  1  0.54605761  0.58731540  0.45933918  1
  N  N337  1  0.01112657  0.07546396  0.53778580  1
  N  N338  1  0.70476944  0.90749448  0.54144811  1
  N  N339  1  0.47997416  0.74073566  0.96207702  1
  N  N340  1  0.19136181  0.76111398  0.45353578  1
  N  N341  1  0.69149877  0.23653775  0.54540175  1
  N  N342  1  0.93383671  0.07197623  0.54624135  1
  N  N343  1  0.19634089  0.57186948  0.53926137  1
  N  N344  1  0.24342655  0.09004189  0.46478005  1
  N  N345  1  0.19299930  0.76333535  0.04296888  1
  N  N346  1  0.71668891  0.75953109  0.03460524  1
  N  N347  1  0.28050926  0.23320887  0.96671202  1
  N  N348  1  0.56088111  0.73792157  0.54540691  1
  N  N349  1  0.04902418  0.92407702  0.46115009  1
  N  N350  1  0.99195914  0.25686788  0.03477456  1
  N  N351  1  0.71349824  0.09207277  0.04087519  1
  N  N352  1  0.71784415  0.57237792  0.96052616  1
  N  N353  1  0.20098994  0.24221298  0.54068899  1
  N  N354  1  0.70172778  0.42451774  0.45831427  1
  N  N355  1  0.79464150  0.76030374  0.04075899  1
  N  N356  1  0.78960433  0.76007094  0.46039108  1
  N  N357  1  0.79731293  0.09152273  0.45897162  1
  N  N358  1  0.05729904  0.26356433  0.45615124  1
  N  N359  1  0.97067085  0.92440026  0.03582172  1
  N  N360  1  0.05065310  0.05664550  0.58858411  1
  N  N361  1  0.06491503  0.39233836  0.59193719  1
  N  N362  1  0.07225801  0.72030997  0.60229596  1
  N  N363  1  0.55346365  0.05706857  0.59339046  1
  N  N364  1  0.56171769  0.39012748  0.59418177  1
  N  N365  1  0.57300383  0.72121976  0.60520097  1
  N  N366  1  0.43809168  0.27774481  0.10152666  1
  N  N367  1  0.42852252  0.61005578  0.10073062  1
  N  N368  1  0.42925487  0.94319738  0.09984819  1
  N  N369  1  0.94957844  0.27662472  0.08571677  1
  N  N370  1  0.92447375  0.61297722  0.10678862  1
  N  N371  1  0.93953925  0.94215138  0.09287574  1
  N  N372  1  0.43673902  0.04869654  0.89935657  1
  N  N373  1  0.44016092  0.39019923  0.90872873  1
  N  N374  1  0.44314177  0.72477903  0.90913322  1
  N  N375  1  0.94354539  0.05576810  0.91049278  1
  N  N376  1  0.93039459  0.38957892  0.89979335  1
  N  N377  1  0.93396585  0.72140820  0.89787792  1
  N  N378  1  0.07288420  0.27943547  0.39688623  1
  N  N379  1  0.07307423  0.61243492  0.39750118  1
  N  N380  1  0.06926030  0.94380032  0.40295426  1
  N  N381  1  0.56494284  0.27725844  0.40373516  1
  N  N382  1  0.56811501  0.60948311  0.40400063  1
  N  N383  1  0.56780166  0.94503964  0.39761192  1
  N  N384  1  0.30958494  0.22521650  0.59614731  1
  N  N385  1  0.30586476  0.55769880  0.58796015  1
  N  N386  1  0.30736567  0.89445091  0.58911100  1
  N  N387  1  0.80667554  0.22723048  0.59255233  1
  N  N388  1  0.80772541  0.55663549  0.59349464  1
  N  N389  1  0.80846018  0.89015029  0.59300150  1
  N  N390  1  0.17922143  0.11112062  0.10550906  1
  N  N391  1  0.17824929  0.44659780  0.10733326  1
  N  N392  1  0.18050452  0.77866160  0.10194208  1
  N  N393  1  0.68427989  0.11370527  0.09558279  1
  N  N394  1  0.69284568  0.43776429  0.08492595  1
  N  N395  1  0.68872795  0.77537048  0.09066233  1
  N  N396  1  0.18147569  0.22454771  0.90427066  1
  N  N397  1  0.19742488  0.55730332  0.90926534  1
  N  N398  1  0.18444123  0.88846660  0.90182016  1
  N  N399  1  0.67767241  0.22543027  0.89796754  1
  N  N400  1  0.69445301  0.55548975  0.90267659  1
  N  N401  1  0.69096279  0.88928785  0.90641366  1
  N  N402  1  0.32873665  0.11134896  0.39457787  1
  N  N403  1  0.32154758  0.44495872  0.39909875  1
  N  N404  1  0.30641546  0.77806767  0.41044265  1
  N  N405  1  0.82076517  0.10934432  0.40165652  1
  N  N406  1  0.81356272  0.44192935  0.40883952  1
  N  N407  1  0.81074669  0.77709321  0.40245515  1
  N  N408  1  0.43505896  0.27882001  0.39859731  1
  N  N409  1  0.44048055  0.60775163  0.40662007  1
  N  N410  1  0.44182216  0.94211235  0.40661011  1
  N  N411  1  0.94509429  0.27824531  0.40929199  1
  N  N412  1  0.94408459  0.60916679  0.41048239  1
  N  N413  1  0.94081880  0.93919774  0.41137234  1
  N  N414  1  0.07117623  0.05608023  0.89588823  1
  N  N415  1  0.05992681  0.39196075  0.90675842  1
  N  N416  1  0.06051883  0.72698478  0.91299087  1
  N  N417  1  0.56373835  0.06139895  0.90381473  1
  N  N418  1  0.56850724  0.38893335  0.89937109  1
  N  N419  1  0.56943566  0.72193781  0.89760728  1
  N  N420  1  0.07598470  0.27806758  0.10569027  1
  N  N421  1  0.05271944  0.60935649  0.09026224  1
  N  N422  1  0.06715803  0.94227418  0.10165308  1
  N  N423  1  0.56545746  0.27338122  0.08975165  1
  N  N424  1  0.55827740  0.60911346  0.09516426  1
  N  N425  1  0.55919462  0.94215937  0.09286305  1
  N  N426  1  0.42659483  0.05412561  0.59844090  1
  N  N427  1  0.43199468  0.38887717  0.59969334  1
  N  N428  1  0.44592831  0.72486756  0.59401217  1
  N  N429  1  0.92548645  0.05497847  0.60544887  1
  N  N430  1  0.93437394  0.39119892  0.59255097  1
  N  N431  1  0.94412155  0.72464306  0.58434042  1
  N  N432  1  0.20198756  0.10793962  0.41287607  1
  N  N433  1  0.19298973  0.44137984  0.41440976  1
  N  N434  1  0.18090099  0.77795515  0.39484586  1
  N  N435  1  0.69174454  0.10957883  0.40466957  1
  N  N436  1  0.68602069  0.44367666  0.39817684  1
  N  N437  1  0.68263644  0.77583057  0.40227096  1
  N  N438  1  0.30909684  0.22483668  0.90866746  1
  N  N439  1  0.32576528  0.55396087  0.89261238  1
  N  N440  1  0.31411654  0.89315329  0.91022762  1
  N  N441  1  0.80612002  0.22426426  0.90902772  1
  N  N442  1  0.82224253  0.55654529  0.90024381  1
  N  N443  1  0.81852534  0.88963890  0.89678338  1
  N  N444  1  0.30384384  0.10870367  0.08648201  1
  N  N445  1  0.30679256  0.44310252  0.09217376  1
  N  N446  1  0.30681193  0.77832996  0.09024482  1
  N  N447  1  0.81337186  0.10950110  0.10136534  1
  N  N448  1  0.81917543  0.44549729  0.10139034  1
  N  N449  1  0.81552164  0.77662854  0.09826449  1
  N  N450  1  0.18152775  0.22428297  0.59963111  1
  N  N451  1  0.17808503  0.55424662  0.59828313  1
  N  N452  1  0.18040259  0.88799225  0.60139238  1
  N  N453  1  0.68084855  0.21970064  0.60420695  1
  N  N454  1  0.67980567  0.55724023  0.59926275  1
  N  N455  1  0.68121738  0.89040136  0.59822660  1
  Cl  Cl456  1  0.23705564  0.05808102  0.60421524  1
  Cl  Cl457  1  0.24920593  0.38507639  0.62662536  1
  Cl  Cl458  1  0.26373957  0.72570771  0.61126855  1
  Cl  Cl459  1  0.73883904  0.05575532  0.61573743  1
  Cl  Cl460  1  0.74839533  0.38262284  0.62110568  1
  Cl  Cl461  1  0.75980644  0.72081106  0.61326911  1
  Cl  Cl462  1  0.25568123  0.27717394  0.10923889  1
  Cl  Cl463  1  0.24024418  0.61444607  0.11684995  1
  Cl  Cl464  1  0.24793429  0.95000299  0.12286965  1
  Cl  Cl465  1  0.76249496  0.27478348  0.10273524  1
  Cl  Cl466  1  0.74219441  0.61379941  0.12143815  1
  Cl  Cl467  1  0.74810531  0.94580724  0.11367104  1
  Cl  Cl468  1  0.25626258  0.06098038  0.89039351  1
  Cl  Cl469  1  0.25436628  0.38631021  0.89067620  1
  Cl  Cl470  1  0.25845715  0.72711617  0.89447753  1
  Cl  Cl471  1  0.74897941  0.06087218  0.89710479  1
  Cl  Cl472  1  0.74955520  0.38324129  0.88509541  1
  Cl  Cl473  1  0.75185085  0.71951563  0.87766972  1
  Cl  Cl474  1  0.25289772  0.28200076  0.37762500  1
  Cl  Cl475  1  0.25806756  0.61359659  0.38581118  1
  Cl  Cl476  1  0.25525989  0.94814118  0.38957882  1
  Cl  Cl477  1  0.76052249  0.27716712  0.38929964  1
  Cl  Cl478  1  0.75142553  0.60967443  0.38413136  1
  Cl  Cl479  1  0.75204564  0.94688923  0.38338405  1
  Cl  Cl480  1  -0.00741757  0.22439084  0.61137193  1
  Cl  Cl481  1  -0.00589403  0.55252503  0.61669248  1
  Cl  Cl482  1  -0.00574895  0.88918758  0.60892822  1
  Cl  Cl483  1  0.49496464  0.21881693  0.61862107  1
  Cl  Cl484  1  0.49326669  0.55768482  0.60719241  1
  Cl  Cl485  1  0.49633266  0.88764550  0.61851742  1
  Cl  Cl486  1  -0.00504741  0.11356916  0.12022254  1
  Cl  Cl487  1  -0.00186583  0.44771209  0.12301097  1
  Cl  Cl488  1  -0.00187561  0.78018230  0.11726976  1
  Cl  Cl489  1  0.49439820  0.10648691  0.09780862  1
  Cl  Cl490  1  0.49708899  0.43816878  0.10377920  1
  Cl  Cl491  1  0.49135928  0.77611077  0.10561963  1
  Cl  Cl492  1  -0.00748092  0.22631651  0.89471785  1
  Cl  Cl493  1  0.01017668  0.55640935  0.88415131  1
  Cl  Cl494  1  0.00197119  0.88137477  0.87236655  1
  Cl  Cl495  1  0.49245932  0.21520897  0.88504895  1
  Cl  Cl496  1  0.50994459  0.54879310  0.87662014  1
  Cl  Cl497  1  0.50300267  0.88861036  0.88606571  1
  Cl  Cl498  1  0.01507586  0.10598090  0.39909472  1
  Cl  Cl499  1  0.00213793  0.44579964  0.38777587  1
  Cl  Cl500  1  -0.00399955  0.78428397  0.38307449  1
  Cl  Cl501  1  0.50884168  0.11536127  0.37098891  1
  Cl  Cl502  1  0.50395744  0.44943941  0.37372844  1
  Cl  Cl503  1  0.48818065  0.77272611  0.38595998  1
  Cl  Cl504  1  0.35829026  0.14534039  0.75207940  1
  Cl  Cl505  1  0.36159756  0.47767036  0.75132104  1
  Cl  Cl506  1  0.36068606  0.81465888  0.75209614  1
  Cl  Cl507  1  0.85902630  0.14636833  0.74926799  1
  Cl  Cl508  1  0.86220690  0.47847493  0.75249589  1
  Cl  Cl509  1  0.85914479  0.81542322  0.75289901  1
  Cl  Cl510  1  0.13800873  0.18799711  0.24426841  1
  Cl  Cl511  1  0.14061708  0.52070725  0.25115572  1
  Cl  Cl512  1  0.13770262  0.85426430  0.25261310  1
  Cl  Cl513  1  0.63968523  0.18743839  0.24733574  1
  Cl  Cl514  1  0.63693776  0.52022922  0.25132202  1
  Cl  Cl515  1  0.64315114  0.85376872  0.24815166  1
  Cl  Cl516  1  0.13780112  0.14642785  0.75508095  1
  Cl  Cl517  1  0.14018531  0.48008443  0.75059017  1
  Cl  Cl518  1  0.13972376  0.81236897  0.74452154  1
  Cl  Cl519  1  0.64014210  0.14463412  0.75182677  1
  Cl  Cl520  1  0.63803514  0.47846488  0.74900612  1
  Cl  Cl521  1  0.63795151  0.81129696  0.74605167  1
  Cl  Cl522  1  0.36071654  0.18590841  0.25144756  1
  Cl  Cl523  1  0.36349777  0.52018951  0.25281669  1
  Cl  Cl524  1  0.35870204  0.85252800  0.24899314  1
  Cl  Cl525  1  0.85787194  0.18752562  0.25164612  1
  Cl  Cl526  1  0.85946464  0.51951593  0.24358875  1
  Cl  Cl527  1  0.86345287  0.85482974  0.24872135  1
  Cl  Cl528  1  0.10912059  0.30983228  0.75019121  1
  Cl  Cl529  1  0.11594636  0.64597014  0.74333874  1
  Cl  Cl530  1  0.11193631  0.97945229  0.75280070  1
  Cl  Cl531  1  0.61276019  0.31042664  0.75416860  1
  Cl  Cl532  1  0.60994800  0.64534298  0.74952130  1
  Cl  Cl533  1  0.60784057  0.98244987  0.74844634  1
  Cl  Cl534  1  0.38876205  0.02088943  0.24666525  1
  Cl  Cl535  1  0.38858576  0.35283600  0.24705249  1
  Cl  Cl536  1  0.39245239  0.68852337  0.24887418  1
  Cl  Cl537  1  0.89248371  0.02297842  0.25383991  1
  Cl  Cl538  1  0.89233722  0.35094919  0.24851977  1
  Cl  Cl539  1  0.88748534  0.68701094  0.24667081  1
  Cl  Cl540  1  0.39110895  0.31261167  0.75125428  1
  Cl  Cl541  1  0.38794137  0.64574318  0.75367512  1
  Cl  Cl542  1  0.38494815  0.97960966  0.75351333  1
  Cl  Cl543  1  0.88931707  0.31244638  0.75197382  1
  Cl  Cl544  1  0.89245225  0.64849051  0.75283343  1
  Cl  Cl545  1  0.89060977  0.98147878  0.74821002  1
  Cl  Cl546  1  0.11110297  0.02328599  0.25011222  1
  Cl  Cl547  1  0.11318395  0.35511539  0.24478022  1
  Cl  Cl548  1  0.11260845  0.68814485  0.25661091  1
  Cl  Cl549  1  0.61182889  0.02117321  0.24567123  1
  Cl  Cl550  1  0.61197310  0.35220317  0.24818962  1
  Cl  Cl551  1  0.61029260  0.68719271  0.25252636  1
