# generated using pymatgen
data_H8PbC4(N3Cl2)2
_symmetry_space_group_name_H-M   'P 1'
_cell_length_a   16.62239061
_cell_length_b   22.50264128
_cell_length_c   21.58891206
_cell_angle_alpha   90.00035740
_cell_angle_beta   90.00900720
_cell_angle_gamma   90.00349985
_symmetry_Int_Tables_number   1
_chemical_formula_structural   H8PbC4(N3Cl2)2
_chemical_formula_sum   'H192 Pb24 C96 N144 Cl96'
_cell_volume   8075.28264060
_cell_formula_units_Z   24
loop_
 _symmetry_equiv_pos_site_id
 _symmetry_equiv_pos_as_xyz
  1  'x, y, z'
loop_
 _atom_site_type_symbol
 _atom_site_label
 _atom_site_symmetry_multiplicity
 _atom_site_fract_x
 _atom_site_fract_y
 _atom_site_fract_z
 _atom_site_occupancy
  H  H0  1  0.00094698  0.02811702  0.68102026  1
  H  H1  1  0.00071350  0.36494874  0.67704195  1
  H  H2  1  0.00581506  0.70036825  0.67880903  1
  H  H3  1  0.50230719  0.03078422  0.67865833  1
  H  H4  1  0.50798916  0.36568517  0.68159826  1
  H  H5  1  0.50104252  0.70066282  0.67681958  1
  H  H6  1  -0.00030181  0.30210688  0.17833728  1
  H  H7  1  -0.00151934  0.63428781  0.18189848  1
  H  H8  1  0.00401288  0.96783683  0.17982984  1
  H  H9  1  0.50308190  0.30219252  0.17981531  1
  H  H10  1  0.49986149  0.63506478  0.17936766  1
  H  H11  1  0.49023341  0.96803619  0.18019359  1
  H  H12  1  -0.00554088  0.03183079  0.81771399  1
  H  H13  1  0.00021637  0.36507595  0.82002385  1
  H  H14  1  -0.00597922  0.69858914  0.81683620  1
  H  H15  1  0.50394880  0.03287675  0.81960373  1
  H  H16  1  0.49228128  0.36421661  0.81923573  1
  H  H17  1  0.49808965  0.70136100  0.81855622  1
  H  H18  1  0.00454791  0.30043953  0.31887246  1
  H  H19  1  0.00876300  0.63790350  0.31983306  1
  H  H20  1  -0.00418844  0.96853884  0.32179563  1
  H  H21  1  0.49497671  0.30118245  0.31915206  1
  H  H22  1  0.48844476  0.63596635  0.31767672  1
  H  H23  1  0.50442726  0.96921108  0.32035618  1
  H  H24  1  0.25253205  0.19809456  0.68066472  1
  H  H25  1  0.24986550  0.53218161  0.68198727  1
  H  H26  1  0.24496379  0.86337790  0.67965351  1
  H  H27  1  0.74127763  0.19744779  0.67939573  1
  H  H28  1  0.74564213  0.53117427  0.68237574  1
  H  H29  1  0.74915830  0.86612339  0.68005733  1
  H  H30  1  0.24592040  0.13616414  0.17700805  1
  H  H31  1  0.25724937  0.46661761  0.17943013  1
  H  H32  1  0.25428609  0.80174287  0.18113368  1
  H  H33  1  0.74963824  0.13283115  0.18079552  1
  H  H34  1  0.74186327  0.46848727  0.18176342  1
  H  H35  1  0.75159316  0.80070401  0.18236652  1
  H  H36  1  0.25868323  0.19802552  0.81954330  1
  H  H37  1  0.25202784  0.53179977  0.81966482  1
  H  H38  1  0.24561236  0.86563527  0.82078379  1
  H  H39  1  0.74375780  0.19743323  0.82051278  1
  H  H40  1  0.74636001  0.53139324  0.81900553  1
  H  H41  1  0.75194594  0.86539226  0.81881105  1
  H  H42  1  0.25318476  0.13310683  0.31989570  1
  H  H43  1  0.25523457  0.46731418  0.32130857  1
  H  H44  1  0.25195207  0.80364208  0.32261931  1
  H  H45  1  0.75016474  0.13463394  0.32000394  1
  H  H46  1  0.74311588  0.46717259  0.31978255  1
  H  H47  1  0.74209968  0.79951128  0.32225117  1
  H  H48  1  0.12367076  0.05358053  0.60795422  1
  H  H49  1  0.11809123  0.38962168  0.60174661  1
  H  H50  1  0.12328402  0.72294757  0.60301201  1
  H  H51  1  0.62396891  0.05606642  0.60655359  1
  H  H52  1  0.61859720  0.39012821  0.60074021  1
  H  H53  1  0.62396147  0.72154482  0.60707189  1
  H  H54  1  0.37051087  0.28131727  0.11615928  1
  H  H55  1  0.37539733  0.61167711  0.11022245  1
  H  H56  1  0.37409847  0.94385604  0.10274188  1
  H  H57  1  0.87108312  0.27859390  0.11294862  1
  H  H58  1  0.87679174  0.61144840  0.10946390  1
  H  H59  1  0.87043949  0.94889196  0.11749312  1
  H  H60  1  0.37109343  0.05096823  0.88216295  1
  H  H61  1  0.37993368  0.39039252  0.90041271  1
  H  H62  1  0.38225269  0.72227112  0.89469392  1
  H  H63  1  0.87198640  0.05416642  0.89033316  1
  H  H64  1  0.88159789  0.38903618  0.89494527  1
  H  H65  1  0.88007292  0.72207380  0.89578471  1
  H  H66  1  0.11782620  0.27696524  0.39649353  1
  H  H67  1  0.12090443  0.61058298  0.40052536  1
  H  H68  1  0.12218080  0.94604352  0.39108841  1
  H  H69  1  0.62207700  0.28117688  0.38826494  1
  H  H70  1  0.62584171  0.61728422  0.37747287  1
  H  H71  1  0.61973866  0.94253725  0.39836792  1
  H  H72  1  0.37567042  0.22034523  0.60822718  1
  H  H73  1  0.37656623  0.55518817  0.61454581  1
  H  H74  1  0.37635497  0.88473962  0.61411965  1
  H  H75  1  0.87754424  0.21882746  0.62069060  1
  H  H76  1  0.87462199  0.55302751  0.61388021  1
  H  H77  1  0.88229528  0.88395575  0.61715245  1
  H  H78  1  0.12952745  0.10787296  0.10122547  1
  H  H79  1  0.11706005  0.44920318  0.12712516  1
  H  H80  1  0.12203298  0.78182213  0.11841110  1
  H  H81  1  0.62679480  0.11300456  0.11015829  1
  H  H82  1  0.62327166  0.44635553  0.10788374  1
  H  H83  1  0.62052446  0.78045180  0.11534679  1
  H  H84  1  0.12807321  0.22047139  0.88589055  1
  H  H85  1  0.12769830  0.55401779  0.89078782  1
  H  H86  1  0.13158263  0.89116177  0.90020845  1
  H  H87  1  0.63272158  0.22121204  0.90131107  1
  H  H88  1  0.62217141  0.55461391  0.89106804  1
  H  H89  1  0.62570185  0.88668118  0.88800057  1
  H  H90  1  0.37575836  0.11252065  0.39263365  1
  H  H91  1  0.37740954  0.44077240  0.39241117  1
  H  H92  1  0.37559121  0.77877564  0.39325001  1
  H  H93  1  0.87663547  0.11285699  0.39045644  1
  H  H94  1  0.88292793  0.44913783  0.37322925  1
  H  H95  1  0.87662317  0.78391990  0.38208833  1
  H  H96  1  0.37354781  0.27587162  0.39179146  1
  H  H97  1  0.37868919  0.61210659  0.40017035  1
  H  H98  1  0.37078572  0.94950442  0.38164721  1
  H  H99  1  0.86982968  0.28157129  0.37914824  1
  H  H100  1  0.87319608  0.61669754  0.37770543  1
  H  H101  1  0.87313793  0.94386188  0.39350728  1
  H  H102  1  0.12127266  0.05344045  0.88804998  1
  H  H103  1  0.13059531  0.38708503  0.88579839  1
  H  H104  1  0.12838168  0.71985536  0.87991740  1
  H  H105  1  0.61965743  0.05494010  0.89576245  1
  H  H106  1  0.62648899  0.38505543  0.88013245  1
  H  H107  1  0.63091123  0.71747058  0.88184394  1
  H  H108  1  0.11984660  0.27727567  0.10470301  1
  H  H109  1  0.12653538  0.61170253  0.11356772  1
  H  H110  1  0.11896057  0.94313999  0.10084762  1
  H  H111  1  0.61821517  0.27603956  0.10074263  1
  H  H112  1  0.62421430  0.61243087  0.10740773  1
  H  H113  1  0.62244694  0.94986037  0.11496996  1
  H  H114  1  0.37504281  0.05321288  0.60975876  1
  H  H115  1  0.37145838  0.38498348  0.62176577  1
  H  H116  1  0.37493630  0.72082184  0.60975992  1
  H  H117  1  0.87492207  0.05205300  0.61013949  1
  H  H118  1  0.86979880  0.38549803  0.61204370  1
  H  H119  1  0.87481013  0.71994567  0.61707999  1
  H  H120  1  0.12634392  0.11305459  0.38613473  1
  H  H121  1  0.12899351  0.44800775  0.39133511  1
  H  H122  1  0.12631774  0.78034781  0.39258730  1
  H  H123  1  0.62777952  0.11252149  0.39337974  1
  H  H124  1  0.63687964  0.44282138  0.40208355  1
  H  H125  1  0.62907502  0.77780757  0.40034756  1
  H  H126  1  0.37576140  0.22280561  0.89812496  1
  H  H127  1  0.37593601  0.55451652  0.89199860  1
  H  H128  1  0.37986410  0.88730860  0.88112772  1
  H  H129  1  0.88034692  0.21844173  0.87933932  1
  H  H130  1  0.87040244  0.55321345  0.89116836  1
  H  H131  1  0.87485766  0.88903298  0.89281501  1
  H  H132  1  0.37720899  0.11733207  0.11246812  1
  H  H133  1  0.36287836  0.44283659  0.09604914  1
  H  H134  1  0.37116032  0.77735463  0.10373885  1
  H  H135  1  0.87555855  0.11301829  0.11263918  1
  H  H136  1  0.87227352  0.44820151  0.11725578  1
  H  H137  1  0.86958302  0.77925985  0.10548171  1
  H  H138  1  0.12732798  0.22017475  0.61138162  1
  H  H139  1  0.12642933  0.55574397  0.60898795  1
  H  H140  1  0.12774443  0.88815595  0.60384769  1
  H  H141  1  0.63165290  0.22358866  0.59593365  1
  H  H142  1  0.62570538  0.55614028  0.60842928  1
  H  H143  1  0.63311928  0.88634848  0.60333986  1
  H  H144  1  0.19798665  0.91818622  1.00280890  1
  H  H145  1  0.43049553  0.26784506  0.49843769  1
  H  H146  1  0.67183575  0.91645414  0.99747242  1
  H  H147  1  0.08353651  0.58424455  0.00806980  1
  H  H148  1  0.19230285  0.09451617  -0.00240317  1
  H  H149  1  0.85493159  0.24483599  0.98811901  1
  H  H150  1  0.70604647  0.24615712  0.49477956  1
  H  H151  1  0.44065145  0.74883633  1.00554319  1
  H  H152  1  0.17932618  0.58202623  0.50366018  1
  H  H153  1  0.69874754  0.24690585  1.00844042  1
  H  H154  1  0.05393187  0.91708308  -0.00225941  1
  H  H155  1  0.17587565  0.40827100  0.49009769  1
  H  H156  1  0.92580501  0.58317399  0.00024345  1
  H  H157  1  0.09752043  0.41497573  0.99371265  1
  H  H158  1  0.55035219  0.41743024  0.49513093  1
  H  H159  1  0.05624637  0.24832404  0.50557842  1
  H  H160  1  0.34533402  0.08128068  0.00837595  1
  H  H161  1  0.90344354  0.41572909  0.50437560  1
  H  H162  1  0.18011146  0.25971351  0.51174600  1
  H  H163  1  0.31014082  0.75483043  -0.00057067  1
  H  H164  1  0.94397550  0.75083354  1.00211904  1
  H  H165  1  0.31805624  0.21958176  0.50194662  1
  H  H166  1  0.44927405  0.59056325  0.50673486  1
  H  H167  1  0.40169135  0.91849881  0.49330600  1
  H  H168  1  0.32835603  0.42468586  0.49774200  1
  H  H169  1  0.67572042  0.41837022  -0.00211393  1
  H  H170  1  0.70665514  0.41659888  0.50855146  1
  H  H171  1  0.16661260  0.08212554  0.49854402  1
  H  H172  1  0.29174368  0.41573303  -0.00960062  1
  H  H173  1  0.57194762  0.24030747  0.48817444  1
  H  H174  1  0.56422847  0.08133646  1.00481903  1
  H  H175  1  0.44992633  0.41389558  1.00226584  1
  H  H176  1  0.93461848  0.41881464  1.00269245  1
  H  H177  1  0.06548560  0.24880189  0.00079270  1
  H  H178  1  0.68004864  0.58586077  0.50120167  1
  H  H179  1  0.15532087  0.75093815  0.00662398  1
  H  H180  1  0.82760893  0.08394742  0.49498359  1
  H  H181  1  0.33290873  0.58378755  0.50272169  1
  H  H182  1  0.55141624  0.24951019  -0.00135164  1
  H  H183  1  0.89948310  0.58594548  0.49011269  1
  H  H184  1  0.32541215  0.58135161  0.99610085  1
  H  H185  1  0.80941644  0.75267260  -0.00282488  1
  H  H186  1  0.90340034  0.75193634  0.50408931  1
  H  H187  1  0.69150806  0.91199786  0.49267810  1
  H  H188  1  0.92250100  0.08236895  0.99877222  1
  H  H189  1  0.05223852  0.59327135  0.50427389  1
  H  H190  1  0.67335330  0.58325667  0.99476085  1
  H  H191  1  0.55692585  0.91732654  0.50162052  1
  Pb  Pb192  1  0.25051474  0.04541735  0.75135608  1
  Pb  Pb193  1  0.25058714  0.38105249  0.74753239  1
  Pb  Pb194  1  0.25668498  0.71492640  0.75490401  1
  Pb  Pb195  1  0.75219922  0.04617478  0.74830158  1
  Pb  Pb196  1  0.75335936  0.38004021  0.74879103  1
  Pb  Pb197  1  0.75123233  0.71325565  0.75178631  1
  Pb  Pb198  1  0.25288285  0.28460452  0.25637933  1
  Pb  Pb199  1  0.24959475  0.62062491  0.25479351  1
  Pb  Pb200  1  0.24347522  0.95174245  0.24324437  1
  Pb  Pb201  1  0.74395281  0.28501088  0.24747345  1
  Pb  Pb202  1  0.74949040  0.62096848  0.24528316  1
  Pb  Pb203  1  0.75065267  0.95416382  0.25241014  1
  Pb  Pb204  1  0.00251907  0.21233962  0.75276126  1
  Pb  Pb205  1  0.00199521  0.54977391  0.75005087  1
  Pb  Pb206  1  0.00224011  0.87867448  0.75853642  1
  Pb  Pb207  1  0.50294959  0.21373851  0.75113720  1
  Pb  Pb208  1  0.50369203  0.54740155  0.74890353  1
  Pb  Pb209  1  0.50529878  0.88143673  0.74256498  1
  Pb  Pb210  1  -0.00019518  0.12162879  0.24763934  1
  Pb  Pb211  1  0.00022113  0.45135683  0.25199607  1
  Pb  Pb212  1  -0.00323217  0.78665653  0.24816219  1
  Pb  Pb213  1  0.49900959  0.11526929  0.25065474  1
  Pb  Pb214  1  0.49903907  0.45474985  0.24739950  1
  Pb  Pb215  1  0.49934100  0.78799669  0.24888005  1
  C  C216  1  -0.00019476  0.04421026  0.63371662  1
  C  C217  1  -0.00435721  0.38020957  0.62961941  1
  C  C218  1  0.00065318  0.71448408  0.63098740  1
  C  C219  1  0.50015639  0.04663082  0.63144877  1
  C  C220  1  0.49887977  0.38035638  0.63419638  1
  C  C221  1  0.49989800  0.71476750  0.62871442  1
  C  C222  1  -0.00279970  0.28623785  0.13093331  1
  C  C223  1  0.00113034  0.61917614  0.13409588  1
  C  C224  1  -0.00190880  0.95360356  0.13217563  1
  C  C225  1  0.49761124  0.28714450  0.13224667  1
  C  C226  1  0.50010490  0.61991381  0.13192017  1
  C  C227  1  0.49586564  0.95406123  0.13251757  1
  C  C228  1  -0.00381105  0.04670982  0.86545379  1
  C  C229  1  0.00476431  0.38015334  0.86779013  1
  C  C230  1  0.00124250  0.71337852  0.86438803  1
  C  C231  1  0.49843044  0.04638928  0.86757849  1
  C  C232  1  0.49917940  0.37908975  0.86669386  1
  C  C233  1  0.50361109  0.71378736  0.86678081  1
  C  C234  1  -0.00243155  0.28663423  0.36660109  1
  C  C235  1  0.00129567  0.62259177  0.36733628  1
  C  C236  1  -0.00287429  0.95313391  0.36916386  1
  C  C237  1  0.49677061  0.28637599  0.36717461  1
  C  C238  1  0.49779074  0.62158751  0.36515029  1
  C  C239  1  0.49854755  0.95425779  0.36804440  1
  C  C240  1  0.25212280  0.21283589  0.63273632  1
  C  C241  1  0.25046400  0.54711491  0.63408597  1
  C  C242  1  0.25007158  0.87860177  0.63234031  1
  C  C243  1  0.74982327  0.21224065  0.63203810  1
  C  C244  1  0.74895141  0.54636858  0.63471852  1
  C  C245  1  0.75460345  0.87910428  0.63193787  1
  C  C246  1  0.25086988  0.12021361  0.12960710  1
  C  C247  1  0.24568595  0.45316176  0.13202304  1
  C  C248  1  0.24927617  0.78689628  0.13329314  1
  C  C249  1  0.75069071  0.11931557  0.13269054  1
  C  C250  1  0.74546853  0.45430099  0.13392405  1
  C  C251  1  0.74698586  0.78644500  0.13449753  1
  C  C252  1  0.25431232  0.21306275  0.86717490  1
  C  C253  1  0.25214701  0.54706497  0.86730367  1
  C  C254  1  0.25206325  0.88053951  0.86818396  1
  C  C255  1  0.75296446  0.21219948  0.86800033  1
  C  C256  1  0.74598911  0.54654810  0.86666396  1
  C  C257  1  0.75108882  0.88022766  0.86659919  1
  C  C258  1  0.25113059  0.11923046  0.36786653  1
  C  C259  1  0.25387497  0.45210378  0.36918359  1
  C  C260  1  0.25115116  0.78744089  0.36972080  1
  C  C261  1  0.75183903  0.11952235  0.36766455  1
  C  C262  1  0.75422724  0.45329860  0.36707622  1
  C  C263  1  0.74942722  0.78668017  0.37035467  1
  C  C264  1  0.19820702  0.76027934  0.04344747  1
  C  C265  1  0.73712972  0.42729123  0.46532861  1
  C  C266  1  0.29453830  0.57324379  0.54187003  1
  C  C267  1  0.47844722  0.59779683  0.46213151  1
  C  C268  1  0.94473519  0.59506920  0.45489923  1
  C  C269  1  0.97657789  0.73963545  0.95984165  1
  C  C270  1  0.79343850  0.09461412  0.03983565  1
  C  C271  1  0.02334452  0.26018362  0.46374607  1
  C  C272  1  0.55576514  0.73528652  0.95769710  1
  C  C273  1  0.03213999  0.74146215  0.53596870  1
  C  C274  1  0.94916814  0.25842118  0.03922366  1
  C  C275  1  0.28742550  0.75689363  0.46150749  1
  C  C276  1  0.95067666  0.74099750  0.53948148  1
  C  C277  1  0.44573234  0.92751816  0.45719742  1
  C  C278  1  0.72584728  0.90290240  0.53455556  1
  C  C279  1  0.80410660  0.76401494  0.45971577  1
  C  C280  1  0.28952877  0.09377589  0.46205051  1
  C  C281  1  0.72910872  0.23769067  0.96483164  1
  C  C282  1  0.96348453  0.59358037  0.03993455  1
  C  C283  1  0.71181155  0.90601121  0.95905963  1
  C  C284  1  0.94391935  0.92689242  0.04221487  1
  C  C285  1  0.18142636  0.42938318  0.04602332  1
  C  C286  1  0.44535396  0.06876292  0.95870842  1
  C  C287  1  0.97176244  0.40749475  0.96246139  1
  C  C288  1  0.94252179  0.26216324  0.45580460  1
  C  C289  1  0.02848546  0.40806466  0.53384276  1
  C  C290  1  0.53821487  0.74003337  0.53598048  1
  C  C291  1  0.96140217  0.07236416  0.95908517  1
  C  C292  1  0.52699386  0.07093610  0.96465932  1
  C  C293  1  0.46755715  0.92666216  0.03761915  1
  C  C294  1  0.20792097  0.09319359  0.46134047  1
  C  C295  1  0.45761016  0.73988125  0.53693003  1
  C  C296  1  0.71302062  0.42854929  0.03781295  1
  C  C297  1  0.51954751  0.40732326  0.53841935  1
  C  C298  1  0.22078284  0.90866303  0.53866416  1
  C  C299  1  0.96189380  0.92412833  0.46175426  1
  C  C300  1  0.79452509  0.42948256  0.04244894  1
  C  C301  1  0.71203568  0.09449333  0.03893699  1
  C  C302  1  0.71695800  0.57376068  0.54094628  1
  C  C303  1  0.53439334  0.07785687  0.53936382  1
  C  C304  1  0.46104253  0.59221817  0.03924902  1
  C  C305  1  0.77562186  0.76186790  0.03935101  1
  C  C306  1  0.26163682  0.42689551  0.03375027  1
  C  C307  1  0.80704814  0.90189676  0.54108878  1
  C  C308  1  0.72351926  0.76186431  0.46604049  1
  C  C309  1  0.30734533  0.90938877  0.95706768  1
  C  C310  1  0.47475446  0.73774269  0.96404805  1
  C  C311  1  0.81741419  0.42970168  0.45363425  1
  N  N312  1  0.04313023  0.59423423  0.04230825  1
  N  N313  1  0.21502952  0.57273724  0.54096104  1
  N  N314  1  0.45697474  0.07672381  0.53890822  1
  N  N315  1  0.73161463  0.23995988  0.53770283  1
  N  N316  1  0.29096527  0.23815043  0.54004926  1
  N  N317  1  0.78866773  0.57057731  0.96024419  1
  N  N318  1  0.21261529  0.43405295  0.46271167  1
  N  N319  1  0.47810302  0.40728146  0.96054160  1
  N  N320  1  0.44064434  0.40621869  0.54533698  1
  N  N321  1  0.44418252  0.26199366  0.04239598  1
  N  N322  1  0.80791107  0.23808942  0.95561117  1
  N  N323  1  0.94976127  0.40647883  0.53899355  1
  N  N324  1  0.69645400  0.76185500  0.04272111  1
  N  N325  1  0.53898133  0.59221158  0.03745546  1
  N  N326  1  0.80904044  0.23812837  0.54473752  1
  N  N327  1  0.04082174  0.07245517  0.95885074  1
  N  N328  1  0.52200450  0.26023551  0.03878445  1
  N  N329  1  0.79106672  0.90669382  0.96095434  1
  N  N330  1  0.05549297  0.73818083  0.95486487  1
  N  N331  1  0.03929062  0.92462254  0.46231884  1
  N  N332  1  0.55581209  0.40463954  0.95529321  1
  N  N333  1  0.03626733  0.07375522  0.54064393  1
  N  N334  1  0.27770880  0.75807811  0.03970875  1
  N  N335  1  0.46027005  0.25650127  0.45860374  1
  N  N336  1  0.02400021  0.59268243  0.46189701  1
  N  N337  1  0.28411851  0.24044872  0.96255880  1
  N  N338  1  0.55688138  0.59801124  0.45408494  1
  N  N339  1  0.71185167  0.09475021  0.46178702  1
  N  N340  1  0.20910373  0.57129108  0.96079290  1
  N  N341  1  0.22219763  0.08550752  0.03810317  1
  N  N342  1  0.95948621  0.07331080  0.54136485  1
  N  N343  1  0.20754365  0.23964816  0.95869238  1
  N  N344  1  0.52500147  0.92392482  0.46149582  1
  N  N345  1  0.02245993  0.92603068  0.03753854  1
  N  N346  1  0.53951126  0.26823143  0.46017938  1
  N  N347  1  0.29815586  0.90757018  0.54103366  1
  N  N348  1  0.22868315  0.90948773  0.96252577  1
  N  N349  1  0.28766375  0.57012481  0.96008398  1
  N  N350  1  0.54502470  0.92867632  0.04016458  1
  N  N351  1  0.30041664  0.09832174  0.03950099  1
  N  N352  1  0.29100926  0.42009413  0.45967434  1
  N  N353  1  0.02851662  0.25840830  0.03736024  1
  N  N354  1  0.21009497  0.75703372  0.46252597  1
  N  N355  1  0.79616385  0.57252861  0.54235483  1
  N  N356  1  0.71029999  0.57031129  0.95914204  1
  N  N357  1  0.05132585  0.40575501  0.95864437  1
  N  N358  1  0.79001997  0.09508726  0.45917147  1
  N  N359  1  0.20994732  0.22978486  0.53918695  1
  N  N360  1  0.06242542  0.05581998  0.59765996  1
  N  N361  1  0.05722166  0.39207344  0.59021297  1
  N  N362  1  0.06243623  0.72560354  0.59110928  1
  N  N363  1  0.56371886  0.05957976  0.59488998  1
  N  N364  1  0.55664521  0.39187262  0.59256094  1
  N  N365  1  0.56443708  0.72495066  0.59201659  1
  N  N366  1  0.42955023  0.27812675  0.10111340  1
  N  N367  1  0.43510456  0.60880970  0.09640963  1
  N  N368  1  0.43497163  0.94200747  0.09303563  1
  N  N369  1  0.92982233  0.27542293  0.09736916  1
  N  N370  1  0.93716650  0.60904033  0.09696617  1
  N  N371  1  0.92851063  0.94387157  0.10074463  1
  N  N372  1  0.42913984  0.05441185  0.89952917  1
  N  N373  1  0.44192531  0.38928650  0.90786230  1
  N  N374  1  0.44313462  0.72390455  0.90604736  1
  N  N375  1  0.93261493  0.05707226  0.90209451  1
  N  N376  1  0.94252505  0.39171655  0.90608865  1
  N  N377  1  0.94186978  0.72447136  0.90479180  1
  N  N378  1  0.05689644  0.27588425  0.40676598  1
  N  N379  1  0.05885398  0.61355888  0.40862950  1
  N  N380  1  0.06155494  0.94309017  0.40344970  1
  N  N381  1  0.56176691  0.27487683  0.40034395  1
  N  N382  1  0.56708973  0.61311239  0.39388375  1
  N  N383  1  0.55771417  0.94294456  0.40730262  1
  N  N384  1  0.31544721  0.21706753  0.59590637  1
  N  N385  1  0.31698630  0.55747879  0.59967516  1
  N  N386  1  0.31665168  0.88835279  0.60071755  1
  N  N387  1  0.81979318  0.22247328  0.60400133  1
  N  N388  1  0.81445932  0.55533604  0.60116325  1
  N  N389  1  0.82388096  0.88762308  0.59989668  1
  N  N390  1  0.19089846  0.10892886  0.09108218  1
  N  N391  1  0.17257652  0.44504590  0.10567560  1
  N  N392  1  0.18029902  0.77681073  0.10198159  1
  N  N393  1  0.68649460  0.10960834  0.09582828  1
  N  N394  1  0.68354577  0.44398577  0.09600606  1
  N  N395  1  0.68043277  0.77708413  0.10201972  1
  N  N396  1  0.18799419  0.22297616  0.89950130  1
  N  N397  1  0.18799840  0.55631842  0.90288751  1
  N  N398  1  0.19349843  0.89037088  0.90837628  1
  N  N399  1  0.69450653  0.22226172  0.91026300  1
  N  N400  1  0.68294946  0.55719819  0.90224510  1
  N  N401  1  0.68571441  0.88994589  0.90148344  1
  N  N402  1  0.31559926  0.10919824  0.40567315  1
  N  N403  1  0.31713599  0.44268605  0.40523561  1
  N  N404  1  0.31550993  0.77504507  0.40554097  1
  N  N405  1  0.81595682  0.10943031  0.40231262  1
  N  N406  1  0.82696616  0.44512972  0.39392079  1
  N  N407  1  0.81947794  0.77905906  0.40083179  1
  N  N408  1  0.43389860  0.27938478  0.40414620  1
  N  N409  1  0.44038912  0.61129115  0.40761152  1
  N  N410  1  0.42906292  0.94513036  0.39884413  1
  N  N411  1  0.92737748  0.27796687  0.39730789  1
  N  N412  1  0.93076237  0.61158187  0.39591671  1
  N  N413  1  0.93318821  0.94116904  0.40558951  1
  N  N414  1  0.06056063  0.05648563  0.90009392  1
  N  N415  1  0.07100175  0.38861153  0.90035302  1
  N  N416  1  0.06920569  0.72209077  0.89494234  1
  N  N417  1  0.55870586  0.05677173  0.90675486  1
  N  N418  1  0.56819338  0.38914161  0.89612421  1
  N  N419  1  0.57286130  0.72117452  0.89905770  1
  N  N420  1  0.05865312  0.27610122  0.09385747  1
  N  N421  1  0.06619248  0.60970188  0.10040739  1
  N  N422  1  0.05715203  0.94341683  0.09256698  1
  N  N423  1  0.55644340  0.27625578  0.09266023  1
  N  N424  1  0.56323142  0.60975066  0.09635804  1
  N  N425  1  0.56269294  0.94612749  0.10065030  1
  N  N426  1  0.43540505  0.05706263  0.59764926  1
  N  N427  1  0.42975596  0.38926864  0.60532910  1
  N  N428  1  0.43378999  0.72467802  0.59362644  1
  N  N429  1  0.93575095  0.05495415  0.59896103  1
  N  N430  1  0.92909317  0.38944113  0.59780971  1
  N  N431  1  0.93273542  0.72389632  0.59980988  1
  N  N432  1  0.18529582  0.10942818  0.40160068  1
  N  N433  1  0.18932355  0.44183524  0.40315768  1
  N  N434  1  0.18717419  0.77644268  0.40414130  1
  N  N435  1  0.68865389  0.10983813  0.40429495  1
  N  N436  1  0.69855853  0.44223504  0.41004745  1
  N  N437  1  0.69008709  0.77572848  0.41140077  1
  N  N438  1  0.31431295  0.22366204  0.90612489  1
  N  N439  1  0.31507652  0.55688329  0.90323200  1
  N  N440  1  0.32197330  0.89178320  0.89860832  1
  N  N441  1  0.82207973  0.22179368  0.89629296  1
  N  N442  1  0.81000503  0.55516135  0.90274085  1
  N  N443  1  0.81383940  0.89059827  0.90294349  1
  N  N444  1  0.31817700  0.11059355  0.09846445  1
  N  N445  1  0.30077796  0.44223871  0.08866889  1
  N  N446  1  0.30912509  0.77694925  0.09435435  1
  N  N447  1  0.81637716  0.10969307  0.09746646  1
  N  N448  1  0.81344253  0.44479271  0.10063836  1
  N  N449  1  0.80828377  0.77646466  0.09541416  1
  N  N450  1  0.18782392  0.22580814  0.59922345  1
  N  N451  1  0.18768057  0.55562765  0.59759054  1
  N  N452  1  0.18878515  0.89112471  0.59335401  1
  N  N453  1  0.69371581  0.22199273  0.58974432  1
  N  N454  1  0.68657122  0.55771515  0.59720286  1
  N  N455  1  0.69406430  0.88855350  0.59245358  1
  Cl  Cl456  1  0.24719114  0.05384573  0.61818570  1
  Cl  Cl457  1  0.24196263  0.38688788  0.60968245  1
  Cl  Cl458  1  0.24798698  0.71573654  0.62417618  1
  Cl  Cl459  1  0.75165979  0.05339363  0.61278749  1
  Cl  Cl460  1  0.74259551  0.38652517  0.61320520  1
  Cl  Cl461  1  0.74762519  0.71842589  0.62431121  1
  Cl  Cl462  1  0.24415612  0.28062933  0.12490160  1
  Cl  Cl463  1  0.25119896  0.61214496  0.11921476  1
  Cl  Cl464  1  0.24250784  0.94216955  0.10279948  1
  Cl  Cl465  1  0.74217425  0.27632493  0.11152151  1
  Cl  Cl466  1  0.74911656  0.61115984  0.11146049  1
  Cl  Cl467  1  0.74605704  0.95001230  0.12045301  1
  Cl  Cl468  1  0.24536254  0.05410601  0.88936601  1
  Cl  Cl469  1  0.25827891  0.39039912  0.88316201  1
  Cl  Cl470  1  0.25726668  0.72503905  0.89410911  1
  Cl  Cl471  1  0.74716222  0.05403417  0.87904487  1
  Cl  Cl472  1  0.75483495  0.38415712  0.88100089  1
  Cl  Cl473  1  0.75881117  0.71902629  0.88743169  1
  Cl  Cl474  1  0.24909527  0.27397966  0.39801847  1
  Cl  Cl475  1  0.24563009  0.60581634  0.39755208  1
  Cl  Cl476  1  0.24595464  0.94866690  0.37414177  1
  Cl  Cl477  1  0.74116819  0.27601874  0.38822358  1
  Cl  Cl478  1  0.74945691  0.61591821  0.37757919  1
  Cl  Cl479  1  0.74305379  0.94491327  0.38723351  1
  Cl  Cl480  1  0.00634510  0.22149854  0.61929351  1
  Cl  Cl481  1  0.00416537  0.55760291  0.60728059  1
  Cl  Cl482  1  0.00634201  0.88277818  0.62763625  1
  Cl  Cl483  1  0.50500365  0.22779146  0.59932527  1
  Cl  Cl484  1  0.50031664  0.55603885  0.61471941  1
  Cl  Cl485  1  0.50653563  0.89051863  0.60529513  1
  Cl  Cl486  1  0.00553983  0.11399537  0.11349666  1
  Cl  Cl487  1  -0.00748721  0.44694683  0.11829584  1
  Cl  Cl488  1  -0.00674471  0.78189341  0.11266168  1
  Cl  Cl489  1  0.50038075  0.11621581  0.11611140  1
  Cl  Cl490  1  0.48857415  0.44253896  0.10921036  1
  Cl  Cl491  1  0.49216478  0.77962496  0.11318351  1
  Cl  Cl492  1  0.00464744  0.22426872  0.88984243  1
  Cl  Cl493  1  -0.00012344  0.55452927  0.88835063  1
  Cl  Cl494  1  0.00794282  0.89213002  0.89690889  1
  Cl  Cl495  1  0.50744564  0.22466462  0.88933817  1
  Cl  Cl496  1  0.49869320  0.55244721  0.88266663  1
  Cl  Cl497  1  0.50286750  0.88421225  0.87326192  1
  Cl  Cl498  1  -0.00193263  0.11633742  0.37853178  1
  Cl  Cl499  1  0.00914407  0.44722193  0.38549055  1
  Cl  Cl500  1  0.00354460  0.78156116  0.37990877  1
  Cl  Cl501  1  0.50369404  0.11737746  0.38257694  1
  Cl  Cl502  1  0.50510918  0.44152776  0.38379310  1
  Cl  Cl503  1  0.50173666  0.78295565  0.37973141  1
  Cl  Cl504  1  0.36438766  0.14506711  0.74914995  1
  Cl  Cl505  1  0.36086515  0.47732880  0.74665275  1
  Cl  Cl506  1  0.35865738  0.81102275  0.75010979  1
  Cl  Cl507  1  0.86277291  0.14694008  0.74978761  1
  Cl  Cl508  1  0.86082497  0.47824510  0.74957967  1
  Cl  Cl509  1  0.86385048  0.81153552  0.75087982  1
  Cl  Cl510  1  0.13774041  0.18703870  0.25058890  1
  Cl  Cl511  1  0.13524530  0.52180784  0.24856232  1
  Cl  Cl512  1  0.14072813  0.85528577  0.24506546  1
  Cl  Cl513  1  0.64046638  0.19029487  0.25182138  1
  Cl  Cl514  1  0.63901220  0.52028943  0.25109554  1
  Cl  Cl515  1  0.63684799  0.85497384  0.24727802  1
  Cl  Cl516  1  0.13957249  0.14629184  0.75234954  1
  Cl  Cl517  1  0.13917934  0.47839803  0.75202923  1
  Cl  Cl518  1  0.13674259  0.80985636  0.75533007  1
  Cl  Cl519  1  0.63875125  0.14651751  0.74874867  1
  Cl  Cl520  1  0.63768715  0.47758802  0.75322444  1
  Cl  Cl521  1  0.63819744  0.81075675  0.75202755  1
  Cl  Cl522  1  0.35885917  0.19038345  0.25099222  1
  Cl  Cl523  1  0.35777139  0.51974093  0.25256518  1
  Cl  Cl524  1  0.36203904  0.85557056  0.24836156  1
  Cl  Cl525  1  0.86246225  0.18983504  0.24958729  1
  Cl  Cl526  1  0.86386688  0.52208285  0.25085946  1
  Cl  Cl527  1  0.86166303  0.85481445  0.25289609  1
  Cl  Cl528  1  0.11214614  0.31372947  0.75001241  1
  Cl  Cl529  1  0.11066159  0.64255185  0.75244967  1
  Cl  Cl530  1  0.11328990  0.97876718  0.75683161  1
  Cl  Cl531  1  0.60905184  0.31217844  0.75277199  1
  Cl  Cl532  1  0.61289708  0.64458729  0.75295159  1
  Cl  Cl533  1  0.61019682  0.97787943  0.74778648  1
  Cl  Cl534  1  0.38917765  0.02380443  0.25121094  1
  Cl  Cl535  1  0.38721554  0.35400789  0.25173737  1
  Cl  Cl536  1  0.38679283  0.68746339  0.24783942  1
  Cl  Cl537  1  0.88670787  0.02225835  0.24690100  1
  Cl  Cl538  1  0.88878848  0.35621631  0.25314881  1
  Cl  Cl539  1  0.89045679  0.68764020  0.25076513  1
  Cl  Cl540  1  0.38635015  0.31056879  0.74106336  1
  Cl  Cl541  1  0.38747570  0.64466946  0.74897459  1
  Cl  Cl542  1  0.38710784  0.97774318  0.75124349  1
  Cl  Cl543  1  0.88940941  0.31227782  0.75032739  1
  Cl  Cl544  1  0.88999698  0.64298055  0.74869656  1
  Cl  Cl545  1  0.88784014  0.97723067  0.74974623  1
  Cl  Cl546  1  0.11060540  0.02073231  0.24890178  1
  Cl  Cl547  1  0.10864194  0.35690243  0.24906751  1
  Cl  Cl548  1  0.11225849  0.68798901  0.24585636  1
  Cl  Cl549  1  0.60951165  0.02268356  0.24830691  1
  Cl  Cl550  1  0.61007548  0.35374382  0.25059275  1
  Cl  Cl551  1  0.61233234  0.68817367  0.24884175  1
