# generated using pymatgen
data_H8PbC4(N3Cl2)2
_symmetry_space_group_name_H-M   'P 1'
_cell_length_a   16.62257905
_cell_length_b   22.50666594
_cell_length_c   21.59167749
_cell_angle_alpha   90.00041318
_cell_angle_beta   90.01771700
_cell_angle_gamma   90.00338238
_symmetry_Int_Tables_number   1
_chemical_formula_structural   H8PbC4(N3Cl2)2
_chemical_formula_sum   'H192 Pb24 C96 N144 Cl96'
_cell_volume   8077.85280054
_cell_formula_units_Z   24
loop_
 _symmetry_equiv_pos_site_id
 _symmetry_equiv_pos_as_xyz
  1  'x, y, z'
loop_
 _atom_site_type_symbol
 _atom_site_label
 _atom_site_symmetry_multiplicity
 _atom_site_fract_x
 _atom_site_fract_y
 _atom_site_fract_z
 _atom_site_occupancy
  H  H0  1  0.00886316  0.02943909  0.68244427  1
  H  H1  1  -0.00984549  0.36425376  0.68022377  1
  H  H2  1  0.00698550  0.69826180  0.67530362  1
  H  H3  1  0.49894110  0.03218526  0.67949337  1
  H  H4  1  0.50706456  0.36396201  0.67808815  1
  H  H5  1  0.49348734  0.69792868  0.68381273  1
  H  H6  1  0.00782874  0.30152466  0.18155295  1
  H  H7  1  0.00282079  0.63672836  0.17705274  1
  H  H8  1  0.00660019  0.96798791  0.18086155  1
  H  H9  1  0.49346632  0.30262788  0.17935125  1
  H  H10  1  0.50545020  0.63532438  0.18310581  1
  H  H11  1  0.50355708  0.96903770  0.18110639  1
  H  H12  1  -0.00126225  0.03028933  0.81994568  1
  H  H13  1  -0.00453168  0.36508674  0.82008074  1
  H  H14  1  0.00972530  0.69870337  0.82178642  1
  H  H15  1  0.49341909  0.03320688  0.82016760  1
  H  H16  1  0.50748172  0.36370966  0.81831127  1
  H  H17  1  0.49396771  0.69594988  0.82016479  1
  H  H18  1  -0.00239088  0.30224559  0.31882631  1
  H  H19  1  -0.00664665  0.63608709  0.32127407  1
  H  H20  1  -0.00694637  0.96997690  0.31993054  1
  H  H21  1  0.51044157  0.30023774  0.32504996  1
  H  H22  1  0.49696274  0.63531715  0.32224834  1
  H  H23  1  0.49924576  0.97033530  0.31834287  1
  H  H24  1  0.24086369  0.19814621  0.68218427  1
  H  H25  1  0.24698350  0.53060978  0.68070158  1
  H  H26  1  0.25145970  0.86532024  0.68037884  1
  H  H27  1  0.75255440  0.19799800  0.67991074  1
  H  H28  1  0.75660588  0.53107877  0.67801423  1
  H  H29  1  0.75246876  0.86516401  0.67748643  1
  H  H30  1  0.25477726  0.13539642  0.18061919  1
  H  H31  1  0.26134103  0.46757143  0.17726341  1
  H  H32  1  0.25644655  0.80355994  0.17817231  1
  H  H33  1  0.75161988  0.13674781  0.17769533  1
  H  H34  1  0.73815873  0.46752820  0.18172879  1
  H  H35  1  0.74937764  0.80314579  0.18181431  1
  H  H36  1  0.24730783  0.20109111  0.81867596  1
  H  H37  1  0.25582143  0.52982596  0.81866841  1
  H  H38  1  0.24479703  0.86364763  0.82340982  1
  H  H39  1  0.75077776  0.19898457  0.82006513  1
  H  H40  1  0.74964539  0.53078318  0.82067735  1
  H  H41  1  0.75111446  0.86371319  0.82203362  1
  H  H42  1  0.25809613  0.13571430  0.31709189  1
  H  H43  1  0.24967491  0.46840335  0.32038732  1
  H  H44  1  0.26099501  0.80094461  0.31521187  1
  H  H45  1  0.74459341  0.13685057  0.32155512  1
  H  H46  1  0.74926137  0.46717854  0.31938201  1
  H  H47  1  0.74170483  0.80018330  0.32190321  1
  H  H48  1  0.12754639  0.05481095  0.60756344  1
  H  H49  1  0.12377637  0.38564709  0.61665944  1
  H  H50  1  0.11333189  0.72771524  0.59274571  1
  H  H51  1  0.63218232  0.05092541  0.61744398  1
  H  H52  1  0.62203697  0.38913743  0.59928673  1
  H  H53  1  0.62356727  0.71812918  0.62019100  1
  H  H54  1  0.37625669  0.27690369  0.10185090  1
  H  H55  1  0.37519820  0.61360600  0.11601297  1
  H  H56  1  0.37339666  0.94625271  0.11501677  1
  H  H57  1  0.87119700  0.28367929  0.12511210  1
  H  H58  1  0.87406750  0.61321001  0.11188963  1
  H  H59  1  0.87269222  0.94696735  0.11744819  1
  H  H60  1  0.38536470  0.05861601  0.90407269  1
  H  H61  1  0.37372938  0.38405177  0.88167914  1
  H  H62  1  0.38141083  0.72521587  0.89942705  1
  H  H63  1  0.88504522  0.05523315  0.89836781  1
  H  H64  1  0.88000273  0.38866186  0.89596279  1
  H  H65  1  0.87895402  0.71804960  0.88378436  1
  H  H66  1  0.11553668  0.27909571  0.39488284  1
  H  H67  1  0.13000001  0.61414642  0.37784170  1
  H  H68  1  0.12751967  0.94727539  0.38245251  1
  H  H69  1  0.61730896  0.27562943  0.40832018  1
  H  H70  1  0.63247411  0.61313648  0.38264428  1
  H  H71  1  0.62851359  0.94814877  0.38732779  1
  H  H72  1  0.37824242  0.21774876  0.62305046  1
  H  H73  1  0.36827926  0.55412960  0.60651801  1
  H  H74  1  0.37190706  0.88891288  0.60718062  1
  H  H75  1  0.87708938  0.22201585  0.60719440  1
  H  H76  1  0.86063324  0.55665543  0.59401564  1
  H  H77  1  0.87160810  0.88837450  0.60297973  1
  H  H78  1  0.11812018  0.11362587  0.12140103  1
  H  H79  1  0.12299006  0.44927075  0.11911618  1
  H  H80  1  0.12067255  0.78149058  0.11846696  1
  H  H81  1  0.61776212  0.11689341  0.11570420  1
  H  H82  1  0.63053883  0.44343932  0.10005334  1
  H  H83  1  0.62394618  0.77864081  0.11111349  1
  H  H84  1  0.13098317  0.22220949  0.89389554  1
  H  H85  1  0.12492506  0.55374143  0.88272784  1
  H  H86  1  0.12835851  0.88879302  0.89941662  1
  H  H87  1  0.62962313  0.22036598  0.89151158  1
  H  H88  1  0.63103199  0.55514039  0.89703752  1
  H  H89  1  0.62787990  0.88810919  0.89231709  1
  H  H90  1  0.37051510  0.11162352  0.39681593  1
  H  H91  1  0.37619942  0.44557802  0.38799851  1
  H  H92  1  0.37893596  0.77961200  0.39078215  1
  H  H93  1  0.86953399  0.11449701  0.38873440  1
  H  H94  1  0.87373575  0.44729495  0.39313066  1
  H  H95  1  0.88222124  0.78503518  0.37346174  1
  H  H96  1  0.37201225  0.28415110  0.37785453  1
  H  H97  1  0.38594881  0.60827417  0.40368715  1
  H  H98  1  0.38017558  0.94472025  0.39444292  1
  H  H99  1  0.86650296  0.27989550  0.38459121  1
  H  H100  1  0.88304402  0.60807349  0.40195055  1
  H  H101  1  0.88050858  0.94252039  0.40069002  1
  H  H102  1  0.13352179  0.05131753  0.88150097  1
  H  H103  1  0.12859974  0.38447255  0.88181630  1
  H  H104  1  0.12748463  0.72468817  0.89728730  1
  H  H105  1  0.63063092  0.05052171  0.87872426  1
  H  H106  1  0.62224100  0.38772369  0.89705452  1
  H  H107  1  0.62930807  0.71784314  0.87840709  1
  H  H108  1  0.11837725  0.27879183  0.10100384  1
  H  H109  1  0.12304515  0.61175672  0.10311850  1
  H  H110  1  0.11989429  0.94138006  0.10036539  1
  H  H111  1  0.62455299  0.28093539  0.11601500  1
  H  H112  1  0.62411692  0.61131844  0.10801558  1
  H  H113  1  0.62211838  0.94330523  0.10661426  1
  H  H114  1  0.38361662  0.05421757  0.60356401  1
  H  H115  1  0.37437046  0.38497651  0.61598326  1
  H  H116  1  0.37463784  0.71950949  0.60935522  1
  H  H117  1  0.87886089  0.05054458  0.61604205  1
  H  H118  1  0.87636730  0.39075403  0.60006231  1
  H  H119  1  0.86816635  0.71703954  0.61926282  1
  H  H120  1  0.12252605  0.11497833  0.37809188  1
  H  H121  1  0.12632202  0.44643330  0.39305124  1
  H  H122  1  0.12992468  0.77929456  0.37755150  1
  H  H123  1  0.62026667  0.11440406  0.39206941  1
  H  H124  1  0.62494804  0.44455178  0.39212269  1
  H  H125  1  0.63743900  0.77575485  0.40495981  1
  H  H126  1  0.37992059  0.21825552  0.88219310  1
  H  H127  1  0.37320283  0.55448395  0.89508973  1
  H  H128  1  0.37671420  0.88676818  0.88642103  1
  H  H129  1  0.87911002  0.22047421  0.88679449  1
  H  H130  1  0.87913432  0.55402042  0.88749639  1
  H  H131  1  0.87720110  0.88636404  0.89141773  1
  H  H132  1  0.36519398  0.11193664  0.09876105  1
  H  H133  1  0.36879391  0.44099359  0.09293654  1
  H  H134  1  0.36754933  0.77493283  0.09677701  1
  H  H135  1  0.86476882  0.10825019  0.09965912  1
  H  H136  1  0.87702813  0.45161597  0.12671405  1
  H  H137  1  0.87266143  0.77817226  0.11169575  1
  H  H138  1  0.13067676  0.22300696  0.60035052  1
  H  H139  1  0.11931871  0.55479675  0.61332652  1
  H  H140  1  0.12214500  0.88630740  0.61316516  1
  H  H141  1  0.62830152  0.21902744  0.60639388  1
  H  H142  1  0.61509126  0.54698222  0.62672858  1
  H  H143  1  0.62269242  0.88832025  0.61232638  1
  H  H144  1  0.05527681  0.25164464  0.50304389  1
  H  H145  1  0.05345365  0.25462248  -0.00687800  1
  H  H146  1  0.33994512  0.91689070  0.99306029  1
  H  H147  1  0.32236603  0.76163556  0.50305585  1
  H  H148  1  0.60235614  0.74912349  0.99024361  1
  H  H149  1  0.16074614  0.58209590  0.50287272  1
  H  H150  1  0.38992644  0.25407805  0.49312729  1
  H  H151  1  0.55784001  0.41473515  1.00375630  1
  H  H152  1  0.20071087  0.24942420  0.49490247  1
  H  H153  1  0.44218582  0.08210532  0.49307455  1
  H  H154  1  0.83861794  0.58068585  0.99312640  1
  H  H155  1  0.79740476  0.09547254  -0.00407298  1
  H  H156  1  0.03628416  0.74318752  0.49071797  1
  H  H157  1  0.10223223  0.07930732  0.98911844  1
  H  H158  1  0.91085064  0.75014456  0.99690719  1
  H  H159  1  0.56730951  0.58196018  0.00079934  1
  H  H160  1  0.16237962  0.91579657  0.50785635  1
  H  H161  1  0.17552517  0.41643855  0.49634509  1
  H  H162  1  0.30347623  0.08426780  0.50342234  1
  H  H163  1  0.82669389  0.08371520  0.50088643  1
  H  H164  1  0.45966911  0.08882501  1.00262145  1
  H  H165  1  0.93358688  0.41722481  1.00408444  1
  H  H166  1  0.95316251  0.58145184  0.50359825  1
  H  H167  1  0.66329938  0.91862958  0.50628008  1
  H  H168  1  0.33683079  0.41752376  0.49883191  1
  H  H169  1  0.42966594  0.73545496  0.49625385  1
  H  H170  1  0.44785588  0.74445177  1.00319179  1
  H  H171  1  0.71145128  0.75069824  0.51170831  1
  H  H172  1  0.14555465  0.41876595  0.01123057  1
  H  H173  1  0.88938789  0.25595305  0.01137378  1
  H  H174  1  0.60590568  0.58227691  0.49254515  1
  H  H175  1  0.31450875  0.58242212  1.00180961  1
  H  H176  1  0.56677758  0.91524511  -0.00067422  1
  H  H177  1  0.29685532  0.08544787  -0.00649969  1
  H  H178  1  0.32021731  0.91716885  0.49784204  1
  H  H179  1  0.65006597  0.08162104  0.01104860  1
  H  H180  1  0.06897356  0.58332900  0.00003440  1
  H  H181  1  0.78735936  0.58133400  0.48845093  1
  H  H182  1  0.58780576  0.74338818  0.50597323  1
  H  H183  1  0.67638021  0.25100201  1.00154384  1
  H  H184  1  0.07046208  0.08358541  0.50023695  1
  H  H185  1  0.83120194  0.91593753  0.99619898  1
  H  H186  1  0.69991382  0.41592353  -0.00689769  1
  H  H187  1  0.94736155  0.08193230  1.00614556  1
  H  H188  1  0.88653494  0.75201370  0.50871640  1
  H  H189  1  0.29516716  0.75040774  -0.00466079  1
  H  H190  1  0.16389521  0.75612729  0.49232049  1
  H  H191  1  0.18808789  0.24894000  1.00501322  1
  Pb  Pb192  1  0.24851247  0.04845824  0.74953630  1
  Pb  Pb193  1  0.24988048  0.37938344  0.74585416  1
  Pb  Pb194  1  0.24963618  0.71296831  0.74859435  1
  Pb  Pb195  1  0.75381556  0.04493252  0.75720084  1
  Pb  Pb196  1  0.74747328  0.38022084  0.75046162  1
  Pb  Pb197  1  0.74572076  0.71465717  0.75155127  1
  Pb  Pb198  1  0.24614296  0.28694377  0.24826723  1
  Pb  Pb199  1  0.25415998  0.61816417  0.25083416  1
  Pb  Pb200  1  0.24905768  0.95417313  0.24884777  1
  Pb  Pb201  1  0.74665320  0.28790177  0.25382156  1
  Pb  Pb202  1  0.75001046  0.61995568  0.24779669  1
  Pb  Pb203  1  0.74936796  0.95321366  0.25164946  1
  Pb  Pb204  1  -0.00188943  0.21466602  0.74703783  1
  Pb  Pb205  1  -0.00564603  0.54910012  0.74471423  1
  Pb  Pb206  1  0.00047121  0.87804666  0.75170804  1
  Pb  Pb207  1  0.50292637  0.21228557  0.74893403  1
  Pb  Pb208  1  0.49801123  0.54496484  0.75513810  1
  Pb  Pb209  1  0.49708363  0.88225150  0.75087661  1
  Pb  Pb210  1  -0.00434328  0.12063485  0.24723574  1
  Pb  Pb211  1  -0.00041418  0.45463760  0.25410272  1
  Pb  Pb212  1  0.00168434  0.78479736  0.25261775  1
  Pb  Pb213  1  0.49730291  0.12158140  0.24599665  1
  Pb  Pb214  1  0.49917995  0.45159972  0.24398279  1
  Pb  Pb215  1  0.49993418  0.78673400  0.24937635  1
  C  C216  1  0.00502421  0.04502339  0.63498785  1
  C  C217  1  -0.00327185  0.37976546  0.63287092  1
  C  C218  1  -0.00403639  0.71387462  0.62824956  1
  C  C219  1  0.50467419  0.04592471  0.63162513  1
  C  C220  1  0.50123115  0.37883543  0.63073555  1
  C  C221  1  0.49729771  0.71227856  0.63588536  1
  C  C222  1  -0.00132878  0.28746921  0.13391417  1
  C  C223  1  0.00039447  0.62082399  0.12971509  1
  C  C224  1  -0.00027246  0.95277622  0.13343871  1
  C  C225  1  0.49774621  0.28706200  0.13211770  1
  C  C226  1  0.50132897  0.62017114  0.13550326  1
  C  C227  1  0.49941404  0.95300584  0.13382744  1
  C  C228  1  0.00650060  0.04562044  0.86731771  1
  C  C229  1  0.00107540  0.37970175  0.86772239  1
  C  C230  1  0.00472620  0.71372050  0.86925954  1
  C  C231  1  0.50319172  0.04761574  0.86754977  1
  C  C232  1  0.50095661  0.37847084  0.86585864  1
  C  C233  1  0.50139320  0.71188617  0.86742175  1
  C  C234  1  -0.00698445  0.28734422  0.36641550  1
  C  C235  1  0.00195191  0.62018882  0.36823374  1
  C  C236  1  0.00041006  0.95395581  0.36701916  1
  C  C237  1  0.49901947  0.28658494  0.37230573  1
  C  C238  1  0.50565180  0.61944881  0.36931776  1
  C  C239  1  0.50266002  0.95498116  0.36595354  1
  C  C240  1  0.25027886  0.21295662  0.63489394  1
  C  C241  1  0.24476882  0.54651320  0.63337656  1
  C  C242  1  0.24810889  0.88082114  0.63269642  1
  C  C243  1  0.75292576  0.21270678  0.63211152  1
  C  C244  1  0.74401334  0.54477371  0.63074284  1
  C  C245  1  0.74853751  0.88070341  0.63009831  1
  C  C246  1  0.24556050  0.12041918  0.13333854  1
  C  C247  1  0.25072951  0.45269074  0.13013201  1
  C  C248  1  0.24856263  0.78785380  0.13107266  1
  C  C249  1  0.74443769  0.12070723  0.13044030  1
  C  C250  1  0.74857955  0.45409881  0.13420509  1
  C  C251  1  0.74822698  0.78737521  0.13460847  1
  C  C252  1  0.25251322  0.21418313  0.86675208  1
  C  C253  1  0.25117524  0.54586703  0.86589823  1
  C  C254  1  0.25043606  0.87973633  0.87050767  1
  C  C255  1  0.75266365  0.21361792  0.86783172  1
  C  C256  1  0.75369175  0.54620667  0.86820255  1
  C  C257  1  0.75247579  0.87958811  0.86936132  1
  C  C258  1  0.25001802  0.12079850  0.36447967  1
  C  C259  1  0.25033202  0.45283673  0.36805429  1
  C  C260  1  0.25633933  0.78703771  0.36322938  1
  C  C261  1  0.74537112  0.12174465  0.36910604  1
  C  C262  1  0.74947535  0.45304334  0.36737045  1
  C  C263  1  0.75416900  0.78753641  0.36955718  1
  C  C264  1  0.78388214  0.90942162  0.53531735  1
  C  C265  1  0.79907015  0.24004556  0.95987274  1
  C  C266  1  0.28368108  0.90686647  0.53825118  1
  C  C267  1  0.29414412  0.42718770  0.46076013  1
  C  C268  1  0.97258800  0.40650025  0.96431966  1
  C  C269  1  0.20658353  0.76522473  0.45538569  1
  C  C270  1  0.20353228  0.57278576  0.54132942  1
  C  C271  1  0.95219429  0.59250968  0.03822431  1
  C  C272  1  0.03717164  0.74213927  0.96389900  1
  C  C273  1  0.43841824  0.26290764  0.46034719  1
  C  C274  1  0.75819718  0.57094845  0.53241143  1
  C  C275  1  0.52547117  0.40475543  0.96115045  1
  C  C276  1  0.72987704  0.42781634  0.03620729  1
  C  C277  1  0.06135518  0.59174540  0.45555426  1
  C  C278  1  0.71180318  0.90888943  0.96279072  1
  C  C279  1  0.70457795  0.09443976  0.46227299  1
  C  C280  1  0.05418147  0.40464162  0.95805223  1
  C  C281  1  0.28835656  0.76616793  0.46033115  1
  C  C282  1  0.22281130  0.23870505  0.96365263  1
  C  C283  1  0.55700288  0.73993650  0.95507873  1
  C  C284  1  0.78623554  0.09416347  0.46281716  1
  C  C285  1  0.54483114  0.25829734  0.04238154  1
  C  C286  1  0.93993545  0.26487259  0.04463134  1
  C  C287  1  0.23024099  0.23923275  0.53879786  1
  C  C288  1  0.55753375  0.07032775  0.54144774  1
  C  C289  1  0.52980304  0.92596277  0.03969144  1
  C  C290  1  0.26626924  0.09515175  0.03700130  1
  C  C291  1  0.81016362  0.43101452  0.04707219  1
  C  C292  1  0.27247593  0.09457491  0.46022640  1
  C  C293  1  0.03484053  0.07243021  0.54088949  1
  C  C294  1  0.45201131  0.40672646  0.54121139  1
  C  C295  1  0.27940391  0.57253900  0.96056590  1
  C  C296  1  0.54575615  0.73450036  0.54339447  1
  C  C297  1  0.30389903  0.23699262  0.95756974  1
  C  C298  1  0.97896726  0.07213985  0.96323350  1
  C  C299  1  0.02138147  0.26143424  0.46109808  1
  C  C300  1  0.21817518  0.91006008  0.96535843  1
  C  C301  1  0.78592172  0.75861884  0.04184664  1
  C  C302  1  0.51882062  0.26054370  0.46950080  1
  C  C303  1  0.73956489  0.76244357  0.46782983  1
  C  C304  1  0.67786909  0.56796630  0.54480876  1
  C  C305  1  0.82032436  0.76640567  0.45650286  1
  C  C306  1  0.46399362  0.73289125  0.53899404  1
  C  C307  1  0.95566805  0.74037139  0.96092452  1
  C  C308  1  0.53159794  0.59343508  0.04128615  1
  C  C309  1  0.47634698  0.07156071  0.53468373  1
  C  C310  1  0.71724735  0.24047307  0.96306784  1
  C  C311  1  0.02124592  0.26340442  0.03595119  1
  N  N312  1  0.21424760  0.42756506  0.46121281  1
  N  N313  1  0.94232290  0.26106349  0.45764437  1
  N  N314  1  0.55743099  0.59283948  0.45714519  1
  N  N315  1  0.26832983  0.75878934  0.03750850  1
  N  N316  1  0.45033064  0.92712849  0.04183111  1
  N  N317  1  0.30854108  0.23835674  0.54693257  1
  N  N318  1  0.48568470  0.07071590  0.96345770  1
  N  N319  1  0.01376081  0.74776749  0.53510270  1
  N  N320  1  0.05183547  0.92618862  0.45673788  1
  N  N321  1  0.97574317  0.92420521  0.46247873  1
  N  N322  1  0.48006327  0.59132427  0.46506755  1
  N  N323  1  0.69245885  0.09957896  0.04132901  1
  N  N324  1  0.98269766  0.59016643  0.46275714  1
  N  N325  1  0.47048750  0.92816678  0.46110599  1
  N  N326  1  0.44667563  0.40440352  0.95591785  1
  N  N327  1  0.93629221  0.73781142  0.54240754  1
  N  N328  1  0.77044665  0.08802344  0.03804526  1
  N  N329  1  0.70500528  0.90883582  0.53974081  1
  N  N330  1  0.02503795  0.92419038  0.03773939  1
  N  N331  1  0.54705791  0.92949628  0.45852119  1
  N  N332  1  0.19504544  0.42751022  0.04367004  1
  N  N333  1  0.94887128  0.92656714  0.04313599  1
  N  N334  1  0.19088459  0.76107228  0.04344603  1
  N  N335  1  0.71139704  0.42888009  0.46181652  1
  N  N336  1  0.79089583  0.23874343  0.53811987  1
  N  N337  1  0.97105110  0.40856093  0.53733588  1
  N  N338  1  0.27220572  0.42473977  0.03359783  1
  N  N339  1  0.19348225  0.09558891  0.45391777  1
  N  N340  1  0.46754464  0.25663065  0.03668285  1
  N  N341  1  0.28281910  0.57314559  0.53858514  1
  N  N342  1  0.71486609  0.23779720  0.53788222  1
  N  N343  1  0.52924343  0.40817568  0.53446054  1
  N  N344  1  0.47771655  0.74233548  0.96149195  1
  N  N345  1  0.79107640  0.90813961  0.96100499  1
  N  N346  1  0.95551226  0.07134260  0.54334217  1
  N  N347  1  0.20010107  0.57273191  0.95698935  1
  N  N348  1  0.18766679  0.09549631  0.04455344  1
  N  N349  1  0.05799940  0.07103292  0.95610447  1
  N  N350  1  0.79670698  0.57198916  0.95831331  1
  N  N351  1  0.03158626  0.59219857  0.03649312  1
  N  N352  1  0.56306483  0.06795643  0.95607983  1
  N  N353  1  0.45219899  0.59487474  0.04343764  1
  N  N354  1  0.78750456  0.43001755  0.46212645  1
  N  N355  1  0.70810998  0.75896511  0.04064944  1
  N  N356  1  0.20407509  0.90588298  0.54154800  1
  N  N357  1  0.29710076  0.90848798  0.95987538  1
  N  N358  1  0.71852575  0.57237135  0.96297962  1
  N  N359  1  0.04735770  0.40679369  0.54280855  1
  N  N360  1  0.06667439  0.05673875  0.59685894  1
  N  N361  1  0.06433650  0.38942377  0.60223271  1
  N  N362  1  0.05128632  0.72423692  0.58537666  1
  N  N363  1  0.57404108  0.05500381  0.59996237  1
  N  N364  1  0.56010799  0.39007982  0.59145393  1
  N  N365  1  0.56499650  0.72176238  0.60373960  1
  N  N366  1  0.43792485  0.27488682  0.09382505  1
  N  N367  1  0.43528883  0.61095532  0.10249763  1
  N  N368  1  0.43324462  0.94379638  0.10116537  1
  N  N369  1  0.92795412  0.27960782  0.10571542  1
  N  N370  1  0.93304474  0.60967917  0.09618169  1
  N  N371  1  0.93201602  0.94392619  0.10261249  1
  N  N372  1  0.44782468  0.06080472  0.90929034  1
  N  N373  1  0.43317378  0.38790331  0.89660827  1
  N  N374  1  0.44344784  0.72167117  0.90817603  1
  N  N375  1  0.94663437  0.05676511  0.90805544  1
  N  N376  1  0.94083721  0.39078852  0.90665960  1
  N  N377  1  0.93697714  0.72264659  0.90081929  1
  N  N378  1  0.05419886  0.27711819  0.40547075  1
  N  N379  1  0.07325872  0.60946236  0.39672548  1
  N  N380  1  0.06834403  0.94422130  0.39726705  1
  N  N381  1  0.55543842  0.27474114  0.41646389  1
  N  N382  1  0.57405353  0.61008303  0.39884662  1
  N  N383  1  0.56803926  0.94609795  0.39968648  1
  N  N384  1  0.31967098  0.22216879  0.60669835  1
  N  N385  1  0.30670430  0.55668292  0.59625281  1
  N  N386  1  0.31131176  0.89133072  0.59494904  1
  N  N387  1  0.81623656  0.22334773  0.59659431  1
  N  N388  1  0.79846897  0.55641550  0.58712721  1
  N  N389  1  0.81115165  0.89194065  0.59124815  1
  N  N390  1  0.17636869  0.11113462  0.10485193  1
  N  N391  1  0.18110310  0.44414569  0.10228258  1
  N  N392  1  0.17904983  0.77798282  0.10217735  1
  N  N393  1  0.67613314  0.10990074  0.10101943  1
  N  N394  1  0.69224217  0.44260735  0.09177181  1
  N  N395  1  0.68452708  0.77727950  0.09966692  1
  N  N396  1  0.19164670  0.22424233  0.90570544  1
  N  N397  1  0.18449845  0.55598250  0.89756362  1
  N  N398  1  0.18909403  0.89242940  0.91014562  1
  N  N399  1  0.68980969  0.22382359  0.90441885  1
  N  N400  1  0.69245635  0.55681793  0.90652923  1
  N  N401  1  0.68786998  0.89160917  0.90585192  1
  N  N402  1  0.30867411  0.10975710  0.40566889  1
  N  N403  1  0.31645751  0.44287317  0.40267726  1
  N  N404  1  0.31825052  0.77924427  0.40253056  1
  N  N405  1  0.81032074  0.11093755  0.40359385  1
  N  N406  1  0.81279185  0.44463286  0.40352916  1
  N  N407  1  0.82759530  0.78157147  0.39600929  1
  N  N408  1  0.42736544  0.27908894  0.39891292  1
  N  N409  1  0.44801944  0.60765037  0.41049494  1
  N  N410  1  0.44179400  0.94376238  0.40379353  1
  N  N411  1  0.92635368  0.27736753  0.39853071  1
  N  N412  1  0.94513676  0.60955902  0.40950832  1
  N  N413  1  0.94252521  0.94137744  0.40722648  1
  N  N414  1  0.07473134  0.05455840  0.89717306  1
  N  N415  1  0.07034041  0.38868103  0.89927643  1
  N  N416  1  0.06679137  0.72604001  0.90872041  1
  N  N417  1  0.57335135  0.05287542  0.89653665  1
  N  N418  1  0.56061647  0.38929654  0.90620591  1
  N  N419  1  0.57165106  0.72286306  0.89632061  1
  N  N420  1  0.05673134  0.27735494  0.09210752  1
  N  N421  1  0.06181896  0.61035409  0.09270107  1
  N  N422  1  0.05791755  0.94063964  0.09336303  1
  N  N423  1  0.56579209  0.27649631  0.10011528  1
  N  N424  1  0.56318386  0.60884702  0.09737385  1
  N  N425  1  0.56111512  0.94141968  0.09577675  1
  N  N426  1  0.44432653  0.05618847  0.59219363  1
  N  N427  1  0.43244789  0.38910964  0.59956695  1
  N  N428  1  0.43486913  0.71973159  0.59707051  1
  N  N429  1  0.93890790  0.05438367  0.60226188  1
  N  N430  1  0.93838455  0.39175895  0.59285854  1
  N  N431  1  0.92545519  0.72429775  0.60184941  1
  N  N432  1  0.18153983  0.11166761  0.39411486  1
  N  N433  1  0.18740865  0.44244147  0.40384540  1
  N  N434  1  0.18818849  0.77830448  0.39489770  1
  N  N435  1  0.68014362  0.11098609  0.40565332  1
  N  N436  1  0.68605463  0.44308722  0.40312493  1
  N  N437  1  0.69931285  0.77583907  0.41288459  1
  N  N438  1  0.32150573  0.22237937  0.89915051  1
  N  N439  1  0.31218386  0.55680076  0.90497758  1
  N  N440  1  0.31756412  0.88979204  0.90135661  1
  N  N441  1  0.81982801  0.22389206  0.90206309  1
  N  N442  1  0.81921949  0.55545022  0.90136141  1
  N  N443  1  0.81671709  0.88973343  0.90363017  1
  N  N444  1  0.30315358  0.11002991  0.09120001  1
  N  N445  1  0.30662170  0.44043038  0.08762374  1
  N  N446  1  0.30540061  0.77670269  0.08979901  1
  N  N447  1  0.80310840  0.11131070  0.09015624  1
  N  N448  1  0.82093200  0.44651609  0.10632592  1
  N  N449  1  0.81251185  0.77559290  0.09857773  1
  N  N450  1  0.19282331  0.22386551  0.59261431  1
  N  N451  1  0.17879027  0.55702461  0.59949756  1
  N  N452  1  0.18236441  0.89055836  0.59986977  1
  N  N453  1  0.68956743  0.22171539  0.59599812  1
  N  N454  1  0.67033522  0.55236157  0.60495880  1
  N  N455  1  0.68241568  0.89112578  0.59808085  1
  Cl  Cl456  1  0.25591008  0.05336386  0.61554023  1
  Cl  Cl457  1  0.24765253  0.38791775  0.60969423  1
  Cl  Cl458  1  0.23884567  0.72677426  0.61401311  1
  Cl  Cl459  1  0.75594383  0.04667276  0.62551167  1
  Cl  Cl460  1  0.75017159  0.38943118  0.61930896  1
  Cl  Cl461  1  0.74697676  0.71851800  0.61710231  1
  Cl  Cl462  1  0.24603195  0.27908714  0.11445782  1
  Cl  Cl463  1  0.24801833  0.61273040  0.11514551  1
  Cl  Cl464  1  0.24641614  0.94340852  0.11348491  1
  Cl  Cl465  1  0.74574882  0.28044177  0.12014071  1
  Cl  Cl466  1  0.75072301  0.61295141  0.11577313  1
  Cl  Cl467  1  0.74826372  0.94540181  0.11570378  1
  Cl  Cl468  1  0.26329052  0.05420247  0.88896025  1
  Cl  Cl469  1  0.25038187  0.38255053  0.87596425  1
  Cl  Cl470  1  0.25954297  0.72860985  0.89169674  1
  Cl  Cl471  1  0.76148075  0.05779228  0.89533371  1
  Cl  Cl472  1  0.74776861  0.38897980  0.88614345  1
  Cl  Cl473  1  0.75337898  0.71661383  0.87935297  1
  Cl  Cl474  1  0.23766514  0.28019008  0.38370229  1
  Cl  Cl475  1  0.25980686  0.61126749  0.38229165  1
  Cl  Cl476  1  0.25567679  0.94429379  0.38637516  1
  Cl  Cl477  1  0.73831373  0.27716515  0.38165183  1
  Cl  Cl478  1  0.76018094  0.61163850  0.38344076  1
  Cl  Cl479  1  0.75271167  0.94379810  0.38796013  1
  Cl  Cl480  1  0.00759693  0.22272383  0.61169952  1
  Cl  Cl481  1  -0.01290777  0.56166141  0.60627731  1
  Cl  Cl482  1  -0.00140974  0.88323907  0.61929271  1
  Cl  Cl483  1  0.50545042  0.21714098  0.61494672  1
  Cl  Cl484  1  0.48944725  0.55074960  0.62425892  1
  Cl  Cl485  1  0.49840332  0.88674012  0.62017092  1
  Cl  Cl486  1  -0.01300367  0.10742860  0.11033364  1
  Cl  Cl487  1  0.00288215  0.45201160  0.12042482  1
  Cl  Cl488  1  -0.00411268  0.77770949  0.12115271  1
  Cl  Cl489  1  0.48971128  0.11079653  0.10509586  1
  Cl  Cl490  1  0.50056713  0.44247324  0.10878420  1
  Cl  Cl491  1  0.49076722  0.77191901  0.10530668  1
  Cl  Cl492  1  0.00492425  0.21877122  0.88033525  1
  Cl  Cl493  1  0.00042810  0.55763524  0.88203386  1
  Cl  Cl494  1  0.00143802  0.88463610  0.88366406  1
  Cl  Cl495  1  0.50485851  0.21455571  0.87810555  1
  Cl  Cl496  1  0.50588610  0.55555892  0.88967797  1
  Cl  Cl497  1  0.50314672  0.88673221  0.88643318  1
  Cl  Cl498  1  -0.00216289  0.11490094  0.37801258  1
  Cl  Cl499  1  0.00173710  0.45160790  0.38490819  1
  Cl  Cl500  1  0.00808314  0.76854244  0.38977972  1
  Cl  Cl501  1  0.49336740  0.11393917  0.37888444  1
  Cl  Cl502  1  0.50065617  0.44712121  0.37600324  1
  Cl  Cl503  1  0.50788994  0.77577600  0.38290452  1
  Cl  Cl504  1  0.36587526  0.14577199  0.74896289  1
  Cl  Cl505  1  0.36000187  0.47957981  0.74966825  1
  Cl  Cl506  1  0.36238544  0.81333290  0.75137461  1
  Cl  Cl507  1  0.86311919  0.14675255  0.75281248  1
  Cl  Cl508  1  0.86123610  0.48056471  0.75427986  1
  Cl  Cl509  1  0.86108501  0.81296005  0.74816145  1
  Cl  Cl510  1  0.13312816  0.18686653  0.24655853  1
  Cl  Cl511  1  0.13603966  0.52184733  0.25058233  1
  Cl  Cl512  1  0.13749315  0.85341503  0.25114686  1
  Cl  Cl513  1  0.63770388  0.18535378  0.24346792  1
  Cl  Cl514  1  0.64023165  0.52191055  0.25034457  1
  Cl  Cl515  1  0.63760947  0.85252850  0.24737229  1
  Cl  Cl516  1  0.14620540  0.14432608  0.75076563  1
  Cl  Cl517  1  0.14068785  0.47862761  0.75241062  1
  Cl  Cl518  1  0.14132908  0.81446074  0.75197415  1
  Cl  Cl519  1  0.63924510  0.14348619  0.75145241  1
  Cl  Cl520  1  0.63879968  0.48137161  0.74902096  1
  Cl  Cl521  1  0.64215697  0.81028006  0.75033688  1
  Cl  Cl522  1  0.35733323  0.18615197  0.24948355  1
  Cl  Cl523  1  0.35785729  0.52039037  0.24582065  1
  Cl  Cl524  1  0.36130201  0.85336496  0.24779480  1
  Cl  Cl525  1  0.85924496  0.18801128  0.24882576  1
  Cl  Cl526  1  0.86331330  0.52152390  0.24520190  1
  Cl  Cl527  1  0.86309111  0.85374086  0.25512742  1
  Cl  Cl528  1  0.11445012  0.31221844  0.74924573  1
  Cl  Cl529  1  0.11140838  0.64719226  0.75152085  1
  Cl  Cl530  1  0.11352495  0.97953547  0.75324968  1
  Cl  Cl531  1  0.60880708  0.31495807  0.74939617  1
  Cl  Cl532  1  0.61120966  0.64551990  0.75031208  1
  Cl  Cl533  1  0.61646137  0.97867791  0.75436849  1
  Cl  Cl534  1  0.38777578  0.01959934  0.24521029  1
  Cl  Cl535  1  0.38376781  0.35412900  0.25553775  1
  Cl  Cl536  1  0.39031272  0.68597696  0.25071242  1
  Cl  Cl537  1  0.88637699  0.01918653  0.24647757  1
  Cl  Cl538  1  0.88614183  0.35483486  0.24722259  1
  Cl  Cl539  1  0.89027298  0.68705624  0.25132715  1
  Cl  Cl540  1  0.38616766  0.31010615  0.74826217  1
  Cl  Cl541  1  0.38915299  0.64763940  0.75136113  1
  Cl  Cl542  1  0.39626071  0.97839945  0.75144490  1
  Cl  Cl543  1  0.89334938  0.31081363  0.75223928  1
  Cl  Cl544  1  0.89198230  0.64574227  0.74766862  1
  Cl  Cl545  1  0.89255649  0.98071969  0.75206748  1
  Cl  Cl546  1  0.11355860  0.02347594  0.25221077  1
  Cl  Cl547  1  0.10916468  0.35464527  0.24899201  1
  Cl  Cl548  1  0.11144153  0.68875224  0.25304992  1
  Cl  Cl549  1  0.61065911  0.02141450  0.24680762  1
  Cl  Cl550  1  0.60833150  0.35351782  0.24910298  1
  Cl  Cl551  1  0.61288881  0.68723173  0.24984663  1
