# generated using pymatgen
data_H8PbC4(N3Cl2)2
_symmetry_space_group_name_H-M   'P 1'
_cell_length_a   16.61955213
_cell_length_b   22.49721028
_cell_length_c   21.58715565
_cell_angle_alpha   89.99990157
_cell_angle_beta   90.00419666
_cell_angle_gamma   90.00021060
_symmetry_Int_Tables_number   1
_chemical_formula_structural   H8PbC4(N3Cl2)2
_chemical_formula_sum   'H192 Pb24 C96 N144 Cl96'
_cell_volume   8071.29843742
_cell_formula_units_Z   24
loop_
 _symmetry_equiv_pos_site_id
 _symmetry_equiv_pos_as_xyz
  1  'x, y, z'
loop_
 _atom_site_type_symbol
 _atom_site_label
 _atom_site_symmetry_multiplicity
 _atom_site_fract_x
 _atom_site_fract_y
 _atom_site_fract_z
 _atom_site_occupancy
  H  H0  1  0.00283519  0.03227888  0.68016557  1
  H  H1  1  0.00220170  0.36633103  0.68006293  1
  H  H2  1  -0.00162019  0.69966873  0.68247410  1
  H  H3  1  0.49930215  0.03256408  0.67886656  1
  H  H4  1  0.49558166  0.36742448  0.68042292  1
  H  H5  1  0.50305423  0.69919176  0.68303220  1
  H  H6  1  0.00282852  0.29972213  0.18109123  1
  H  H7  1  -0.00078820  0.63368117  0.18242881  1
  H  H8  1  -0.00153199  0.96690409  0.18353442  1
  H  H9  1  0.49675943  0.30101955  0.18063818  1
  H  H10  1  0.50086612  0.63333038  0.18384247  1
  H  H11  1  0.50355538  0.96579978  0.18027976  1
  H  H12  1  0.00124132  0.03292462  0.81778113  1
  H  H13  1  0.00217124  0.36600862  0.81894826  1
  H  H14  1  -0.00153728  0.69978539  0.81715281  1
  H  H15  1  0.49467470  0.03326672  0.81842376  1
  H  H16  1  0.50039792  0.36777204  0.82126879  1
  H  H17  1  0.49925049  0.70000520  0.81838091  1
  H  H18  1  -0.00027620  0.29884881  0.31843161  1
  H  H19  1  -0.00399520  0.63342701  0.31985316  1
  H  H20  1  0.00200071  0.96761566  0.32103451  1
  H  H21  1  0.49817369  0.29954778  0.31735839  1
  H  H22  1  0.50347382  0.63366701  0.31922571  1
  H  H23  1  0.50540731  0.96578310  0.32061231  1
  H  H24  1  0.25015838  0.19931156  0.67958341  1
  H  H25  1  0.25047366  0.53352496  0.68285900  1
  H  H26  1  0.24770246  0.86711213  0.68076374  1
  H  H27  1  0.75254182  0.19964578  0.68284226  1
  H  H28  1  0.75117918  0.53374938  0.68129308  1
  H  H29  1  0.74527158  0.86598804  0.68054285  1
  H  H30  1  0.25510350  0.13338716  0.18253763  1
  H  H31  1  0.24793462  0.46642902  0.18271415  1
  H  H32  1  0.25119767  0.79992657  0.18189611  1
  H  H33  1  0.74667710  0.13448390  0.18121992  1
  H  H34  1  0.75256183  0.46618391  0.18036429  1
  H  H35  1  0.75168861  0.79967591  0.18157533  1
  H  H36  1  0.25218532  0.20053011  0.81868965  1
  H  H37  1  0.25674892  0.53235422  0.81791011  1
  H  H38  1  0.24850181  0.86661472  0.81721939  1
  H  H39  1  0.74778690  0.19991525  0.81929529  1
  H  H40  1  0.74215799  0.53326386  0.81698556  1
  H  H41  1  0.74406637  0.86701001  0.81724358  1
  H  H42  1  0.24110121  0.13163855  0.32237406  1
  H  H43  1  0.25564679  0.46763246  0.31920365  1
  H  H44  1  0.25097902  0.80100075  0.31830681  1
  H  H45  1  0.75144779  0.13314600  0.31915715  1
  H  H46  1  0.74909461  0.46664717  0.31927295  1
  H  H47  1  0.74855911  0.80029154  0.31957934  1
  H  H48  1  0.12291709  0.05472972  0.60431454  1
  H  H49  1  0.12696674  0.38696650  0.60806164  1
  H  H50  1  0.12477863  0.72150411  0.61266474  1
  H  H51  1  0.62308899  0.05162034  0.60656690  1
  H  H52  1  0.63046601  0.38569741  0.62092207  1
  H  H53  1  0.62664408  0.71964236  0.61050873  1
  H  H54  1  0.38131073  0.27897204  0.10272406  1
  H  H55  1  0.37619226  0.61329995  0.11440801  1
  H  H56  1  0.37209759  0.94901593  0.11541272  1
  H  H57  1  0.87713979  0.28148922  0.11312131  1
  H  H58  1  0.87678912  0.61264327  0.11206243  1
  H  H59  1  0.87378225  0.94581084  0.11262364  1
  H  H60  1  0.38080314  0.05735425  0.89922091  1
  H  H61  1  0.37536431  0.38716778  0.88960763  1
  H  H62  1  0.38129259  0.72280205  0.89635819  1
  H  H63  1  0.87444784  0.05354501  0.88790455  1
  H  H64  1  0.87234753  0.38606041  0.88653302  1
  H  H65  1  0.87939917  0.72128798  0.89306727  1
  H  H66  1  0.13004923  0.27984957  0.38399088  1
  H  H67  1  0.12766634  0.61539351  0.38414352  1
  H  H68  1  0.12354480  0.94667202  0.39451949  1
  H  H69  1  0.62830541  0.27952139  0.38544764  1
  H  H70  1  0.62795939  0.61352329  0.39074251  1
  H  H71  1  0.62277920  0.94470265  0.39517418  1
  H  H72  1  0.36986165  0.22186093  0.60405865  1
  H  H73  1  0.37170424  0.55407423  0.60740899  1
  H  H74  1  0.37448345  0.88643049  0.61419785  1
  H  H75  1  0.87120047  0.22104454  0.60644906  1
  H  H76  1  0.86879508  0.55436943  0.60632014  1
  H  H77  1  0.87525925  0.88658889  0.61223807  1
  H  H78  1  0.12282148  0.11572623  0.11800726  1
  H  H79  1  0.12867662  0.44462514  0.10710172  1
  H  H80  1  0.12102169  0.77971968  0.11545649  1
  H  H81  1  0.62459930  0.11139259  0.10676779  1
  H  H82  1  0.62583403  0.44605158  0.10980376  1
  H  H83  1  0.62200325  0.78047420  0.11374249  1
  H  H84  1  0.12209180  0.21954570  0.88597685  1
  H  H85  1  0.12251592  0.55168964  0.87842729  1
  H  H86  1  0.12779696  0.88775372  0.89132410  1
  H  H87  1  0.62073929  0.22168482  0.88664553  1
  H  H88  1  0.63156784  0.55324825  0.89728533  1
  H  H89  1  0.63118965  0.88787171  0.89587969  1
  H  H90  1  0.37703674  0.11421869  0.37950857  1
  H  H91  1  0.36820417  0.44368291  0.40099883  1
  H  H92  1  0.37402047  0.78022951  0.39034211  1
  H  H93  1  0.87299031  0.11267915  0.39061248  1
  H  H94  1  0.87158495  0.44493091  0.39150458  1
  H  H95  1  0.87393892  0.78081041  0.38813768  1
  H  H96  1  0.37892068  0.27734207  0.39298363  1
  H  H97  1  0.37850534  0.61369438  0.38718428  1
  H  H98  1  0.37449827  0.94899255  0.38421447  1
  H  H99  1  0.88081965  0.27898880  0.39238986  1
  H  H100  1  0.87950804  0.61021914  0.39686948  1
  H  H101  1  0.87418367  0.94598500  0.38876015  1
  H  H102  1  0.12402020  0.05450305  0.88968127  1
  H  H103  1  0.12098736  0.38838978  0.89617795  1
  H  H104  1  0.12847406  0.71989655  0.88550357  1
  H  H105  1  0.62787542  0.05188820  0.88094756  1
  H  H106  1  0.62425235  0.38759284  0.89052158  1
  H  H107  1  0.62930841  0.71977442  0.88534011  1
  H  H108  1  0.12644350  0.27842867  0.10934801  1
  H  H109  1  0.12606476  0.61393803  0.11350142  1
  H  H110  1  0.12273815  0.94669346  0.11085473  1
  H  H111  1  0.63044030  0.28260893  0.11732926  1
  H  H112  1  0.62612716  0.61371289  0.11466936  1
  H  H113  1  0.62004512  0.94212110  0.10324434  1
  H  H114  1  0.37437909  0.05531423  0.60854588  1
  H  H115  1  0.38299504  0.39017603  0.59909123  1
  H  H116  1  0.37725472  0.72070836  0.61145647  1
  H  H117  1  0.87422987  0.05348704  0.61374649  1
  H  H118  1  0.87781158  0.38827953  0.60974013  1
  H  H119  1  0.87548714  0.72087807  0.60980154  1
  H  H120  1  0.13023985  0.11100587  0.40152554  1
  H  H121  1  0.12144745  0.44733608  0.38039637  1
  H  H122  1  0.12405216  0.78058407  0.38792541  1
  H  H123  1  0.62358572  0.11269136  0.38622761  1
  H  H124  1  0.62201001  0.44699881  0.38960753  1
  H  H125  1  0.62511090  0.78084938  0.38984566  1
  H  H126  1  0.37049612  0.22338632  0.89627001  1
  H  H127  1  0.37112721  0.55565676  0.89765373  1
  H  H128  1  0.37681618  0.88728580  0.88598301  1
  H  H129  1  0.86916392  0.22179449  0.89372431  1
  H  H130  1  0.87896939  0.55011349  0.87478366  1
  H  H131  1  0.87943997  0.88478173  0.87692427  1
  H  H132  1  0.37032649  0.11001164  0.10227819  1
  H  H133  1  0.37813525  0.44632524  0.11474171  1
  H  H134  1  0.36920944  0.77734716  0.10370906  1
  H  H135  1  0.87285548  0.11367284  0.11153071  1
  H  H136  1  0.87498003  0.44536747  0.10710437  1
  H  H137  1  0.87006513  0.77747616  0.10389146  1
  H  H138  1  0.12058349  0.21870538  0.61312189  1
  H  H139  1  0.12326537  0.55362826  0.61136029  1
  H  H140  1  0.12522480  0.88871965  0.60819313  1
  H  H141  1  0.62198067  0.21985290  0.61530201  1
  H  H142  1  0.61967724  0.55234051  0.61697681  1
  H  H143  1  0.62675265  0.88832422  0.60297132  1
  H  H144  1  0.91890045  0.08264382  0.99247625  1
  H  H145  1  0.82426242  0.41716724  0.50102225  1
  H  H146  1  0.30305908  0.08574012  -0.00035705  1
  H  H147  1  0.43748819  0.25178053  0.50196270  1
  H  H148  1  0.16775446  0.75411353  0.49348471  1
  H  H149  1  0.41752261  0.07704247  0.50345623  1
  H  H150  1  0.30754370  0.25033594  0.99943246  1
  H  H151  1  0.32606514  0.75271318  0.50020862  1
  H  H152  1  0.42226509  0.58775572  0.00126262  1
  H  H153  1  0.93779994  0.74649858  1.00200530  1
  H  H154  1  0.44933232  0.08139174  1.00146028  1
  H  H155  1  0.07923423  0.41386838  0.50337567  1
  H  H156  1  0.57734434  0.74857515  0.50198076  1
  H  H157  1  0.44178435  0.25525671  -0.00668069  1
  H  H158  1  0.91899945  0.25391554  0.00023717  1
  H  H159  1  0.69278801  0.91279312  1.00538032  1
  H  H160  1  0.07695325  0.08242962  0.99931237  1
  H  H161  1  0.58092837  0.58772328  0.00170629  1
  H  H162  1  0.29865605  0.42015969  0.50265306  1
  H  H163  1  0.92520973  0.75022249  0.50170361  1
  H  H164  1  0.69689080  0.57729499  1.00655724  1
  H  H165  1  0.93501001  0.25090462  0.50380141  1
  H  H166  1  0.91807302  0.91724812  0.00336197  1
  H  H167  1  0.55680833  0.92851207  -0.00149733  1
  H  H168  1  0.18133784  0.91442178  0.99989331  1
  H  H169  1  0.14905854  0.58148809  0.99101432  1
  H  H170  1  0.91798411  0.91716092  0.49461990  1
  H  H171  1  0.82608606  0.08372006  0.50148505  1
  H  H172  1  0.67900116  0.08420648  0.00365697  1
  H  H173  1  0.57660907  0.08424245  0.50538482  1
  H  H174  1  0.81278465  0.58338404  0.49578786  1
  H  H175  1  0.80719611  0.75215985  0.00011173  1
  H  H176  1  0.30510768  0.75318023  -0.00009327  1
  H  H177  1  0.31034615  0.24548675  0.49805029  1
  H  H178  1  0.91985781  0.58317200  0.00123730  1
  H  H179  1  0.44523839  0.74797020  1.00009969  1
  H  H180  1  0.05857361  0.41324159  1.00037500  1
  H  H181  1  0.66309178  0.41917058  0.49504082  1
  H  H182  1  0.42162136  0.58530710  0.50002009  1
  H  H183  1  0.40803997  0.91454674  0.01142443  1
  H  H184  1  0.30598815  0.57330905  1.00199775  1
  H  H185  1  0.81203899  0.24588664  0.49766145  1
  H  H186  1  0.45033040  0.41795515  0.49740367  1
  H  H187  1  0.33723558  0.91654617  0.50164968  1
  H  H188  1  0.09094748  0.57964100  0.48716490  1
  H  H189  1  0.59841650  0.25599338  0.00950281  1
  H  H190  1  0.18714421  0.41769088  -0.00165430  1
  H  H191  1  0.94255085  0.59402357  0.50112623  1
  Pb  Pb192  1  0.25021082  0.04867621  0.75312051  1
  Pb  Pb193  1  0.24812486  0.38110757  0.74805474  1
  Pb  Pb194  1  0.25433394  0.71601848  0.74974127  1
  Pb  Pb195  1  0.75110140  0.04868529  0.75034721  1
  Pb  Pb196  1  0.75183909  0.38013371  0.74778353  1
  Pb  Pb197  1  0.75059425  0.71478463  0.75241655  1
  Pb  Pb198  1  0.25443190  0.28382522  0.24919901  1
  Pb  Pb199  1  0.25051390  0.61839813  0.24632366  1
  Pb  Pb200  1  0.24679463  0.95339358  0.25073696  1
  Pb  Pb201  1  0.75167878  0.28627057  0.25127134  1
  Pb  Pb202  1  0.75053337  0.61894516  0.25142486  1
  Pb  Pb203  1  0.75221562  0.95096601  0.24880448  1
  Pb  Pb204  1  -0.00132365  0.21366864  0.74956627  1
  Pb  Pb205  1  0.00048312  0.54910410  0.74240735  1
  Pb  Pb206  1  0.00162798  0.88127097  0.74772234  1
  Pb  Pb207  1  0.49790272  0.21595005  0.75112188  1
  Pb  Pb208  1  0.49986151  0.54643931  0.75333111  1
  Pb  Pb209  1  0.50275452  0.88331906  0.75401988  1
  Pb  Pb210  1  -0.00114478  0.11970070  0.24988214  1
  Pb  Pb211  1  0.00018995  0.45095542  0.24827061  1
  Pb  Pb212  1  -0.00042514  0.78527404  0.24941492  1
  Pb  Pb213  1  0.50224571  0.11686022  0.24927389  1
  Pb  Pb214  1  0.50111471  0.45235852  0.25451626  1
  Pb  Pb215  1  0.49786927  0.78666559  0.24880544  1
  C  C216  1  0.00020723  0.04686325  0.63253212  1
  C  C217  1  0.00285288  0.38071278  0.63218778  1
  C  C218  1  -0.00032146  0.71398257  0.63455495  1
  C  C219  1  0.49900692  0.04669382  0.63069953  1
  C  C220  1  0.50294150  0.38088541  0.63251285  1
  C  C221  1  0.50211296  0.71319646  0.63498936  1
  C  C222  1  0.00161034  0.28620310  0.13302139  1
  C  C223  1  0.00026288  0.61976103  0.13441136  1
  C  C224  1  -0.00159637  0.95300379  0.13546923  1
  C  C225  1  0.50341637  0.28670681  0.13280268  1
  C  C226  1  0.50107341  0.61946752  0.13566607  1
  C  C227  1  0.49840361  0.95240999  0.13203003  1
  C  C228  1  -0.00047273  0.04726628  0.86584744  1
  C  C229  1  -0.00112001  0.38006486  0.86696179  1
  C  C230  1  0.00238157  0.71377985  0.86512644  1
  C  C231  1  0.50082140  0.04729307  0.86625827  1
  C  C232  1  0.49994775  0.38133195  0.86964107  1
  C  C233  1  0.50304920  0.71426858  0.86627369  1
  C  C234  1  0.00330506  0.28573050  0.36659600  1
  C  C235  1  0.00127159  0.61937069  0.36790648  1
  C  C236  1  -0.00044916  0.95299027  0.36877063  1
  C  C237  1  0.50205542  0.28543879  0.36532412  1
  C  C238  1  0.50281045  0.61963993  0.36715244  1
  C  C239  1  0.50083276  0.95277544  0.36876244  1
  C  C240  1  0.24714992  0.21326232  0.63164063  1
  C  C241  1  0.24819800  0.54714497  0.63467903  1
  C  C242  1  0.24964630  0.88082172  0.63273914  1
  C  C243  1  0.74833518  0.21381530  0.63495107  1
  C  C244  1  0.74679627  0.54730292  0.63330591  1
  C  C245  1  0.74929804  0.87994406  0.63251488  1
  C  C246  1  0.24977662  0.11990376  0.13448979  1
  C  C247  1  0.25187923  0.45240066  0.13474018  1
  C  C248  1  0.24749910  0.78580596  0.13395780  1
  C  C249  1  0.74758342  0.11975317  0.13343218  1
  C  C250  1  0.75092042  0.45254236  0.13235727  1
  C  C251  1  0.74798442  0.78574394  0.13355589  1
  C  C252  1  0.24855664  0.21454760  0.86669489  1
  C  C253  1  0.25044442  0.54651803  0.86584280  1
  C  C254  1  0.25131501  0.88062531  0.86524208  1
  C  C255  1  0.74608372  0.21427646  0.86695835  1
  C  C256  1  0.75073889  0.54611428  0.86484352  1
  C  C257  1  0.75139580  0.88018868  0.86512940  1
  C  C258  1  0.24987593  0.11872761  0.37031622  1
  C  C259  1  0.24882565  0.45329602  0.36685637  1
  C  C260  1  0.24927697  0.78642568  0.36629448  1
  C  C261  1  0.74968983  0.11943467  0.36720422  1
  C  C262  1  0.74699779  0.45249884  0.36746125  1
  C  C263  1  0.74923916  0.78689920  0.36774456  1
  C  C264  1  0.45896123  0.40549011  0.96178567  1
  C  C265  1  0.28783047  0.76196657  0.46055668  1
  C  C266  1  0.22603261  0.09397954  0.46606823  1
  C  C267  1  0.56024737  0.40587992  0.54303323  1
  C  C268  1  0.95660666  0.07377501  0.54116221  1
  C  C269  1  0.97236006  0.73733941  0.96023256  1
  C  C270  1  0.53801846  0.73800580  0.54133780  1
  C  C271  1  0.05236360  0.26255447  0.45849784  1
  C  C272  1  0.78578048  0.09425549  0.46264584  1
  C  C273  1  0.72636144  0.90390034  0.96299144  1
  C  C274  1  0.29334514  0.90600444  0.53900323  1
  C  C275  1  0.77760583  0.57265052  0.53680853  1
  C  C276  1  0.30687151  0.09472736  0.45861204  1
  C  C277  1  0.80762878  0.90291546  0.95469643  1
  C  C278  1  0.70373994  0.24112682  0.95905882  1
  C  C279  1  0.79150816  0.76217352  0.46080207  1
  C  C280  1  0.53235505  0.92799923  0.46353253  1
  C  C281  1  0.70398347  0.09508734  0.45990933  1
  C  C282  1  0.03761496  0.92611916  0.46337329  1
  C  C283  1  0.96043512  0.40669151  0.53805222  1
  C  C284  1  0.47440029  0.26290473  0.03630101  1
  C  C285  1  0.22163720  0.42806750  0.03981368  1
  C  C286  1  0.03855497  0.07210802  0.96004081  1
  C  C287  1  0.70946980  0.76221988  0.46142942  1
  C  C288  1  0.46029519  0.59633960  0.04122175  1
  C  C289  1  0.80917829  0.56818987  0.95362060  1
  C  C290  1  0.21163333  0.90625746  0.53848347  1
  C  C291  1  0.78606852  0.42821661  0.03823951  1
  C  C292  1  0.45172828  0.92954246  0.45973884  1
  C  C293  1  0.97095576  0.26142469  0.46310740  1
  C  C294  1  0.04446519  0.59503027  0.04132520  1
  C  C295  1  0.19586917  0.57193284  0.95505962  1
  C  C296  1  0.78503204  0.42741323  0.46172888  1
  C  C297  1  0.69617302  0.57162837  0.54217745  1
  C  C298  1  0.72848435  0.56915049  0.96324484  1
  C  C299  1  0.96032950  0.92783327  0.04215520  1
  C  C300  1  0.96256965  0.59398626  0.03929372  1
  C  C301  1  0.96470419  0.73952332  0.54086336  1
  C  C302  1  0.47209018  0.26130428  0.46033762  1
  C  C303  1  0.54235922  0.59638022  0.04132938  1
  C  C304  1  0.19794638  0.23864544  0.53947624  1
  C  C305  1  0.21863772  0.90456738  0.95980860  1
  C  C306  1  0.46193758  0.59465549  0.46161150  1
  C  C307  1  0.53939900  0.40570009  0.96213031  1
  C  C308  1  0.04148517  0.26172754  0.03886299  1
  C  C309  1  0.95985251  0.26256665  0.03848742  1
  C  C310  1  0.54357815  0.59461223  0.46099021  1
  C  C311  1  0.77759287  0.23721124  0.53958312  1
  N  N312  1  0.04423146  0.73945406  0.54095688  1
  N  N313  1  0.30088100  0.42907620  0.04218115  1
  N  N314  1  0.71481523  0.09395466  0.04097796  1
  N  N315  1  0.28339828  0.57110577  0.53939628  1
  N  N316  1  0.70882298  0.42850756  0.03770058  1
  N  N317  1  0.27656942  0.23720214  0.96091003  1
  N  N318  1  0.69852651  0.23722980  0.54263556  1
  N  N319  1  0.19858698  0.23672702  0.95858003  1
  N  N320  1  0.95851531  0.92614612  0.46020368  1
  N  N321  1  0.20640412  0.57065848  0.54077168  1
  N  N322  1  0.19676730  0.76247378  0.04262785  1
  N  N323  1  0.03972961  0.40579350  0.53886954  1
  N  N324  1  0.55370067  0.26268063  0.04304721  1
  N  N325  1  0.19588374  0.09773149  0.04393405  1
  N  N326  1  0.05152264  0.73714852  0.95769707  1
  N  N327  1  0.27541232  0.57377450  0.96077172  1
  N  N328  1  0.47834865  0.07244453  0.96057837  1
  N  N329  1  0.02736249  0.40545934  0.96039662  1
  N  N330  1  0.45873347  0.73797276  0.54107924  1
  N  N331  1  0.95886834  0.07091432  0.95845312  1
  N  N332  1  0.05015446  0.60083078  0.45881333  1
  N  N333  1  0.45926583  0.07742239  0.54052542  1
  N  N334  1  0.53682340  0.06408923  0.53624131  1
  N  N335  1  0.55127744  0.26165958  0.45779932  1
  N  N336  1  0.44939245  0.93363171  0.04115002  1
  N  N337  1  0.71802561  0.90516093  0.53681715  1
  N  N338  1  0.27466160  0.76147497  0.04015374  1
  N  N339  1  0.77612477  0.76259145  0.03950899  1
  N  N340  1  0.69830634  0.76406893  0.04149791  1
  N  N341  1  0.52772773  0.92105676  0.03973225  1
  N  N342  1  0.47575226  0.73779837  0.96036273  1
  N  N343  1  0.48141866  0.40692908  0.53685107  1
  N  N344  1  0.94957996  0.40406922  0.95834632  1
  N  N345  1  0.03396734  0.07427719  0.53691024  1
  N  N346  1  0.79433232  0.90436844  0.53999774  1
  N  N347  1  0.27012851  0.42648597  0.46102046  1
  N  N348  1  0.70521509  0.42874374  0.45998390  1
  N  N349  1  0.27698921  0.23942794  0.53742259  1
  N  N350  1  0.03978819  0.92835311  0.04072135  1
  N  N351  1  0.20812083  0.76162237  0.45839643  1
  N  N352  1  0.19227550  0.42831625  0.45563806  1
  N  N353  1  0.27378018  0.09529746  0.04018063  1
  N  N354  1  0.29816865  0.90385651  0.95882432  1
  N  N355  1  0.97174294  0.58728969  0.45985757  1
  N  N356  1  0.78158241  0.24106155  0.96274226  1
  N  N357  1  0.55638708  0.07022066  0.95602416  1
  N  N358  1  0.79329724  0.09448179  0.04092405  1
  N  N359  1  0.55358441  0.73693585  0.95781931  1
  N  N360  1  0.06146837  0.05710030  0.59502326  1
  N  N361  1  0.06649573  0.38969588  0.59685072  1
  N  N362  1  0.06419991  0.72344028  0.60004173  1
  N  N363  1  0.56247554  0.05598496  0.59496445  1
  N  N364  1  0.57339239  0.38981654  0.60241728  1
  N  N365  1  0.56609326  0.72287249  0.59860029  1
  N  N366  1  0.44283187  0.27694178  0.09231742  1
  N  N367  1  0.43590755  0.61063037  0.10021231  1
  N  N368  1  0.43111920  0.94285435  0.10092436  1
  N  N369  1  0.93634733  0.27770713  0.09826602  1
  N  N370  1  0.93658904  0.60960372  0.09855384  1
  N  N371  1  0.93375637  0.94295396  0.09995317  1
  N  N372  1  0.44285361  0.05746589  0.90673814  1
  N  N373  1  0.43414575  0.39074081  0.90532563  1
  N  N374  1  0.44307674  0.72422550  0.90506578  1
  N  N375  1  0.93503979  0.05660208  0.90019750  1
  N  N376  1  0.93229594  0.38939485  0.89984252  1
  N  N377  1  0.94054157  0.72332715  0.90372735  1
  N  N378  1  0.07133027  0.27699190  0.40012060  1
  N  N379  1  0.06862443  0.60880624  0.39869896  1
  N  N380  1  0.06318565  0.94275416  0.40685034  1
  N  N381  1  0.56813500  0.27646935  0.39849528  1
  N  N382  1  0.56799815  0.60970911  0.40391109  1
  N  N383  1  0.56242686  0.94216468  0.40798521  1
  N  N384  1  0.30845871  0.22268751  0.59388662  1
  N  N385  1  0.31027867  0.55671764  0.59742919  1
  N  N386  1  0.31557192  0.88992152  0.59884150  1
  N  N387  1  0.80993211  0.22335270  0.59603416  1
  N  N388  1  0.80823840  0.55714825  0.59478208  1
  N  N389  1  0.81495233  0.88884624  0.59928253  1
  N  N390  1  0.18170126  0.11236762  0.10306298  1
  N  N391  1  0.18986050  0.44245428  0.09629825  1
  N  N392  1  0.18031862  0.77678690  0.10156082  1
  N  N393  1  0.68555614  0.10933432  0.09667693  1
  N  N394  1  0.68655927  0.44370736  0.09772727  1
  N  N395  1  0.68128091  0.77781916  0.10041885  1
  N  N396  1  0.18167169  0.22228271  0.89973582  1
  N  N397  1  0.18070930  0.55653297  0.89584043  1
  N  N398  1  0.18864538  0.89049969  0.90291052  1
  N  N399  1  0.67988444  0.22477409  0.90107698  1
  N  N400  1  0.69278084  0.55540596  0.90656524  1
  N  N401  1  0.69247044  0.88967166  0.90585024  1
  N  N402  1  0.32057195  0.11017836  0.39952320  1
  N  N403  1  0.30611452  0.44369435  0.40803434  1
  N  N404  1  0.31359239  0.77698901  0.40318963  1
  N  N405  1  0.81300410  0.10974781  0.40381174  1
  N  N406  1  0.81111879  0.44232110  0.40428387  1
  N  N407  1  0.81464616  0.77712448  0.40321872  1
  N  N408  1  0.44016382  0.27565776  0.40388383  1
  N  N409  1  0.43776972  0.61015067  0.40196475  1
  N  N410  1  0.43256454  0.94464292  0.40151457  1
  N  N411  1  0.94131234  0.27615573  0.40464976  1
  N  N412  1  0.94110812  0.61105637  0.40713761  1
  N  N413  1  0.93434916  0.94271257  0.40191653  1
  N  N414  1  0.06406265  0.05690701  0.90262979  1
  N  N415  1  0.05940639  0.38958858  0.90550997  1
  N  N416  1  0.06849045  0.72242852  0.89837718  1
  N  N417  1  0.56934794  0.05569430  0.89674935  1
  N  N418  1  0.56499978  0.39115125  0.90585550  1
  N  N419  1  0.57007132  0.72261113  0.89896574  1
  N  N420  1  0.06652207  0.27596318  0.09595937  1
  N  N421  1  0.06657154  0.61052945  0.09904142  1
  N  N422  1  0.06174811  0.94390039  0.09952286  1
  N  N423  1  0.57104067  0.27745087  0.10233985  1
  N  N424  1  0.56641200  0.61061940  0.10033188  1
  N  N425  1  0.55854441  0.94404722  0.09279440  1
  N  N426  1  0.43489799  0.05603666  0.59558708  1
  N  N427  1  0.44517314  0.39103934  0.59191379  1
  N  N428  1  0.43805508  0.72243961  0.59982098  1
  N  N429  1  0.93328846  0.05724784  0.59897022  1
  N  N430  1  0.93766604  0.39125487  0.59583299  1
  N  N431  1  0.93609530  0.72389945  0.59784704  1
  N  N432  1  0.19123190  0.10834453  0.41245760  1
  N  N433  1  0.17989243  0.44340443  0.39638345  1
  N  N434  1  0.18456514  0.77696104  0.40041513  1
  N  N435  1  0.68290786  0.11004611  0.40196348  1
  N  N436  1  0.68226949  0.44419668  0.40192116  1
  N  N437  1  0.68474741  0.77725301  0.40426841  1
  N  N438  1  0.30881917  0.22480160  0.90516035  1
  N  N439  1  0.30905024  0.55501136  0.90632414  1
  N  N440  1  0.31669294  0.88927275  0.89898342  1
  N  N441  1  0.80787146  0.22391544  0.90390960  1
  N  N442  1  0.82196252  0.55447147  0.89409498  1
  N  N443  1  0.82192495  0.88871849  0.89546734  1
  N  N444  1  0.30841604  0.10963671  0.09458686  1
  N  N445  1  0.31779253  0.44369329  0.10149414  1
  N  N446  1  0.30746247  0.77640027  0.09506256  1
  N  N447  1  0.81265001  0.11037362  0.09893237  1
  N  N448  1  0.81487658  0.44283545  0.09511638  1
  N  N449  1  0.80836413  0.77594972  0.09497563  1
  N  N450  1  0.17937388  0.22296002  0.59788893  1
  N  N451  1  0.18368558  0.55604362  0.59995317  1
  N  N452  1  0.18551488  0.89119161  0.59516843  1
  N  N453  1  0.68199374  0.22268357  0.60203015  1
  N  N454  1  0.67820484  0.55644055  0.60051253  1
  N  N455  1  0.68856927  0.88986039  0.59396573  1
  Cl  Cl456  1  0.25087158  0.05311894  0.62052292  1
  Cl  Cl457  1  0.25836808  0.38812021  0.60514024  1
  Cl  Cl458  1  0.24992661  0.72342460  0.61395963  1
  Cl  Cl459  1  0.74636163  0.05280250  0.61813289  1
  Cl  Cl460  1  0.75497276  0.38900222  0.61186973  1
  Cl  Cl461  1  0.75095344  0.71699093  0.62133221  1
  Cl  Cl462  1  0.25798395  0.27790560  0.11291310  1
  Cl  Cl463  1  0.25228167  0.61076671  0.10937971  1
  Cl  Cl464  1  0.24806763  0.94850284  0.11519878  1
  Cl  Cl465  1  0.75113978  0.28326797  0.12050013  1
  Cl  Cl466  1  0.75018673  0.61509032  0.11915832  1
  Cl  Cl467  1  0.74290301  0.94584547  0.11283475  1
  Cl  Cl468  1  0.25841719  0.05775165  0.89289986  1
  Cl  Cl469  1  0.24290071  0.38670824  0.88217840  1
  Cl  Cl470  1  0.26009421  0.72177287  0.89018046  1
  Cl  Cl471  1  0.75114929  0.05316621  0.88601480  1
  Cl  Cl472  1  0.74977950  0.38395439  0.87720007  1
  Cl  Cl473  1  0.75696380  0.72174574  0.88949486  1
  Cl  Cl474  1  0.25776269  0.27756101  0.38832224  1
  Cl  Cl475  1  0.25036812  0.61696084  0.37750650  1
  Cl  Cl476  1  0.24719073  0.94824104  0.38160342  1
  Cl  Cl477  1  0.75542080  0.28102875  0.38519940  1
  Cl  Cl478  1  0.75699912  0.61340570  0.38594275  1
  Cl  Cl479  1  0.75048605  0.94872071  0.37914514  1
  Cl  Cl480  1  -0.00557603  0.21987257  0.61651505  1
  Cl  Cl481  1  -0.00306810  0.55554656  0.60355430  1
  Cl  Cl482  1  -0.00141874  0.88877970  0.61228261  1
  Cl  Cl483  1  0.49284955  0.21934198  0.61693605  1
  Cl  Cl484  1  0.49395986  0.54920162  0.61947507  1
  Cl  Cl485  1  0.50430323  0.88665354  0.62260475  1
  Cl  Cl486  1  -0.00336952  0.11268343  0.11207082  1
  Cl  Cl487  1  0.00551297  0.44392373  0.11237190  1
  Cl  Cl488  1  -0.00781433  0.77842699  0.11454613  1
  Cl  Cl489  1  0.49437391  0.10960721  0.10525754  1
  Cl  Cl490  1  0.50224774  0.44775533  0.12378278  1
  Cl  Cl491  1  0.49092899  0.77911694  0.10820748  1
  Cl  Cl492  1  -0.00387794  0.21896518  0.88359203  1
  Cl  Cl493  1  0.00252393  0.54919365  0.87426900  1
  Cl  Cl494  1  0.00406173  0.88582291  0.87902968  1
  Cl  Cl495  1  0.49326431  0.22237052  0.88999363  1
  Cl  Cl496  1  0.49690541  0.55446059  0.88828550  1
  Cl  Cl497  1  0.50414561  0.89156965  0.89532266  1
  Cl  Cl498  1  0.00172391  0.11469979  0.37772944  1
  Cl  Cl499  1  -0.00302555  0.44678207  0.38437983  1
  Cl  Cl500  1  0.00056125  0.78210900  0.38272882  1
  Cl  Cl501  1  0.50263631  0.11062698  0.38359782  1
  Cl  Cl502  1  0.49190917  0.44361037  0.39572394  1
  Cl  Cl503  1  0.49862095  0.78130277  0.38016121  1
  Cl  Cl504  1  0.36276723  0.14265890  0.75032298  1
  Cl  Cl505  1  0.36080825  0.47583252  0.75022579  1
  Cl  Cl506  1  0.36122001  0.80842410  0.75152823  1
  Cl  Cl507  1  0.86143590  0.14166039  0.75200305  1
  Cl  Cl508  1  0.86361315  0.47563931  0.75037391  1
  Cl  Cl509  1  0.86365240  0.80904347  0.75162484  1
  Cl  Cl510  1  0.13811558  0.19097429  0.24793058  1
  Cl  Cl511  1  0.13689178  0.52431372  0.25246028  1
  Cl  Cl512  1  0.13824648  0.85732998  0.24799586  1
  Cl  Cl513  1  0.63590500  0.19049793  0.24975782  1
  Cl  Cl514  1  0.63716343  0.52412263  0.25175077  1
  Cl  Cl515  1  0.63624885  0.85629331  0.24638969  1
  Cl  Cl516  1  0.13853219  0.14262682  0.75221316  1
  Cl  Cl517  1  0.13783280  0.47491909  0.74905288  1
  Cl  Cl518  1  0.13667607  0.80844823  0.74846534  1
  Cl  Cl519  1  0.63619338  0.14230449  0.75028004  1
  Cl  Cl520  1  0.63698783  0.47627240  0.74624803  1
  Cl  Cl521  1  0.63896877  0.80837226  0.75226268  1
  Cl  Cl522  1  0.36233605  0.19175416  0.25128960  1
  Cl  Cl523  1  0.36190910  0.52378170  0.24816829  1
  Cl  Cl524  1  0.36283680  0.85702025  0.24847280  1
  Cl  Cl525  1  0.86114733  0.19023559  0.24811400  1
  Cl  Cl526  1  0.86208584  0.52375524  0.25153246  1
  Cl  Cl527  1  0.86150110  0.85826141  0.25020606  1
  Cl  Cl528  1  0.11305917  0.30919555  0.74871874  1
  Cl  Cl529  1  0.11131296  0.64171054  0.75009198  1
  Cl  Cl530  1  0.11222203  0.97582755  0.74971658  1
  Cl  Cl531  1  0.61249932  0.30915737  0.74833289  1
  Cl  Cl532  1  0.61211004  0.64258068  0.75152120  1
  Cl  Cl533  1  0.61037056  0.97645010  0.75232168  1
  Cl  Cl534  1  0.38814562  0.02398574  0.24806634  1
  Cl  Cl535  1  0.38808374  0.35752845  0.24965228  1
  Cl  Cl536  1  0.38736885  0.69035569  0.24849938  1
  Cl  Cl537  1  0.88730364  0.02411110  0.24897690  1
  Cl  Cl538  1  0.88699153  0.35765773  0.25064218  1
  Cl  Cl539  1  0.88879667  0.69049259  0.25121756  1
  Cl  Cl540  1  0.38842573  0.30955564  0.75108952  1
  Cl  Cl541  1  0.38688657  0.64309610  0.74929755  1
  Cl  Cl542  1  0.38947256  0.97564521  0.75104188  1
  Cl  Cl543  1  0.88807228  0.31034277  0.75004784  1
  Cl  Cl544  1  0.88903383  0.64107373  0.75013308  1
  Cl  Cl545  1  0.88728641  0.97576152  0.75168789  1
  Cl  Cl546  1  0.11241778  0.02352367  0.24698425  1
  Cl  Cl547  1  0.11194099  0.35803653  0.25207713  1
  Cl  Cl548  1  0.11230962  0.69096580  0.25005928  1
  Cl  Cl549  1  0.60977194  0.02521804  0.24881890  1
  Cl  Cl550  1  0.61225829  0.35796171  0.25209478  1
  Cl  Cl551  1  0.61280651  0.69055486  0.24900221  1
