# generated using pymatgen
data_H8PbC4(N3Cl2)2
_symmetry_space_group_name_H-M   'P 1'
_cell_length_a   16.63663231
_cell_length_b   22.52766256
_cell_length_c   21.59508498
_cell_angle_alpha   90.00433995
_cell_angle_beta   89.96700981
_cell_angle_gamma   90.00069204
_symmetry_Int_Tables_number   1
_chemical_formula_structural   H8PbC4(N3Cl2)2
_chemical_formula_sum   'H192 Pb24 C96 N144 Cl96'
_cell_volume   8093.50044392
_cell_formula_units_Z   24
loop_
 _symmetry_equiv_pos_site_id
 _symmetry_equiv_pos_as_xyz
  1  'x, y, z'
loop_
 _atom_site_type_symbol
 _atom_site_label
 _atom_site_symmetry_multiplicity
 _atom_site_fract_x
 _atom_site_fract_y
 _atom_site_fract_z
 _atom_site_occupancy
  H  H0  1  -0.00052138  0.02616657  0.68498692  1
  H  H1  1  -0.01598622  0.35481088  0.67422476  1
  H  H2  1  0.00281211  0.69874703  0.67377683  1
  H  H3  1  0.48971169  0.02355084  0.67430691  1
  H  H4  1  0.51097326  0.36764614  0.67823102  1
  H  H5  1  0.49153386  0.69936677  0.68541308  1
  H  H6  1  -0.01089336  0.30259408  0.17854590  1
  H  H7  1  0.00788264  0.63457799  0.18039711  1
  H  H8  1  -0.00479606  0.97904086  0.17805102  1
  H  H9  1  0.51777228  0.30756059  0.17046761  1
  H  H10  1  0.49769644  0.63824995  0.17656119  1
  H  H11  1  0.52608400  0.96675073  0.15963275  1
  H  H12  1  -0.00953452  0.02693953  0.83100953  1
  H  H13  1  -0.00291208  0.36126781  0.81777274  1
  H  H14  1  -0.00043524  0.69415389  0.82336336  1
  H  H15  1  0.50582293  0.02928831  0.81798097  1
  H  H16  1  0.50829074  0.36202016  0.82891766  1
  H  H17  1  0.51894853  0.70257814  0.84715856  1
  H  H18  1  -0.00925473  0.30942502  0.32327389  1
  H  H19  1  0.00177979  0.63688156  0.32274825  1
  H  H20  1  0.01101253  0.97093206  0.32460309  1
  H  H21  1  0.48849184  0.30758693  0.32138974  1
  H  H22  1  0.51046727  0.63748936  0.32115751  1
  H  H23  1  0.49330102  0.97250065  0.32211819  1
  H  H24  1  0.26253501  0.19300411  0.67753205  1
  H  H25  1  0.24033770  0.52621419  0.68020992  1
  H  H26  1  0.24922120  0.86009869  0.67390168  1
  H  H27  1  0.73809946  0.19426158  0.67942788  1
  H  H28  1  0.74848027  0.52159604  0.66986706  1
  H  H29  1  0.75776474  0.86192075  0.67362469  1
  H  H30  1  0.27252593  0.14074439  0.17064390  1
  H  H31  1  0.23434103  0.47634365  0.17341211  1
  H  H32  1  0.24288943  0.80619566  0.18203955  1
  H  H33  1  0.72401845  0.13926568  0.17496499  1
  H  H34  1  0.77464561  0.46904690  0.17823872  1
  H  H35  1  0.72533099  0.80043244  0.16018174  1
  H  H36  1  0.23426218  0.19736389  0.82700073  1
  H  H37  1  0.25020896  0.53131329  0.82135511  1
  H  H38  1  0.25279154  0.86282663  0.81587944  1
  H  H39  1  0.75906329  0.19261903  0.82297291  1
  H  H40  1  0.75713328  0.52782365  0.82698339  1
  H  H41  1  0.72000239  0.86854013  0.84095653  1
  H  H42  1  0.25859326  0.13657829  0.32112662  1
  H  H43  1  0.24463671  0.46742772  0.32359558  1
  H  H44  1  0.25877035  0.80926299  0.32543227  1
  H  H45  1  0.75952105  0.13794849  0.31582600  1
  H  H46  1  0.75193305  0.47350412  0.32609169  1
  H  H47  1  0.74522383  0.80356248  0.32147286  1
  H  H48  1  0.13183106  0.04826393  0.62425837  1
  H  H49  1  0.12015755  0.38029150  0.61922719  1
  H  H50  1  0.13359771  0.72301165  0.60985457  1
  H  H51  1  0.63154210  0.04819468  0.62607380  1
  H  H52  1  0.61229459  0.39567241  0.59024093  1
  H  H53  1  0.63150723  0.71705922  0.62907091  1
  H  H54  1  0.37696561  0.28520951  0.12025075  1
  H  H55  1  0.38444327  0.61093873  0.09789552  1
  H  H56  1  0.41441256  0.93543668  0.08343414  1
  H  H57  1  0.88562573  0.27016810  0.09308962  1
  H  H58  1  0.89014165  0.61160185  0.10668785  1
  H  H59  1  0.88880543  0.94604524  0.09659918  1
  H  H60  1  0.37934037  0.05882275  0.88399299  1
  H  H61  1  0.37445416  0.38758324  0.88823454  1
  H  H62  1  0.41249276  0.72988105  0.92863615  1
  H  H63  1  0.87965040  0.06213352  0.90731095  1
  H  H64  1  0.87077535  0.38710745  0.88431330  1
  H  H65  1  0.89955722  0.72984191  0.90910135  1
  H  H66  1  0.12163755  0.28751449  0.38256470  1
  H  H67  1  0.10968753  0.60574956  0.40265869  1
  H  H68  1  0.13109775  0.94323529  0.39704000  1
  H  H69  1  0.63170498  0.28590306  0.36960442  1
  H  H70  1  0.61206770  0.60416179  0.40620079  1
  H  H71  1  0.62862893  0.94870291  0.38367603  1
  H  H72  1  0.35886890  0.22646878  0.58903930  1
  H  H73  1  0.37707934  0.54959715  0.62701690  1
  H  H74  1  0.36766857  0.89269270  0.60222991  1
  H  H75  1  0.86915353  0.22054427  0.61590991  1
  H  H76  1  0.88694230  0.54832725  0.61807899  1
  H  H77  1  0.87064695  0.88928497  0.59616571  1
  H  H78  1  0.12589439  0.12217518  0.13092929  1
  H  H79  1  0.13898548  0.44123491  0.08544936  1
  H  H80  1  0.11585088  0.77625837  0.11483515  1
  H  H81  1  0.62593471  0.10852864  0.08682733  1
  H  H82  1  0.63283447  0.44849790  0.12521140  1
  H  H83  1  0.58624811  0.77931629  0.10690134  1
  H  H84  1  0.12826732  0.22684616  0.91112316  1
  H  H85  1  0.12250033  0.55651841  0.88903647  1
  H  H86  1  0.11666100  0.88696961  0.86858292  1
  H  H87  1  0.61916210  0.21918455  0.87193340  1
  H  H88  1  0.61447640  0.54557376  0.87761929  1
  H  H89  1  0.58380544  0.88390484  0.89865877  1
  H  H90  1  0.36476897  0.10382148  0.40485871  1
  H  H91  1  0.37884924  0.44941560  0.38394440  1
  H  H92  1  0.35757949  0.77391186  0.41105704  1
  H  H93  1  0.86832507  0.11452090  0.39752571  1
  H  H94  1  0.88151063  0.44331001  0.38856482  1
  H  H95  1  0.86888831  0.78212247  0.39195732  1
  H  H96  1  0.38976618  0.27335065  0.40887692  1
  H  H97  1  0.36898492  0.61504157  0.36965282  1
  H  H98  1  0.38157306  0.94126909  0.40179650  1
  H  H99  1  0.87496601  0.28181128  0.39786797  1
  H  H100  1  0.86389829  0.61797992  0.37606091  1
  H  H101  1  0.88247450  0.94562089  0.39120245  1
  H  H102  1  0.12574973  0.05184146  0.88829324  1
  H  H103  1  0.11977399  0.38940161  0.88914989  1
  H  H104  1  0.14218651  0.71033464  0.87247844  1
  H  H105  1  0.62659633  0.05120347  0.89192985  1
  H  H106  1  0.62097057  0.39213549  0.90553181  1
  H  H107  1  0.65660941  0.72166982  0.89859380  1
  H  H108  1  0.12957686  0.28366417  0.12510268  1
  H  H109  1  0.13901914  0.61301954  0.11664972  1
  H  H110  1  0.13252091  0.94931145  0.12556015  1
  H  H111  1  0.62092280  0.27166429  0.08800999  1
  H  H112  1  0.63171326  0.61535706  0.11631896  1
  H  H113  1  0.66164702  0.94687084  0.10278849  1
  H  H114  1  0.38756705  0.05690050  0.58985221  1
  H  H115  1  0.36924983  0.38349861  0.62518022  1
  H  H116  1  0.38587422  0.72843144  0.60192080  1
  H  H117  1  0.88370262  0.04982003  0.60898274  1
  H  H118  1  0.87410041  0.39024158  0.59503274  1
  H  H119  1  0.88470424  0.72591381  0.59941341  1
  H  H120  1  0.11976332  0.11759038  0.37697108  1
  H  H121  1  0.13059358  0.44019164  0.39881772  1
  H  H122  1  0.11531702  0.79052488  0.37445809  1
  H  H123  1  0.62219521  0.11802127  0.36953058  1
  H  H124  1  0.63295372  0.44343728  0.39825097  1
  H  H125  1  0.62007429  0.77993631  0.38857713  1
  H  H126  1  0.37287983  0.21989106  0.88167221  1
  H  H127  1  0.37079989  0.55650198  0.89350759  1
  H  H128  1  0.36137998  0.88111489  0.89799127  1
  H  H129  1  0.86339355  0.22361454  0.90743329  1
  H  H130  1  0.85763274  0.56303688  0.91109735  1
  H  H131  1  0.83177077  0.89908904  0.91856940  1
  H  H132  1  0.36332816  0.09963298  0.08260418  1
  H  H133  1  0.37947996  0.45495957  0.13066319  1
  H  H134  1  0.36344943  0.77918153  0.10769171  1
  H  H135  1  0.86761817  0.11502248  0.12988111  1
  H  H136  1  0.87776548  0.43876763  0.09376770  1
  H  H137  1  0.83304648  0.76587105  0.07975921  1
  H  H138  1  0.11746069  0.21521665  0.63388469  1
  H  H139  1  0.13193752  0.55642298  0.59837679  1
  H  H140  1  0.11915921  0.88825684  0.61109773  1
  H  H141  1  0.62111706  0.22384858  0.60409264  1
  H  H142  1  0.64071316  0.55720990  0.58960771  1
  H  H143  1  0.62356528  0.88573702  0.61423519  1
  H  H144  1  0.22542075  0.41812242  -0.01086487  1
  H  H145  1  0.67978904  0.25573502  0.49923114  1
  H  H146  1  0.94191960  0.07800635  0.49973599  1
  H  H147  1  0.13042691  0.74203069  -0.01545315  1
  H  H148  1  0.12719415  0.75595389  0.48312914  1
  H  H149  1  0.71551441  0.58289652  0.48868926  1
  H  H150  1  0.76203335  0.74475899  -0.02273418  1
  H  H151  1  0.38485310  0.41305120  0.51463024  1
  H  H152  1  0.34693558  0.24873990  0.99064042  1
  H  H153  1  0.27319919  0.25178538  0.49318882  1
  H  H154  1  0.09764305  0.08433599  0.99779178  1
  H  H155  1  0.06736099  0.41053786  0.99547911  1
  H  H156  1  0.04081188  0.57485321  0.50741960  1
  H  H157  1  0.97690685  0.75083065  1.00794023  1
  H  H158  1  0.96407045  0.91547402  -0.00290497  1
  H  H159  1  0.13613985  0.91043607  -0.01509644  1
  H  H160  1  0.79888677  0.40832302  -0.00763422  1
  H  H161  1  0.18747580  0.41225880  0.50756298  1
  H  H162  1  0.66158411  0.75026503  0.50010272  1
  H  H163  1  0.94474451  0.58247200  -0.00387578  1
  H  H164  1  0.40406802  0.41770617  0.99766757  1
  H  H165  1  0.96551382  0.24195034  -0.00351420  1
  H  H166  1  0.20333917  0.57882399  0.49708078  1
  H  H167  1  0.27391544  0.75564902  0.50917666  1
  H  H168  1  0.10210542  0.07593130  0.51137134  1
  H  H169  1  0.71093645  0.08418983  -0.00952305  1
  H  H170  1  0.35662105  0.57971351  0.51214340  1
  H  H171  1  0.64108003  0.08982063  0.48491962  1
  H  H172  1  0.27423046  0.07892282  -0.01256554  1
  H  H173  1  0.47386796  0.24757254  0.50450356  1
  H  H174  1  0.28661677  0.07876035  0.50374313  1
  H  H175  1  0.65541686  0.91534657  0.50654138  1
  H  H176  1  0.46796982  0.08161911  0.49034573  1
  H  H177  1  0.47381921  0.90112540  -0.02214368  1
  H  H178  1  0.43540967  0.11274886  0.97445832  1
  H  H179  1  0.80045562  0.08609237  0.50353422  1
  H  H180  1  0.62880678  0.58149938  0.98597109  1
  H  H181  1  0.45921151  0.75727831  0.49984308  1
  H  H182  1  0.91514667  0.42558585  0.99263803  1
  H  H183  1  0.94145909  0.75492342  0.49609093  1
  H  H184  1  0.77148665  0.92862295  1.02485949  1
  H  H185  1  0.77608336  0.58116821  1.01030688  1
  H  H186  1  0.88005607  0.58785256  0.49137809  1
  H  H187  1  0.56428768  0.05933309  0.99708638  1
  H  H188  1  0.78499114  0.25398634  1.00481716  1
  H  H189  1  0.09313801  0.25493321  0.49663034  1
  H  H190  1  0.29509022  0.91081339  1.00472677  1
  H  H191  1  0.53147665  0.58113658  0.50570972  1
  Pb  Pb192  1  0.25453104  0.04886418  0.74617530  1
  Pb  Pb193  1  0.24844726  0.38516555  0.75669325  1
  Pb  Pb194  1  0.25409185  0.71693119  0.75202002  1
  Pb  Pb195  1  0.75063581  0.04912791  0.75534500  1
  Pb  Pb196  1  0.74875601  0.38240264  0.74473432  1
  Pb  Pb197  1  0.75895491  0.71859963  0.74980588  1
  Pb  Pb198  1  0.24883952  0.28288558  0.26194900  1
  Pb  Pb199  1  0.24746285  0.61775479  0.25710535  1
  Pb  Pb200  1  0.25029184  0.94943403  0.24517839  1
  Pb  Pb201  1  0.74922680  0.28309541  0.23762460  1
  Pb  Pb202  1  0.74243291  0.61346395  0.24974737  1
  Pb  Pb203  1  0.74778796  0.94882922  0.25819820  1
  Pb  Pb204  1  -0.00199219  0.21486635  0.76376907  1
  Pb  Pb205  1  -0.00298087  0.55047282  0.75550228  1
  Pb  Pb206  1  -0.00757939  0.88172717  0.75940677  1
  Pb  Pb207  1  0.49653948  0.21769647  0.73828823  1
  Pb  Pb208  1  0.50746255  0.55300802  0.74054733  1
  Pb  Pb209  1  0.49898438  0.88066138  0.74202737  1
  Pb  Pb210  1  -0.00470942  0.11615532  0.25416929  1
  Pb  Pb211  1  0.00175318  0.44951279  0.23947269  1
  Pb  Pb212  1  -0.01225468  0.78110369  0.24251592  1
  Pb  Pb213  1  0.49251427  0.11259466  0.23549257  1
  Pb  Pb214  1  0.49720996  0.44995712  0.25168034  1
  Pb  Pb215  1  0.49351631  0.78410551  0.26027321  1
  C  C216  1  0.00540358  0.04082665  0.63727950  1
  C  C217  1  -0.00754571  0.37438759  0.62900605  1
  C  C218  1  0.00670155  0.71519594  0.62662928  1
  C  C219  1  0.50271906  0.04096389  0.62857375  1
  C  C220  1  0.49707024  0.38154084  0.63131930  1
  C  C221  1  0.50340277  0.71424070  0.63847822  1
  C  C222  1  0.00110032  0.28624537  0.13227401  1
  C  C223  1  0.01203752  0.62008000  0.13270419  1
  C  C224  1  0.00553796  0.95931595  0.13295455  1
  C  C225  1  0.50491435  0.28831788  0.12574521  1
  C  C226  1  0.50461362  0.62237285  0.12959570  1
  C  C227  1  0.53436189  0.95022656  0.11273204  1
  C  C228  1  -0.00079315  0.04510236  0.87688728  1
  C  C229  1  -0.00345954  0.37740641  0.86521823  1
  C  C230  1  0.01357189  0.70987991  0.86975125  1
  C  C231  1  0.50381514  0.04552213  0.86539286  1
  C  C232  1  0.50056141  0.37896320  0.87548372  1
  C  C233  1  0.53011780  0.71777623  0.89406113  1
  C  C234  1  -0.00338857  0.29313236  0.37025515  1
  C  C235  1  -0.00880063  0.62095728  0.36952537  1
  C  C236  1  0.00787186  0.95395620  0.37137357  1
  C  C237  1  0.50312361  0.29056375  0.36698074  1
  C  C238  1  0.49720918  0.62128324  0.36734398  1
  C  C239  1  0.50121829  0.95507414  0.36865172  1
  C  C240  1  0.24649701  0.20968897  0.63203784  1
  C  C241  1  0.24986456  0.54265067  0.63339060  1
  C  C242  1  0.24510874  0.87994005  0.62850750  1
  C  C243  1  0.74277606  0.21200128  0.63287835  1
  C  C244  1  0.75835933  0.54082938  0.62437287  1
  C  C245  1  0.75012677  0.87796091  0.62669754  1
  C  C246  1  0.25426391  0.12327715  0.12601103  1
  C  C247  1  0.25076179  0.45917736  0.12817954  1
  C  C248  1  0.24014413  0.78898318  0.13516978  1
  C  C249  1  0.73915407  0.12272299  0.12936068  1
  C  C250  1  0.76143796  0.45283815  0.13199625  1
  C  C251  1  0.71539741  0.78314421  0.11375508  1
  C  C252  1  0.24537448  0.21469692  0.87304854  1
  C  C253  1  0.24736346  0.54787860  0.86829683  1
  C  C254  1  0.24268062  0.87636065  0.86360173  1
  C  C255  1  0.74730542  0.21069666  0.86846842  1
  C  C256  1  0.74287277  0.54474270  0.87292971  1
  C  C257  1  0.71139722  0.88438164  0.88815482  1
  C  C258  1  0.24771347  0.12032581  0.36767518  1
  C  C259  1  0.25103099  0.45231478  0.37101167  1
  C  C260  1  0.24361699  0.79227418  0.37114791  1
  C  C261  1  0.74926301  0.12346809  0.36316876  1
  C  C262  1  0.75571296  0.45401910  0.37167303  1
  C  C263  1  0.74413938  0.78866311  0.36913500  1
  C  C264  1  0.98048260  0.59299321  0.03691124  1
  C  C265  1  0.08038977  0.73585992  0.95277840  1
  C  C266  1  0.01083838  0.58976235  0.46545463  1
  C  C267  1  0.04017118  0.92111247  0.46317713  1
  C  C268  1  0.22444672  0.42369778  0.46726421  1
  C  C269  1  0.26437384  0.90092200  0.96136613  1
  C  C270  1  0.65394811  0.75445217  0.02781810  1
  C  C271  1  0.65450118  0.91030345  0.97809943  1
  C  C272  1  0.51852686  0.25120585  0.03227801  1
  C  C273  1  0.71492083  0.24332149  0.53960007  1
  C  C274  1  0.17486450  0.24041929  0.55189205  1
  C  C275  1  0.80923438  0.08996094  0.04872922  1
  C  C276  1  0.77032171  0.09724920  0.46043060  1
  C  C277  1  0.43028070  0.59190837  0.45047096  1
  C  C278  1  0.32339323  0.43023851  0.04784121  1
  C  C279  1  0.59107194  0.74357990  0.98264519  1
  C  C280  1  0.27553897  0.91822862  0.53859211  1
  C  C281  1  0.72499368  0.41687668  0.46181006  1
  C  C282  1  0.77820589  0.90945986  0.53150141  1
  C  C283  1  0.50821857  0.74723883  0.99145919  1
  C  C284  1  0.05592018  0.74248515  0.53557087  1
  C  C285  1  0.92985672  0.59569074  0.45686017  1
  C  C286  1  0.68301349  0.24729749  0.95005986  1
  C  C287  1  0.06163050  0.59394755  0.04219560  1
  C  C288  1  0.30989066  0.57181531  0.54772360  1
  C  C289  1  0.95320226  0.40958143  0.95532935  1
  C  C290  1  0.97331308  0.08266588  0.97000316  1
  C  C291  1  0.52833538  0.41266148  0.96989420  1
  C  C292  1  0.18326858  0.90130970  0.95139341  1
  C  C293  1  0.81967841  0.57478557  0.54069218  1
  C  C294  1  0.96616590  0.26360773  0.46457979  1
  C  C295  1  0.55432808  0.59586024  0.04009325  1
  C  C296  1  0.30568179  0.42694902  0.46047064  1
  C  C297  1  0.48799721  0.74346259  0.54296223  1
  C  C298  1  0.04702922  0.40808870  0.54375337  1
  C  C299  1  0.77342302  0.42181930  0.03664475  1
  C  C300  1  0.59056357  0.92188442  0.02332401  1
  C  C301  1  0.28082346  0.58095544  0.95983779  1
  C  C302  1  0.05744383  0.06635917  0.54689815  1
  C  C303  1  0.70301534  0.76076538  0.46267490  1
  C  C304  1  0.56893285  0.07351339  0.54640475  1
  C  C305  1  0.17829799  0.09533335  0.04692995  1
  C  C306  1  0.73704419  0.91529426  0.98424329  1
  C  C307  1  0.78449529  0.76232005  0.46254990  1
  C  C308  1  0.50799266  0.91722323  0.01740730  1
  C  C309  1  0.97572004  0.06723844  0.54128006  1
  C  C310  1  0.68910844  0.09875812  0.45089511  1
  C  C311  1  0.04741199  0.26479047  0.46101239  1
  N  N312  1  0.47742323  0.92315900  0.46330472  1
  N  N313  1  0.06588567  0.25657121  0.04880451  1
  N  N314  1  0.20350087  0.58050767  0.95979842  1
  N  N315  1  0.67856315  0.56737597  0.95665900  1
  N  N316  1  0.18515589  0.09082865  0.45194833  1
  N  N317  1  0.57194776  0.26136556  0.44866353  1
  N  N318  1  0.47710226  0.59381553  0.03310135  1
  N  N319  1  0.17768132  0.76944932  0.45390582  1
  N  N320  1  0.80222389  0.41693420  0.46006320  1
  N  N321  1  0.25349768  0.75526356  0.46346077  1
  N  N322  1  0.50755067  0.58883887  0.46180090  1
  N  N323  1  0.49144263  0.07558775  0.53488164  1
  N  N324  1  0.26209241  0.08647569  0.46023855  1
  N  N325  1  0.43582436  0.40501718  0.54673543  1
  N  N326  1  1.00296618  0.74323968  0.96420419  1
  N  N327  1  0.51199158  0.40904468  0.53402263  1
  N  N328  1  0.75467881  0.58198909  0.96511520  1
  N  N329  1  0.45015719  0.40941053  0.96339951  1
  N  N330  1  0.19819002  0.91676049  0.53998815  1
  N  N331  1  0.73244800  0.08994140  0.03491112  1
  N  N332  1  0.23111246  0.57476664  0.53956199  1
  N  N333  1  0.03283402  0.40936072  0.95614976  1
  N  N334  1  0.69572148  0.42491711  0.04745204  1
  N  N335  1  0.55335236  0.92575250  0.45719709  1
  N  N336  1  0.44215117  0.25586828  0.04147390  1
  N  N337  1  0.27480617  0.75636385  0.04297648  1
  N  N338  1  0.73389728  0.74741028  0.02065865  1
  N  N339  1  0.22453537  0.24515301  0.96900219  1
  N  N340  1  0.79384339  0.24142377  0.54273618  1
  N  N341  1  0.25146828  0.24401830  0.53801550  1
  N  N342  1  0.56608395  0.73903110  0.55155320  1
  N  N343  1  0.45976906  0.07499762  0.95556087  1
  N  N344  1  0.97695693  0.74435320  0.53331680  1
  N  N345  1  0.30147176  0.24280341  0.95805437  1
  N  N346  1  0.49561025  0.25630752  0.45989344  1
  N  N347  1  0.74149372  0.57786877  0.53213577  1
  N  N348  1  0.24668206  0.42522820  0.03392137  1
  N  N349  1  0.25427582  0.08748410  0.03228349  1
  N  N350  1  0.97058282  0.41183275  0.53498167  1
  N  N351  1  0.05134013  0.07690292  0.96342694  1
  N  N352  1  0.69974366  0.90765377  0.53902119  1
  N  N353  1  0.98911423  0.25177767  0.03994359  1
  N  N354  1  0.76052485  0.24710826  0.96107771  1
  N  N355  1  0.19882717  0.75399862  0.04631917  1
  N  N356  1  0.98875662  0.92210497  0.04182111  1
  N  N357  1  0.96299342  0.92180682  0.46267919  1
  N  N358  1  0.54186121  0.07656948  0.95656833  1
  N  N359  1  0.06575956  0.92312319  0.05055904  1
  N  N360  1  0.07438144  0.05013251  0.60667225  1
  N  N361  1  0.06312237  0.38620079  0.60103387  1
  N  N362  1  0.07480769  0.72509878  0.59385078  1
  N  N363  1  0.57629338  0.05376720  0.60499376  1
  N  N364  1  0.54989501  0.39468755  0.58691364  1
  N  N365  1  0.57402037  0.72117670  0.61131994  1
  N  N366  1  0.43370398  0.27872012  0.10105436  1
  N  N367  1  0.44653717  0.61091185  0.08988157  1
  N  N368  1  0.47557046  0.93500995  0.07304518  1
  N  N369  1  0.94792672  0.27198079  0.08918411  1
  N  N370  1  0.95049181  0.60934558  0.09464048  1
  N  N371  1  0.95101748  0.94665242  0.09046318  1
  N  N372  1  0.43967465  0.06398990  0.89587409  1
  N  N373  1  0.43230465  0.38724491  0.90534134  1
  N  N374  1  0.47349119  0.73107906  0.93819323  1
  N  N375  1  0.94068625  0.06315410  0.91660155  1
  N  N376  1  0.93045842  0.39086096  0.89869348  1
  N  N377  1  0.96161878  0.72404100  0.91380619  1
  N  N378  1  0.06496836  0.28310060  0.40065560  1
  N  N379  1  0.04775041  0.60582537  0.41078554  1
  N  N380  1  0.07066389  0.94037363  0.40841818  1
  N  N381  1  0.57592451  0.28082081  0.39007055  1
  N  N382  1  0.54987201  0.61023300  0.41162651  1
  N  N383  1  0.56942454  0.94572978  0.39857894  1
  N  N384  1  0.29659839  0.22192590  0.58625514  1
  N  N385  1  0.32158588  0.55383514  0.60668133  1
  N  N386  1  0.30714199  0.89605849  0.59168322  1
  N  N387  1  0.80937805  0.22205726  0.60094884  1
  N  N388  1  0.83053556  0.55381257  0.59861958  1
  N  N389  1  0.80972749  0.89146889  0.58584289  1
  N  N390  1  0.17802573  0.11567426  0.10587167  1
  N  N391  1  0.20113741  0.44623679  0.08248816  1
  N  N392  1  0.17549595  0.77472545  0.10280426  1
  N  N393  1  0.68814061  0.11241955  0.08349789  1
  N  N394  1  0.69004959  0.44382838  0.10659163  1
  N  N395  1  0.64342602  0.77453552  0.08690781  1
  N  N396  1  0.18997270  0.22844028  0.91535225  1
  N  N397  1  0.18234933  0.55964126  0.90129316  1
  N  N398  1  0.17111593  0.88589972  0.89071013  1
  N  N399  1  0.67471900  0.22545831  0.89242988  1
  N  N400  1  0.67066906  0.55330008  0.89695082  1
  N  N401  1  0.64114056  0.89094852  0.91724419  1
  N  N402  1  0.30164315  0.10689979  0.41031703  1
  N  N403  1  0.32116470  0.44396475  0.40174546  1
  N  N404  1  0.29531575  0.77859258  0.41574826  1
  N  N405  1  0.80644389  0.11263691  0.40553680  1
  N  N406  1  0.82166773  0.44061035  0.40271875  1
  N  N407  1  0.80881692  0.77888390  0.40599406  1
  N  N408  1  0.45232634  0.27655312  0.41173313  1
  N  N409  1  0.42335173  0.61053846  0.39145869  1
  N  N410  1  0.44371617  0.94099817  0.40867092  1
  N  N411  1  0.93565881  0.28043176  0.41013043  1
  N  N412  1  0.91934911  0.61488749  0.39694148  1
  N  N413  1  0.94253460  0.94272120  0.40408583  1
  N  N414  1  0.06809313  0.05257222  0.90616351  1
  N  N415  1  0.05933742  0.38595358  0.90161554  1
  N  N416  1  0.08746726  0.71674444  0.89396976  1
  N  N417  1  0.56581024  0.04950347  0.90360322  1
  N  N418  1  0.55998744  0.39409718  0.91565342  1
  N  N419  1  0.60157358  0.72542137  0.92055603  1
  N  N420  1  0.07279633  0.27646361  0.10692028  1
  N  N421  1  0.08039241  0.60997099  0.10000432  1
  N  N422  1  0.07576703  0.94468108  0.10787458  1
  N  N423  1  0.55926158  0.27052327  0.08298315  1
  N  N424  1  0.57392399  0.61279625  0.09912482  1
  N  N425  1  0.60444689  0.94274360  0.08367571  1
  N  N426  1  0.44979021  0.05210774  0.58444359  1
  N  N427  1  0.42565101  0.38786247  0.60557284  1
  N  N428  1  0.44809153  0.72796414  0.59565590  1
  N  N429  1  0.94465326  0.05142169  0.59792123  1
  N  N430  1  0.93603839  0.39020322  0.58918019  1
  N  N431  1  0.94613898  0.72677186  0.58919352  1
  N  N432  1  0.17670163  0.11033296  0.39393013  1
  N  N433  1  0.19156227  0.43973690  0.41005633  1
  N  N434  1  0.17106342  0.78403180  0.39436626  1
  N  N435  1  0.67768012  0.11476817  0.39019103  1
  N  N436  1  0.69349734  0.43914465  0.40875325  1
  N  N437  1  0.67894994  0.77718984  0.40322170  1
  N  N438  1  0.31535299  0.22421608  0.90004929  1
  N  N439  1  0.31046732  0.56093666  0.90517822  1
  N  N440  1  0.29967875  0.88550318  0.90639719  1
  N  N441  1  0.80107937  0.22216184  0.91203673  1
  N  N442  1  0.79559361  0.55832557  0.91685844  1
  N  N443  1  0.76979490  0.89909464  0.92829295  1
  N  N444  1  0.30227427  0.10802809  0.07992863  1
  N  N445  1  0.32607543  0.44938107  0.10698858  1
  N  N446  1  0.30179926  0.77799812  0.09794405  1
  N  N447  1  0.81337379  0.10959870  0.10743763  1
  N  N448  1  0.81575139  0.43895264  0.08817911  1
  N  N449  1  0.77112444  0.76978720  0.07221053  1
  N  N450  1  0.17137324  0.22050046  0.61061243  1
  N  N451  1  0.19423113  0.55332499  0.59114413  1
  N  N452  1  0.17900559  0.89252448  0.59733423  1
  N  N453  1  0.68189709  0.22570207  0.59478228  1
  N  N454  1  0.70294859  0.55308600  0.58252911  1
  N  N455  1  0.68178539  0.88732870  0.59735950  1
  Cl  Cl456  1  0.26754384  0.06237318  0.60488000  1
  Cl  Cl457  1  0.24463414  0.38030216  0.62487481  1
  Cl  Cl458  1  0.26125663  0.73266830  0.60418621  1
  Cl  Cl459  1  0.75991531  0.05088758  0.62303425  1
  Cl  Cl460  1  0.73991339  0.39464092  0.61150571  1
  Cl  Cl461  1  0.76289906  0.72232526  0.61806975  1
  Cl  Cl462  1  0.25351504  0.28904295  0.13095783  1
  Cl  Cl463  1  0.26456999  0.60960276  0.12601771  1
  Cl  Cl464  1  0.28421166  0.94268374  0.11185904  1
  Cl  Cl465  1  0.76113029  0.27039082  0.09696562  1
  Cl  Cl466  1  0.76212281  0.60607032  0.10871872  1
  Cl  Cl467  1  0.77803977  0.95262823  0.12440821  1
  Cl  Cl468  1  0.25724208  0.06232266  0.89118371  1
  Cl  Cl469  1  0.24234399  0.39726362  0.89630863  1
  Cl  Cl470  1  0.28193035  0.71972132  0.87891360  1
  Cl  Cl471  1  0.74872477  0.06306454  0.89634810  1
  Cl  Cl472  1  0.74655542  0.38923932  0.88223494  1
  Cl  Cl473  1  0.78282642  0.72665351  0.88876468  1
  Cl  Cl474  1  0.27010885  0.26991003  0.40147634  1
  Cl  Cl475  1  0.23256447  0.60516744  0.39585797  1
  Cl  Cl476  1  0.25869443  0.94343432  0.38002215  1
  Cl  Cl477  1  0.75612378  0.28077938  0.36931323  1
  Cl  Cl478  1  0.72956393  0.59825117  0.38974729  1
  Cl  Cl479  1  0.75359235  0.94231247  0.39071101  1
  Cl  Cl480  1  -0.00909309  0.22365329  0.63339033  1
  Cl  Cl481  1  0.01366983  0.55670746  0.62073341  1
  Cl  Cl482  1  -0.00658530  0.88472614  0.62759592  1
  Cl  Cl483  1  0.48288260  0.22695452  0.59714172  1
  Cl  Cl484  1  0.52057077  0.56246565  0.59894742  1
  Cl  Cl485  1  0.49575623  0.89058570  0.61446469  1
  Cl  Cl486  1  -0.00345530  0.11031720  0.12068422  1
  Cl  Cl487  1  0.01166899  0.43641404  0.09676462  1
  Cl  Cl488  1  -0.04075729  0.77078675  0.10037404  1
  Cl  Cl489  1  0.49846032  0.09991638  0.09694550  1
  Cl  Cl490  1  0.50550561  0.44305025  0.11765170  1
  Cl  Cl491  1  0.47524355  0.78037414  0.12634764  1
  Cl  Cl492  1  -0.01075654  0.22423461  0.90328086  1
  Cl  Cl493  1  -0.01833112  0.55911425  0.89007194  1
  Cl  Cl494  1  -0.04541960  0.89867451  0.90509201  1
  Cl  Cl495  1  0.49393767  0.21355994  0.87123002  1
  Cl  Cl496  1  0.49141234  0.54484998  0.87102356  1
  Cl  Cl497  1  0.47307962  0.87220871  0.87561711  1
  Cl  Cl498  1  -0.00898297  0.11612162  0.38763222  1
  Cl  Cl499  1  0.00739274  0.44110509  0.37042234  1
  Cl  Cl500  1  -0.01089021  0.77818216  0.38281931  1
  Cl  Cl501  1  0.47986984  0.10137211  0.39701063  1
  Cl  Cl502  1  0.50724196  0.45031757  0.38180127  1
  Cl  Cl503  1  0.48009053  0.77277761  0.39451722  1
  Cl  Cl504  1  0.35132531  0.14795559  0.75590603  1
  Cl  Cl505  1  0.36357486  0.47889794  0.73736066  1
  Cl  Cl506  1  0.35250678  0.82320101  0.73964976  1
  Cl  Cl507  1  0.85674155  0.15271336  0.75202125  1
  Cl  Cl508  1  0.85565658  0.48720813  0.75011551  1
  Cl  Cl509  1  0.84509358  0.82634884  0.75736756  1
  Cl  Cl510  1  0.14273545  0.18720267  0.24955985  1
  Cl  Cl511  1  0.13843949  0.51708872  0.24473119  1
  Cl  Cl512  1  0.13018515  0.85774564  0.24724827  1
  Cl  Cl513  1  0.63287700  0.18766705  0.25495422  1
  Cl  Cl514  1  0.64422868  0.52023688  0.23854497  1
  Cl  Cl515  1  0.63913794  0.85428239  0.23868750  1
  Cl  Cl516  1  0.13264368  0.14289522  0.74748839  1
  Cl  Cl517  1  0.14034443  0.47936707  0.75842777  1
  Cl  Cl518  1  0.12559911  0.80767727  0.75695594  1
  Cl  Cl519  1  0.63352167  0.14674789  0.75027019  1
  Cl  Cl520  1  0.63712235  0.48330206  0.75157136  1
  Cl  Cl521  1  0.63291318  0.81052327  0.75439705  1
  Cl  Cl522  1  0.36199208  0.18205573  0.24912080  1
  Cl  Cl523  1  0.36021710  0.51680879  0.25996367  1
  Cl  Cl524  1  0.35143375  0.84261270  0.25313896  1
  Cl  Cl525  1  0.85688102  0.18000328  0.24061167  1
  Cl  Cl526  1  0.86550823  0.51982789  0.25363600  1
  Cl  Cl527  1  0.85492164  0.84591290  0.25172863  1
  Cl  Cl528  1  0.11545231  0.31203377  0.75792882  1
  Cl  Cl529  1  0.12330930  0.64271191  0.75576728  1
  Cl  Cl530  1  0.11558100  0.97429532  0.76961670  1
  Cl  Cl531  1  0.60491242  0.31534066  0.74913042  1
  Cl  Cl532  1  0.61042886  0.64945232  0.76380289  1
  Cl  Cl533  1  0.61666918  0.97730853  0.75092829  1
  Cl  Cl534  1  0.40339412  0.01404566  0.24440411  1
  Cl  Cl535  1  0.39699253  0.35205122  0.24739509  1
  Cl  Cl536  1  0.39122351  0.68107409  0.25695147  1
  Cl  Cl537  1  0.89866764  0.01530786  0.25920906  1
  Cl  Cl538  1  0.88870637  0.34986270  0.24340696  1
  Cl  Cl539  1  0.89100925  0.68335144  0.25372440  1
  Cl  Cl540  1  0.38710475  0.31310247  0.75520626  1
  Cl  Cl541  1  0.38448694  0.64668647  0.73777284  1
  Cl  Cl542  1  0.39496055  0.98705965  0.75223914  1
  Cl  Cl543  1  0.88978973  0.31792766  0.75403996  1
  Cl  Cl544  1  0.90218875  0.65922362  0.74815313  1
  Cl  Cl545  1  0.89393357  0.98947771  0.75583560  1
  Cl  Cl546  1  0.12045408  0.02393068  0.24333982  1
  Cl  Cl547  1  0.11345356  0.34890570  0.25208398  1
  Cl  Cl548  1  0.11189450  0.68763568  0.24858007  1
  Cl  Cl549  1  0.61982550  0.02264797  0.24496105  1
  Cl  Cl550  1  0.61718911  0.35450211  0.24634821  1
  Cl  Cl551  1  0.61243970  0.68759141  0.24324040  1
