# generated using pymatgen
data_H8PbC4(N3Cl2)2
_symmetry_space_group_name_H-M   'P 1'
_cell_length_a   16.62593711
_cell_length_b   22.51518526
_cell_length_c   21.59229153
_cell_angle_alpha   89.99869327
_cell_angle_beta   89.99410135
_cell_angle_gamma   89.99199723
_symmetry_Int_Tables_number   1
_chemical_formula_structural   H8PbC4(N3Cl2)2
_chemical_formula_sum   'H192 Pb24 C96 N144 Cl96'
_cell_volume   8082.77308907
_cell_formula_units_Z   24
loop_
 _symmetry_equiv_pos_site_id
 _symmetry_equiv_pos_as_xyz
  1  'x, y, z'
loop_
 _atom_site_type_symbol
 _atom_site_label
 _atom_site_symmetry_multiplicity
 _atom_site_fract_x
 _atom_site_fract_y
 _atom_site_fract_z
 _atom_site_occupancy
  H  H0  1  -0.00999326  0.03021742  0.67547553  1
  H  H1  1  -0.01512211  0.35974857  0.67501656  1
  H  H2  1  0.00199275  0.69353709  0.67713754  1
  H  H3  1  0.50755566  0.02904137  0.67825483  1
  H  H4  1  0.51673414  0.36542761  0.67913124  1
  H  H5  1  0.50392804  0.69716009  0.67793791  1
  H  H6  1  0.00615298  0.30292508  0.18325698  1
  H  H7  1  -0.01828557  0.63573458  0.17312562  1
  H  H8  1  -0.00436000  0.96811285  0.17430071  1
  H  H9  1  0.50013480  0.30372518  0.18150267  1
  H  H10  1  0.51354936  0.63299442  0.17620383  1
  H  H11  1  0.49955042  0.97035639  0.18072909  1
  H  H12  1  0.01737110  0.02881040  0.82312801  1
  H  H13  1  0.00768824  0.36310376  0.81966800  1
  H  H14  1  0.00167963  0.69477415  0.82882633  1
  H  H15  1  0.48298685  0.03018563  0.82518658  1
  H  H16  1  0.49880276  0.36215626  0.81686662  1
  H  H17  1  0.49910894  0.69063460  0.81917576  1
  H  H18  1  -0.01511971  0.30031098  0.32439885  1
  H  H19  1  -0.00146373  0.63311353  0.32346285  1
  H  H20  1  -0.00797295  0.97100762  0.32578649  1
  H  H21  1  0.50301195  0.30240592  0.32119435  1
  H  H22  1  0.50200731  0.64024319  0.32492441  1
  H  H23  1  0.50193094  0.97097239  0.32290072  1
  H  H24  1  0.26238604  0.19576974  0.68000813  1
  H  H25  1  0.26397987  0.53033774  0.67748581  1
  H  H26  1  0.25422656  0.86473233  0.67696974  1
  H  H27  1  0.75834838  0.19433956  0.67400619  1
  H  H28  1  0.74151835  0.53094753  0.67610615  1
  H  H29  1  0.75511313  0.86490036  0.67800416  1
  H  H30  1  0.24061610  0.13975638  0.18225297  1
  H  H31  1  0.24243233  0.47235653  0.18113867  1
  H  H32  1  0.26986327  0.80195138  0.17855939  1
  H  H33  1  0.75779841  0.13614719  0.17504521  1
  H  H34  1  0.74080678  0.47551756  0.17842937  1
  H  H35  1  0.73383944  0.80188774  0.17718826  1
  H  H36  1  0.24341364  0.19866342  0.81766653  1
  H  H37  1  0.24854793  0.53040586  0.82120143  1
  H  H38  1  0.26120869  0.86424107  0.82344581  1
  H  H39  1  0.74873137  0.19446541  0.81993844  1
  H  H40  1  0.74831941  0.52546776  0.82537077  1
  H  H41  1  0.74542992  0.86535266  0.82148303  1
  H  H42  1  0.25220529  0.13769111  0.32324733  1
  H  H43  1  0.24771062  0.47101008  0.32316254  1
  H  H44  1  0.24482639  0.80303433  0.31994888  1
  H  H45  1  0.75771150  0.13672035  0.31985905  1
  H  H46  1  0.75126017  0.47272575  0.31895929  1
  H  H47  1  0.74959814  0.80489558  0.31896848  1
  H  H48  1  0.12897321  0.05184712  0.62113520  1
  H  H49  1  0.12700559  0.38049938  0.62608431  1
  H  H50  1  0.11594284  0.72205283  0.59891497  1
  H  H51  1  0.63272629  0.05549822  0.60766820  1
  H  H52  1  0.61253204  0.39123897  0.59024944  1
  H  H53  1  0.61511269  0.72502767  0.59926633  1
  H  H54  1  0.37468170  0.28038552  0.11221428  1
  H  H55  1  0.37566889  0.61680049  0.12191155  1
  H  H56  1  0.38434687  0.94353227  0.10326813  1
  H  H57  1  0.87585394  0.28044808  0.11651928  1
  H  H58  1  0.88129927  0.60759000  0.08857240  1
  H  H59  1  0.88263640  0.94074506  0.09645302  1
  H  H60  1  0.38625593  0.06308582  0.91314144  1
  H  H61  1  0.36733460  0.38298517  0.87897409  1
  H  H62  1  0.37505762  0.71929452  0.88748339  1
  H  H63  1  0.87724536  0.04884931  0.87530028  1
  H  H64  1  0.86869281  0.38292797  0.87213868  1
  H  H65  1  0.87316089  0.71965748  0.89408486  1
  H  H66  1  0.12490278  0.28345986  0.37334047  1
  H  H67  1  0.11338314  0.60964551  0.40063453  1
  H  H68  1  0.12982764  0.94842883  0.38117715  1
  H  H69  1  0.63812859  0.28163555  0.38009194  1
  H  H70  1  0.61082306  0.60818793  0.40524081  1
  H  H71  1  0.63545563  0.94733184  0.38513191  1
  H  H72  1  0.37239335  0.22418064  0.59797696  1
  H  H73  1  0.38207365  0.55634821  0.60205148  1
  H  H74  1  0.36415695  0.89389751  0.59664815  1
  H  H75  1  0.86593989  0.22467807  0.59303782  1
  H  H76  1  0.88407771  0.55023193  0.62609342  1
  H  H77  1  0.86055932  0.89233335  0.59286814  1
  H  H78  1  0.12215340  0.11244001  0.10607592  1
  H  H79  1  0.13399850  0.44394211  0.09813219  1
  H  H80  1  0.12509218  0.78359416  0.13171262  1
  H  H81  1  0.62301687  0.11296354  0.11412724  1
  H  H82  1  0.63284121  0.44633433  0.09596420  1
  H  H83  1  0.63949195  0.77442735  0.08810322  1
  H  H84  1  0.12537223  0.22132760  0.89588319  1
  H  H85  1  0.12451927  0.55366861  0.89039903  1
  H  H86  1  0.11804329  0.88291350  0.87179850  1
  H  H87  1  0.62652661  0.22182485  0.89211295  1
  H  H88  1  0.62354347  0.55627407  0.89158604  1
  H  H89  1  0.62021774  0.88873795  0.89220835  1
  H  H90  1  0.36836277  0.11027123  0.39866784  1
  H  H91  1  0.37527887  0.44663831  0.38944159  1
  H  H92  1  0.38382262  0.78081975  0.37492144  1
  H  H93  1  0.86776037  0.10927910  0.40210734  1
  H  H94  1  0.87341600  0.44345238  0.39077745  1
  H  H95  1  0.88240276  0.78187227  0.38280368  1
  H  H96  1  0.39093463  0.27620535  0.40258154  1
  H  H97  1  0.36433601  0.61453679  0.37920232  1
  H  H98  1  0.38784423  0.94347302  0.40187905  1
  H  H99  1  0.88174389  0.27237808  0.40882359  1
  H  H100  1  0.86602343  0.61593042  0.38393847  1
  H  H101  1  0.88407046  0.94203785  0.40676889  1
  H  H102  1  0.12229281  0.05981837  0.90728974  1
  H  H103  1  0.11446930  0.38921933  0.90236972  1
  H  H104  1  0.12154595  0.72205627  0.90102791  1
  H  H105  1  0.62767816  0.04653308  0.87123452  1
  H  H106  1  0.61571848  0.39010763  0.89046591  1
  H  H107  1  0.62459566  0.71768079  0.88825557  1
  H  H108  1  0.12410663  0.27901218  0.10543175  1
  H  H109  1  0.12412574  0.62030095  0.12578336  1
  H  H110  1  0.13001649  0.94644825  0.11397822  1
  H  H111  1  0.62375804  0.27899539  0.10957114  1
  H  H112  1  0.62140029  0.60781826  0.09527415  1
  H  H113  1  0.63291341  0.94641401  0.11774627  1
  H  H114  1  0.38396009  0.05411958  0.60744145  1
  H  H115  1  0.37108190  0.38062663  0.63492448  1
  H  H116  1  0.36747265  0.71923915  0.61960663  1
  H  H117  1  0.88336971  0.05890177  0.59244604  1
  H  H118  1  0.88367263  0.38987492  0.58861811  1
  H  H119  1  0.86835540  0.71978419  0.61819930  1
  H  H120  1  0.11956145  0.11286577  0.38512763  1
  H  H121  1  0.12712582  0.44456489  0.39756924  1
  H  H122  1  0.13757967  0.77507969  0.40285322  1
  H  H123  1  0.62114947  0.11482123  0.38075112  1
  H  H124  1  0.62399931  0.44665762  0.38423168  1
  H  H125  1  0.63418477  0.77748282  0.39529189  1
  H  H126  1  0.37373305  0.21864164  0.88526417  1
  H  H127  1  0.37365769  0.55409666  0.88899660  1
  H  H128  1  0.36169830  0.89482237  0.90981822  1
  H  H129  1  0.87559005  0.21746411  0.88798041  1
  H  H130  1  0.87261006  0.55436315  0.89495994  1
  H  H131  1  0.86900128  0.88815757  0.89242018  1
  H  H132  1  0.37057435  0.11401915  0.11992973  1
  H  H133  1  0.37911085  0.45158812  0.12329836  1
  H  H134  1  0.36753943  0.77198499  0.09130693  1
  H  H135  1  0.86957107  0.10624614  0.09502472  1
  H  H136  1  0.87806247  0.45235326  0.12184908  1
  H  H137  1  0.88034614  0.78751723  0.13437421  1
  H  H138  1  0.12643786  0.21750678  0.62119619  1
  H  H139  1  0.13358443  0.55124941  0.61558750  1
  H  H140  1  0.11735427  0.88481017  0.62007591  1
  H  H141  1  0.61992537  0.21642249  0.61961883  1
  H  H142  1  0.63959539  0.56167041  0.59006978  1
  H  H143  1  0.61512835  0.88492323  0.62480094  1
  H  H144  1  0.20954919  0.74269545  0.50464087  1
  H  H145  1  0.16285214  0.58359042  0.99999204  1
  H  H146  1  0.28140819  0.92021430  1.00780054  1
  H  H147  1  0.64185365  0.24864327  0.51008241  1
  H  H148  1  0.55934093  0.41815029  1.00036016  1
  H  H149  1  0.52966653  0.41741235  0.48850606  1
  H  H150  1  0.10005102  0.91746165  0.00411262  1
  H  H151  1  0.30072200  0.25525321  0.49897273  1
  H  H152  1  0.31011127  0.07879473  0.50595286  1
  H  H153  1  0.28724297  0.74352092  -0.00949763  1
  H  H154  1  0.58357918  0.08272658  0.50405694  1
  H  H155  1  0.88630228  0.41175149  -0.01363462  1
  H  H156  1  0.20842335  0.41624724  -0.00167837  1
  H  H157  1  0.11016009  0.41917024  0.52074106  1
  H  H158  1  0.33530055  0.58334317  0.99966245  1
  H  H159  1  0.72334540  0.74864577  -0.01297011  1
  H  H160  1  0.66625558  0.41302575  0.49458185  1
  H  H161  1  0.42206367  0.25060718  0.00309213  1
  H  H162  1  0.39853829  0.41434768  0.99051907  1
  H  H163  1  0.53863757  0.57913337  0.50551392  1
  H  H164  1  0.18282527  0.09903432  -0.00000697  1
  H  H165  1  0.83039655  0.24988220  0.99657877  1
  H  H166  1  0.04455660  0.08406512  1.00687177  1
  H  H167  1  0.04914145  0.74959798  0.49628626  1
  H  H168  1  0.44816623  0.91340222  -0.00268797  1
  H  H169  1  0.39563296  0.74642455  0.51082000  1
  H  H170  1  0.72026220  0.58620623  0.49080599  1
  H  H171  1  0.13460017  0.75387462  0.02245238  1
  H  H172  1  0.16764782  0.58508704  0.50296992  1
  H  H173  1  0.90950604  0.75183548  1.00130568  1
  H  H174  1  0.54948534  0.75517753  0.49276155  1
  H  H175  1  0.11248285  0.25086829  0.48865106  1
  H  H176  1  0.65520742  0.08415306  0.00581166  1
  H  H177  1  0.47098460  0.08530679  1.01049494  1
  H  H178  1  0.10693003  0.91894559  0.49154246  1
  H  H179  1  0.96667586  0.40726002  0.49046115  1
  H  H180  1  0.33460762  0.08577416  0.00746216  1
  H  H181  1  0.15350902  0.08626156  0.49261609  1
  H  H182  1  0.60262236  0.91976624  0.49343720  1
  H  H183  1  0.42229769  0.74547597  0.99870097  1
  H  H184  1  0.57448736  0.73525270  0.99637011  1
  H  H185  1  0.89305493  0.58700453  0.49930663  1
  H  H186  1  0.81894411  0.42172734  0.49673637  1
  H  H187  1  0.33846024  0.41701881  0.50028906  1
  H  H188  1  0.04510318  0.41768710  1.00722450  1
  H  H189  1  0.29542276  0.92029995  0.49504146  1
  H  H190  1  0.70776109  0.42318851  -0.00444067  1
  H  H191  1  0.69773468  0.74931479  0.50278352  1
  Pb  Pb192  1  0.24791827  0.04784960  0.75742781  1
  Pb  Pb193  1  0.24320447  0.38000967  0.76336416  1
  Pb  Pb194  1  0.24045419  0.71714342  0.75038444  1
  Pb  Pb195  1  0.74742427  0.04576460  0.74294444  1
  Pb  Pb196  1  0.74748709  0.38150402  0.74178172  1
  Pb  Pb197  1  0.74557785  0.71359341  0.74616554  1
  Pb  Pb198  1  0.25921633  0.28364839  0.25689906  1
  Pb  Pb199  1  0.25097602  0.62022106  0.25421547  1
  Pb  Pb200  1  0.25728508  0.95024893  0.25044315  1
  Pb  Pb201  1  0.75355015  0.28418568  0.25346252  1
  Pb  Pb202  1  0.75596029  0.61731662  0.24859022  1
  Pb  Pb203  1  0.75870636  0.95199093  0.24982873  1
  Pb  Pb204  1  -0.00546673  0.21272005  0.74647410  1
  Pb  Pb205  1  -0.00168016  0.54725735  0.75536161  1
  Pb  Pb206  1  -0.00960808  0.88346538  0.74410949  1
  Pb  Pb207  1  0.49745733  0.21387661  0.75041817  1
  Pb  Pb208  1  0.49707663  0.54691647  0.74010553  1
  Pb  Pb209  1  0.49431664  0.88137703  0.75525404  1
  Pb  Pb210  1  0.00293367  0.11829541  0.24645738  1
  Pb  Pb211  1  0.00852869  0.44938977  0.25378708  1
  Pb  Pb212  1  0.00579519  0.78565298  0.26208748  1
  Pb  Pb213  1  0.50496382  0.11728563  0.24937294  1
  Pb  Pb214  1  0.50444546  0.45310651  0.24634239  1
  Pb  Pb215  1  0.50895576  0.78226518  0.23865561  1
  C  C216  1  0.00121299  0.04617874  0.62909739  1
  C  C217  1  -0.00119737  0.37616517  0.62882722  1
  C  C218  1  -0.00433470  0.71017584  0.63034740  1
  C  C219  1  0.50839445  0.04552934  0.63106296  1
  C  C220  1  0.50013670  0.37918359  0.63269378  1
  C  C221  1  0.49467035  0.71287666  0.63081845  1
  C  C222  1  0.00209647  0.28768551  0.13567081  1
  C  C223  1  -0.00362678  0.62101126  0.12656082  1
  C  C224  1  0.00346195  0.95245205  0.12729640  1
  C  C225  1  0.49964638  0.28744200  0.13426963  1
  C  C226  1  0.50326832  0.61923979  0.12880438  1
  C  C227  1  0.50579529  0.95361502  0.13384720  1
  C  C228  1  0.00593498  0.04453808  0.86965638  1
  C  C229  1  -0.00361025  0.37738136  0.86694744  1
  C  C230  1  -0.00173557  0.71159099  0.87587264  1
  C  C231  1  0.49868399  0.04516908  0.87149709  1
  C  C232  1  0.49365042  0.37768701  0.86434720  1
  C  C233  1  0.50013814  0.70796122  0.86618857  1
  C  C234  1  -0.00159067  0.28523228  0.37088415  1
  C  C235  1  -0.00812372  0.61938142  0.37130956  1
  C  C236  1  0.00261939  0.95470746  0.37229893  1
  C  C237  1  0.51060017  0.28693076  0.36826361  1
  C  C238  1  0.49237777  0.62270474  0.37101602  1
  C  C239  1  0.50880486  0.95459905  0.36983487  1
  C  C240  1  0.25391002  0.21185807  0.63313906  1
  C  C241  1  0.25946467  0.54626685  0.63030378  1
  C  C242  1  0.24555569  0.88051563  0.62992053  1
  C  C243  1  0.74745966  0.21134479  0.62784247  1
  C  C244  1  0.75470808  0.54616792  0.62950851  1
  C  C245  1  0.74366250  0.88065144  0.63150042  1
  C  C246  1  0.24387933  0.12377696  0.13482294  1
  C  C247  1  0.25162398  0.45652078  0.13425061  1
  C  C248  1  0.25332935  0.78669845  0.13236309  1
  C  C249  1  0.74966493  0.11978676  0.12827779  1
  C  C250  1  0.75055236  0.45903227  0.13183906  1
  C  C251  1  0.75133329  0.78790524  0.13100010  1
  C  C252  1  0.24747910  0.21311161  0.86556690  1
  C  C253  1  0.24899097  0.54608893  0.86878087  1
  C  C254  1  0.24708526  0.88021417  0.86966069  1
  C  C255  1  0.75020724  0.21166198  0.86679104  1
  C  C256  1  0.74835022  0.54476584  0.87115602  1
  C  C257  1  0.74452682  0.88046310  0.86897061  1
  C  C258  1  0.24616303  0.12126930  0.37041036  1
  C  C259  1  0.24987053  0.45473547  0.37046062  1
  C  C260  1  0.25589580  0.78714038  0.36662156  1
  C  C261  1  0.74887785  0.12145759  0.36709906  1
  C  C262  1  0.75024972  0.45539233  0.36599155  1
  C  C263  1  0.75584205  0.78846810  0.36592559  1
  C  C264  1  0.76857809  0.24510703  0.53255053  1
  C  C265  1  0.68517686  0.90716286  0.54529523  1
  C  C266  1  0.48059636  0.92439754  0.03962269  1
  C  C267  1  0.21137519  0.57454977  0.53900949  1
  C  C268  1  0.93988302  0.59526822  0.46286729  1
  C  C269  1  0.06381362  0.59604541  0.04303549  1
  C  C270  1  0.03442540  0.74204002  0.96990665  1
  C  C271  1  0.42678263  0.40174848  0.55085314  1
  C  C272  1  0.29308095  0.57563585  0.53574284  1
  C  C273  1  0.23868711  0.75644593  0.46167743  1
  C  C274  1  0.20814796  0.57313791  0.96264137  1
  C  C275  1  0.02116965  0.59254631  0.46704182  1
  C  C276  1  0.52349506  0.59172652  0.03276457  1
  C  C277  1  0.17897233  0.90671590  0.95327055  1
  C  C278  1  0.94131293  0.07389363  0.95438467  1
  C  C279  1  0.82154939  0.57540943  0.54627713  1
  C  C280  1  0.73006269  0.75985395  0.46032866  1
  C  C281  1  0.18667854  0.90727662  0.54225794  1
  C  C282  1  0.29260171  0.42814120  0.46239833  1
  C  C283  1  0.94064941  0.74315211  0.54302636  1
  C  C284  1  0.52477390  0.40611304  0.95949027  1
  C  C285  1  0.57014087  0.07188465  0.95332907  1
  C  C286  1  0.98078414  0.92271033  0.46824306  1
  C  C287  1  0.45957451  0.73671883  0.95834914  1
  C  C288  1  0.79004929  0.23996393  0.95826603  1
  C  C289  1  0.56288783  0.26103444  0.45712964  1
  C  C290  1  0.43223254  0.58789682  0.45564562  1
  C  C291  1  0.98242853  0.25572976  0.46766341  1
  C  C292  1  0.78107232  0.90849493  0.96152524  1
  C  C293  1  0.46159909  0.26067006  0.04187673  1
  C  C294  1  0.74762632  0.76086384  0.03218451  1
  C  C295  1  0.44285726  0.40420368  0.95490426  1
  C  C296  1  0.51929403  0.74344188  0.53582344  1
  C  C297  1  0.44324706  0.59478546  0.04187954  1
  C  C298  1  0.93461142  0.40211459  0.95377548  1
  C  C299  1  0.06272428  0.25921261  0.45684478  1
  C  C300  1  0.82581354  0.76570641  0.04964660  1
  C  C301  1  0.29313376  0.09558419  0.04505405  1
  C  C302  1  0.27653584  0.09087303  0.46454182  1
  C  C303  1  0.29049611  0.57306280  0.96238587  1
  C  C304  1  0.71012408  0.58017111  0.96046421  1
  C  C305  1  0.26295251  0.75657909  0.03539091  1
  C  C306  1  0.70537388  0.42429369  0.45601231  1
  C  C307  1  0.97566948  0.92114462  0.03209758  1
  C  C308  1  0.98477770  0.59178079  0.03076791  1
  C  C309  1  0.50515739  0.40577740  0.53363827  1
  C  C310  1  0.01547318  0.40498002  0.96426882  1
  C  C311  1  0.98404865  0.07824671  0.53414705  1
  N  N312  1  0.01901370  0.74232225  0.53718944  1
  N  N313  1  0.31148880  0.42824402  0.04828072  1
  N  N314  1  0.27318283  0.24302704  0.54002035  1
  N  N315  1  0.01909154  0.07623046  0.96418219  1
  N  N316  1  0.03251335  0.26018325  0.04055993  1
  N  N317  1  0.69947630  0.09183161  0.04092978  1
  N  N318  1  0.71085842  0.24254292  0.95991989  1
  N  N319  1  0.69523979  0.09410187  0.45600059  1
  N  N320  1  0.55951308  0.92465498  0.04458884  1
  N  N321  1  0.29355808  0.23839028  0.95756253  1
  N  N322  1  0.69071974  0.24158754  0.54241878  1
  N  N323  1  0.21330515  0.42887524  0.46594228  1
  N  N324  1  0.77104221  0.09227203  0.46301402  1
  N  N325  1  0.23426422  0.42437645  0.04125341  1
  N  N326  1  0.55730081  0.92757407  0.45801123  1
  N  N327  1  0.46684124  0.07328575  0.53824382  1
  N  N328  1  0.21693629  0.23906176  0.96110314  1
  N  N329  1  0.49326403  0.07714509  0.96651623  1
  N  N330  1  0.70388402  0.90843685  0.96284160  1
  N  N331  1  0.74408359  0.57861553  0.53489201  1
  N  N332  1  0.80901544  0.76042668  0.45573543  1
  N  N333  1  0.48587881  0.25869221  0.46545775  1
  N  N334  1  0.19721232  0.09171529  0.45858634  1
  N  N335  1  0.25637497  0.91081163  0.96499781  1
  N  N336  1  0.44050063  0.74133170  0.54415067  1
  N  N337  1  0.05863412  0.92613101  0.45881679  1
  N  N338  1  0.98654116  0.41111863  0.53575140  1
  N  N339  1  0.54521348  0.07388414  0.54038575  1
  N  N340  1  0.81003480  0.42965836  0.04646070  1
  N  N341  1  0.47962223  0.92617326  0.46495302  1
  N  N342  1  0.95609055  0.26034444  0.04425579  1
  N  N343  1  0.95527636  0.74153063  0.96617673  1
  N  N344  1  0.06077716  0.07552995  0.54223058  1
  N  N345  1  0.21359769  0.09581840  0.04100000  1
  N  N346  1  0.76152137  0.91008641  0.53395967  1
  N  N347  1  0.51057595  0.58718251  0.46351333  1
  N  N348  1  0.05398733  0.92460528  0.03873460  1
  N  N349  1  0.31692333  0.75876071  0.45278136  1
  N  N350  1  0.06377964  0.40005645  0.54574748  1
  N  N351  1  0.78736217  0.57979185  0.96268366  1
  N  N352  1  0.78504202  0.42353662  0.45718413  1
  N  N353  1  0.77700861  0.08940697  0.03348248  1
  N  N354  1  0.18585965  0.76023069  0.05038465  1
  N  N355  1  0.73276137  0.42610121  0.03909519  1
  N  N356  1  0.54094688  0.25995383  0.04061273  1
  N  N357  1  0.19581400  0.24067399  0.54663099  1
  N  N358  1  0.26520450  0.91072859  0.53541835  1
  N  N359  1  0.53930834  0.73686359  0.95752438  1
  N  N360  1  0.07162708  0.05527949  0.60263005  1
  N  N361  1  0.07092442  0.38783796  0.60613896  1
  N  N362  1  0.05415689  0.71999918  0.59010214  1
  N  N363  1  0.57190405  0.05661844  0.59616735  1
  N  N364  1  0.55055513  0.39142064  0.58636027  1
  N  N365  1  0.55335754  0.72653948  0.58988257  1
  N  N366  1  0.43464497  0.27692731  0.09916262  1
  N  N367  1  0.43153350  0.61137832  0.10092082  1
  N  N368  1  0.44590795  0.94171973  0.09408933  1
  N  N369  1  0.93597570  0.27693011  0.10334886  1
  N  N370  1  0.94313330  0.60689866  0.08150838  1
  N  N371  1  0.94404339  0.93841024  0.08666601  1
  N  N372  1  0.44801307  0.05738459  0.91692680  1
  N  N373  1  0.42514326  0.38673751  0.89569699  1
  N  N374  1  0.43505591  0.72085290  0.90113310  1
  N  N375  1  0.93301845  0.05485611  0.89576972  1
  N  N376  1  0.92424399  0.38512290  0.89343141  1
  N  N377  1  0.93286475  0.72221456  0.90841574  1
  N  N378  1  0.07104723  0.27737647  0.39571615  1
  N  N379  1  0.05224274  0.60722026  0.41179578  1
  N  N380  1  0.07271216  0.94649816  0.39960968  1
  N  N381  1  0.58056910  0.27771257  0.39785383  1
  N  N382  1  0.54859941  0.61123699  0.41266281  1
  N  N383  1  0.57631357  0.94513568  0.40053123  1
  N  N384  1  0.31020217  0.22454618  0.59191432  1
  N  N385  1  0.32154389  0.55877215  0.59130682  1
  N  N386  1  0.30219130  0.89277238  0.58914876  1
  N  N387  1  0.80410111  0.22651252  0.58530848  1
  N  N388  1  0.82845140  0.55652829  0.60524828  1
  N  N389  1  0.79788173  0.89317217  0.58882675  1
  N  N390  1  0.18335362  0.11692339  0.09570962  1
  N  N391  1  0.19629373  0.44451326  0.09213656  1
  N  N392  1  0.18050742  0.77950590  0.10962997  1
  N  N393  1  0.68152776  0.11140653  0.09806277  1
  N  N394  1  0.69511173  0.44788060  0.08951401  1
  N  N395  1  0.70171321  0.77501528  0.08440803  1
  N  N396  1  0.18718117  0.22393104  0.90414236  1
  N  N397  1  0.18437126  0.55656529  0.90388182  1
  N  N398  1  0.17292739  0.88897446  0.89365525  1
  N  N399  1  0.68765756  0.22487760  0.90233245  1
  N  N400  1  0.68320469  0.55942087  0.90523547  1
  N  N401  1  0.68062640  0.89078327  0.90374642  1
  N  N402  1  0.30735219  0.10840728  0.40950702  1
  N  N403  1  0.31584291  0.44356698  0.40396913  1
  N  N404  1  0.32623748  0.77788092  0.39339916  1
  N  N405  1  0.80569542  0.10948963  0.40846664  1
  N  N406  1  0.81261111  0.44604272  0.40272184  1
  N  N407  1  0.82328225  0.77834404  0.39689554  1
  N  N408  1  0.45359599  0.27538887  0.40883889  1
  N  N409  1  0.42092329  0.60898682  0.39788235  1
  N  N410  1  0.44981051  0.94247121  0.40964321  1
  N  N411  1  0.94387803  0.27137326  0.41582465  1
  N  N412  1  0.92310289  0.61180942  0.40203023  1
  N  N413  1  0.94568827  0.94024964  0.41490651  1
  N  N414  1  0.06024067  0.05607954  0.91281111  1
  N  N415  1  0.05250812  0.38929517  0.90977649  1
  N  N416  1  0.06119456  0.72429339  0.91347706  1
  N  N417  1  0.57369863  0.05348870  0.89405452  1
  N  N418  1  0.55497326  0.38947040  0.90280633  1
  N  N419  1  0.56410123  0.71605978  0.90156642  1
  N  N420  1  0.06236142  0.27715477  0.09699539  1
  N  N421  1  0.07044792  0.61377123  0.10230510  1
  N  N422  1  0.07178729  0.94428111  0.09741722  1
  N  N423  1  0.56282417  0.27659132  0.09855726  1
  N  N424  1  0.55990604  0.60657649  0.08598079  1
  N  N425  1  0.57343578  0.94271700  0.10323457  1
  N  N426  1  0.44465605  0.05627479  0.59540420  1
  N  N427  1  0.42445184  0.38597406  0.61070007  1
  N  N428  1  0.42551452  0.72066569  0.60196170  1
  N  N429  1  0.94532667  0.06039772  0.58613208  1
  N  N430  1  0.94628206  0.38641442  0.58381747  1
  N  N431  1  0.92584599  0.72391788  0.60086738  1
  N  N432  1  0.17873756  0.11198813  0.40117534  1
  N  N433  1  0.18812349  0.44555421  0.40786869  1
  N  N434  1  0.19987824  0.77400177  0.40922981  1
  N  N435  1  0.68018233  0.11207823  0.39633841  1
  N  N436  1  0.68345516  0.44237847  0.39894218  1
  N  N437  1  0.69573278  0.77629834  0.40542086  1
  N  N438  1  0.31359823  0.22248443  0.89834336  1
  N  N439  1  0.31406098  0.55635789  0.90354862  1
  N  N440  1  0.29905446  0.89262012  0.91392983  1
  N  N441  1  0.81586008  0.22179806  0.90126881  1
  N  N442  1  0.81156347  0.55744145  0.90575223  1
  N  N443  1  0.80895976  0.89141793  0.90517105  1
  N  N444  1  0.31198719  0.11096909  0.10358635  1
  N  N445  1  0.32173108  0.44635341  0.10660795  1
  N  N446  1  0.30543547  0.77296212  0.08630444  1
  N  N447  1  0.80784622  0.10628810  0.08813781  1
  N  N448  1  0.82059407  0.44740328  0.10492647  1
  N  N449  1  0.82741393  0.78158900  0.10965734  1
  N  N450  1  0.18423695  0.22204178  0.60475579  1
  N  N451  1  0.19184717  0.55617980  0.59871838  1
  N  N452  1  0.17416282  0.88965163  0.60130105  1
  N  N453  1  0.67722263  0.22059577  0.60123752  1
  N  N454  1  0.70201591  0.55752130  0.58530121  1
  N  N455  1  0.67151791  0.88965182  0.60504050  1
  Cl  Cl456  1  0.26031972  0.05376800  0.62012767  1
  Cl  Cl457  1  0.24656032  0.38040238  0.63212513  1
  Cl  Cl458  1  0.23849490  0.72574533  0.61313253  1
  Cl  Cl459  1  0.75672786  0.05632215  0.61152187  1
  Cl  Cl460  1  0.75960364  0.39308807  0.59817329  1
  Cl  Cl461  1  0.73733880  0.72206310  0.61222115  1
  Cl  Cl462  1  0.24701828  0.28233851  0.12493766  1
  Cl  Cl463  1  0.25214909  0.61750405  0.12310329  1
  Cl  Cl464  1  0.26084583  0.94156938  0.10514650  1
  Cl  Cl465  1  0.75104939  0.28255202  0.12099052  1
  Cl  Cl466  1  0.74994930  0.60954224  0.11795704  1
  Cl  Cl467  1  0.76074761  0.94511963  0.11787308  1
  Cl  Cl468  1  0.25029838  0.06276739  0.90192158  1
  Cl  Cl469  1  0.23592253  0.39437049  0.90057742  1
  Cl  Cl470  1  0.24805685  0.72588258  0.88597265  1
  Cl  Cl471  1  0.75248958  0.04962117  0.87452282  1
  Cl  Cl472  1  0.73711877  0.39922371  0.88047024  1
  Cl  Cl473  1  0.74782646  0.72133311  0.88135984  1
  Cl  Cl474  1  0.27019068  0.27582239  0.39567865  1
  Cl  Cl475  1  0.23530617  0.61307409  0.38691887  1
  Cl  Cl476  1  0.26398624  0.94311788  0.39200764  1
  Cl  Cl477  1  0.76164333  0.27691177  0.38940104  1
  Cl  Cl478  1  0.73124338  0.60429577  0.39598318  1
  Cl  Cl479  1  0.75954526  0.94521630  0.38181027  1
  Cl  Cl480  1  -0.00843229  0.22343144  0.61204803  1
  Cl  Cl481  1  0.00825635  0.54794286  0.62352700  1
  Cl  Cl482  1  -0.01282782  0.88811892  0.60837728  1
  Cl  Cl483  1  0.49318213  0.21980878  0.61795006  1
  Cl  Cl484  1  0.51657352  0.56145559  0.60068243  1
  Cl  Cl485  1  0.48646214  0.88860252  0.62247368  1
  Cl  Cl486  1  -0.00054903  0.10298132  0.10421662  1
  Cl  Cl487  1  0.01287802  0.44726007  0.11932743  1
  Cl  Cl488  1  0.00408556  0.78463459  0.12974185  1
  Cl  Cl489  1  0.49539559  0.10648350  0.10802165  1
  Cl  Cl490  1  0.51201503  0.44403013  0.11202796  1
  Cl  Cl491  1  0.50398063  0.77014056  0.10103640  1
  Cl  Cl492  1  0.00289682  0.21362949  0.87913575  1
  Cl  Cl493  1  -0.00253580  0.55528128  0.88739790  1
  Cl  Cl494  1  -0.00758176  0.88500208  0.87818160  1
  Cl  Cl495  1  0.49855585  0.21686152  0.88412839  1
  Cl  Cl496  1  0.49904456  0.55506624  0.87034522  1
  Cl  Cl497  1  0.48371585  0.89043329  0.89178274  1
  Cl  Cl498  1  -0.00729803  0.10812791  0.37957876  1
  Cl  Cl499  1  -0.00290799  0.43494381  0.39508836  1
  Cl  Cl500  1  0.01576368  0.77567618  0.39870482  1
  Cl  Cl501  1  0.49554155  0.11047864  0.38180902  1
  Cl  Cl502  1  0.50069261  0.44936859  0.38031097  1
  Cl  Cl503  1  0.51214625  0.77705883  0.37932075  1
  Cl  Cl504  1  0.35687771  0.14989353  0.75289577  1
  Cl  Cl505  1  0.36055142  0.47723770  0.74860029  1
  Cl  Cl506  1  0.35658546  0.81513876  0.74888288  1
  Cl  Cl507  1  0.85400485  0.14951618  0.74882422  1
  Cl  Cl508  1  0.86228116  0.47945250  0.74820019  1
  Cl  Cl509  1  0.85481580  0.81604834  0.74586692  1
  Cl  Cl510  1  0.13554692  0.18976997  0.25858870  1
  Cl  Cl511  1  0.14360435  0.51713492  0.25388348  1
  Cl  Cl512  1  0.13964650  0.85433339  0.24648102  1
  Cl  Cl513  1  0.63581134  0.18671552  0.24677633  1
  Cl  Cl514  1  0.64332986  0.51768548  0.25139664  1
  Cl  Cl515  1  0.64354058  0.85201477  0.24899899  1
  Cl  Cl516  1  0.13495623  0.14666322  0.73984913  1
  Cl  Cl517  1  0.14119954  0.48452180  0.74977608  1
  Cl  Cl518  1  0.13872133  0.81464725  0.75254801  1
  Cl  Cl519  1  0.63489256  0.14596468  0.74391135  1
  Cl  Cl520  1  0.63924355  0.48392317  0.74150275  1
  Cl  Cl521  1  0.63242355  0.81421782  0.74955234  1
  Cl  Cl522  1  0.35349811  0.18311611  0.24785238  1
  Cl  Cl523  1  0.36462083  0.52055105  0.24537229  1
  Cl  Cl524  1  0.36058971  0.85203981  0.25174049  1
  Cl  Cl525  1  0.85943847  0.18023206  0.24345824  1
  Cl  Cl526  1  0.86225217  0.52254500  0.25244780  1
  Cl  Cl527  1  0.86569318  0.85021621  0.25141991  1
  Cl  Cl528  1  0.10522032  0.31497053  0.74664273  1
  Cl  Cl529  1  0.10371891  0.65123893  0.75591211  1
  Cl  Cl530  1  0.11507637  0.97699752  0.74405205  1
  Cl  Cl531  1  0.60961648  0.31471662  0.74920980  1
  Cl  Cl532  1  0.60570809  0.64920619  0.74771454  1
  Cl  Cl533  1  0.60932623  0.97999573  0.75573121  1
  Cl  Cl534  1  0.38985304  0.01799644  0.24905108  1
  Cl  Cl535  1  0.39424862  0.35142154  0.24856950  1
  Cl  Cl536  1  0.38484266  0.69012764  0.25483575  1
  Cl  Cl537  1  0.89991866  0.01288555  0.24825418  1
  Cl  Cl538  1  0.88915207  0.35346140  0.25127883  1
  Cl  Cl539  1  0.88999799  0.68734212  0.25533424  1
  Cl  Cl540  1  0.38494175  0.31458442  0.75261331  1
  Cl  Cl541  1  0.38573059  0.64591708  0.74099300  1
  Cl  Cl542  1  0.38890526  0.98584710  0.75211228  1
  Cl  Cl543  1  0.88376017  0.31491411  0.75555582  1
  Cl  Cl544  1  0.88487279  0.64697510  0.74404851  1
  Cl  Cl545  1  0.89571494  0.98498296  0.75167134  1
  Cl  Cl546  1  0.12189864  0.02175525  0.24578230  1
  Cl  Cl547  1  0.11122295  0.35436079  0.26286452  1
  Cl  Cl548  1  0.10997876  0.68349150  0.24345648  1
  Cl  Cl549  1  0.60959752  0.02071073  0.24687892  1
  Cl  Cl550  1  0.61599777  0.35246485  0.25608583  1
  Cl  Cl551  1  0.60401055  0.68292579  0.25067611  1
