# generated using pymatgen
data_H8PbC4(N3Cl2)2
_symmetry_space_group_name_H-M   'P 1'
_cell_length_a   16.61962566
_cell_length_b   22.50198398
_cell_length_c   21.58810209
_cell_angle_alpha   90.00004476
_cell_angle_beta   90.00615089
_cell_angle_gamma   90.00142658
_symmetry_Int_Tables_number   1
_chemical_formula_structural   H8PbC4(N3Cl2)2
_chemical_formula_sum   'H192 Pb24 C96 N144 Cl96'
_cell_volume   8073.40072143
_cell_formula_units_Z   24
loop_
 _symmetry_equiv_pos_site_id
 _symmetry_equiv_pos_as_xyz
  1  'x, y, z'
loop_
 _atom_site_type_symbol
 _atom_site_label
 _atom_site_symmetry_multiplicity
 _atom_site_fract_x
 _atom_site_fract_y
 _atom_site_fract_z
 _atom_site_occupancy
  H  H0  1  0.00452533  0.03105119  0.67889230  1
  H  H1  1  -0.00255252  0.36472501  0.68083895  1
  H  H2  1  0.01085713  0.69854622  0.68005701  1
  H  H3  1  0.50078159  0.03301851  0.68133064  1
  H  H4  1  0.50775377  0.36591137  0.67812030  1
  H  H5  1  0.49216233  0.69947811  0.67832483  1
  H  H6  1  -0.00125683  0.30108117  0.18200770  1
  H  H7  1  0.00087841  0.63475942  0.18062456  1
  H  H8  1  -0.00166243  0.96745805  0.18167177  1
  H  H9  1  0.50518100  0.30134804  0.17766198  1
  H  H10  1  0.50176337  0.63467370  0.18006516  1
  H  H11  1  0.50380973  0.96698757  0.17807509  1
  H  H12  1  0.00818044  0.03213208  0.82084568  1
  H  H13  1  -0.00562685  0.36551495  0.82047743  1
  H  H14  1  -0.00257585  0.69905890  0.81738730  1
  H  H15  1  0.49157778  0.03151011  0.82306977  1
  H  H16  1  0.50163542  0.36619198  0.81884182  1
  H  H17  1  0.50163949  0.69894177  0.81940194  1
  H  H18  1  -0.00175059  0.30128306  0.31891632  1
  H  H19  1  0.00097997  0.63537890  0.32108596  1
  H  H20  1  0.01174229  0.96592049  0.32181162  1
  H  H21  1  0.50081127  0.30156363  0.31988574  1
  H  H22  1  0.50018773  0.63408752  0.31822231  1
  H  H23  1  0.49256633  0.96840819  0.31868238  1
  H  H24  1  0.24805871  0.19752443  0.68211585  1
  H  H25  1  0.26172980  0.53145358  0.68109688  1
  H  H26  1  0.25232806  0.86523974  0.68143676  1
  H  H27  1  0.75218862  0.19781474  0.68101684  1
  H  H28  1  0.73842754  0.53057443  0.67948276  1
  H  H29  1  0.74704222  0.86573769  0.67995354  1
  H  H30  1  0.24639304  0.13663623  0.18169129  1
  H  H31  1  0.24727230  0.46861952  0.17950296  1
  H  H32  1  0.23929564  0.80116748  0.18004795  1
  H  H33  1  0.75681177  0.13405907  0.17747972  1
  H  H34  1  0.75898262  0.46668857  0.18263734  1
  H  H35  1  0.75901756  0.80262209  0.17979539  1
  H  H36  1  0.24948381  0.19934782  0.81712797  1
  H  H37  1  0.25334404  0.53113835  0.81987693  1
  H  H38  1  0.24634117  0.86580927  0.81940611  1
  H  H39  1  0.75327173  0.19817770  0.82075319  1
  H  H40  1  0.75306634  0.53144391  0.81964808  1
  H  H41  1  0.75489897  0.86547599  0.81961236  1
  H  H42  1  0.24331257  0.13484097  0.32033013  1
  H  H43  1  0.25248652  0.46676729  0.31758889  1
  H  H44  1  0.25272898  0.80139600  0.32038449  1
  H  H45  1  0.75602466  0.13502678  0.32050523  1
  H  H46  1  0.74298967  0.46675372  0.31932444  1
  H  H47  1  0.75062163  0.80163472  0.32056470  1
  H  H48  1  0.11862015  0.05615817  0.59854308  1
  H  H49  1  0.12307054  0.38612412  0.61108866  1
  H  H50  1  0.12684129  0.72491873  0.60330521  1
  H  H51  1  0.62124234  0.05608094  0.60576374  1
  H  H52  1  0.62238883  0.38833951  0.60157752  1
  H  H53  1  0.63146525  0.71768044  0.62492045  1
  H  H54  1  0.37485447  0.28033281  0.11214290  1
  H  H55  1  0.37694152  0.61347526  0.11019568  1
  H  H56  1  0.37374599  0.94892581  0.11201032  1
  H  H57  1  0.87459628  0.27891623  0.10928652  1
  H  H58  1  0.87683734  0.61189342  0.11061346  1
  H  H59  1  0.87439164  0.94796932  0.11205259  1
  H  H60  1  0.38464436  0.06119337  0.90527612  1
  H  H61  1  0.37302338  0.38680103  0.88514624  1
  H  H62  1  0.37740239  0.72113713  0.88936260  1
  H  H63  1  0.87310718  0.05213232  0.88083722  1
  H  H64  1  0.87975324  0.39048879  0.89825090  1
  H  H65  1  0.88073867  0.72253815  0.89453163  1
  H  H66  1  0.12432348  0.28030209  0.38819685  1
  H  H67  1  0.12588825  0.61241313  0.39179724  1
  H  H68  1  0.12322927  0.94353918  0.40096285  1
  H  H69  1  0.62403445  0.27998318  0.39157778  1
  H  H70  1  0.62369908  0.61115342  0.39110263  1
  H  H71  1  0.62832036  0.94913341  0.37946784  1
  H  H72  1  0.37587856  0.22159151  0.61369460  1
  H  H73  1  0.37005670  0.55557391  0.59782825  1
  H  H74  1  0.37066766  0.88853951  0.60576998  1
  H  H75  1  0.87615481  0.21945930  0.61029816  1
  H  H76  1  0.87661042  0.55245648  0.62587439  1
  H  H77  1  0.87368188  0.88632932  0.61164042  1
  H  H78  1  0.12312810  0.10948358  0.10991760  1
  H  H79  1  0.12744523  0.44385953  0.10480706  1
  H  H80  1  0.12476361  0.77737986  0.10111393  1
  H  H81  1  0.62042195  0.11651382  0.11906733  1
  H  H82  1  0.62102866  0.44992852  0.12613397  1
  H  H83  1  0.62230939  0.78220608  0.12214808  1
  H  H84  1  0.12789803  0.22130758  0.89259312  1
  H  H85  1  0.12510601  0.55366160  0.88771454  1
  H  H86  1  0.12989671  0.88803061  0.89499487  1
  H  H87  1  0.62595490  0.22159803  0.88943217  1
  H  H88  1  0.62416850  0.55240027  0.88747449  1
  H  H89  1  0.62789052  0.88799879  0.88895984  1
  H  H90  1  0.37977296  0.11490808  0.37756864  1
  H  H91  1  0.37517736  0.44672999  0.38845360  1
  H  H92  1  0.36807108  0.77599087  0.39886345  1
  H  H93  1  0.87711038  0.11071376  0.39410355  1
  H  H94  1  0.87560532  0.44620143  0.38418518  1
  H  H95  1  0.87070692  0.77966195  0.39464380  1
  H  H96  1  0.37406057  0.27983828  0.38939890  1
  H  H97  1  0.37362202  0.61354561  0.38681533  1
  H  H98  1  0.38064207  0.94396195  0.39897187  1
  H  H99  1  0.87478303  0.27881170  0.38776863  1
  H  H100  1  0.87651418  0.61272296  0.39090934  1
  H  H101  1  0.87648401  0.95045739  0.38004154  1
  H  H102  1  0.12097561  0.05724574  0.90145386  1
  H  H103  1  0.12738783  0.38372672  0.88364493  1
  H  H104  1  0.12975118  0.71934399  0.88312202  1
  H  H105  1  0.62992003  0.04896801  0.87986329  1
  H  H106  1  0.62205797  0.38634953  0.89159828  1
  H  H107  1  0.62717531  0.72168377  0.89013905  1
  H  H108  1  0.12411728  0.27904779  0.11197348  1
  H  H109  1  0.12672074  0.61326729  0.10995821  1
  H  H110  1  0.12385971  0.94602363  0.11221511  1
  H  H111  1  0.62399741  0.27775563  0.10258254  1
  H  H112  1  0.62683890  0.61144923  0.10951838  1
  H  H113  1  0.62187520  0.94098236  0.10333476  1
  H  H114  1  0.37225483  0.05429081  0.61387170  1
  H  H115  1  0.37473633  0.38555547  0.61808448  1
  H  H116  1  0.38588325  0.72643847  0.59393645  1
  H  H117  1  0.87081801  0.05154947  0.61549203  1
  H  H118  1  0.87295082  0.38716446  0.60970256  1
  H  H119  1  0.87869065  0.71885784  0.61567486  1
  H  H120  1  0.13251098  0.10833194  0.40170309  1
  H  H121  1  0.12575720  0.44558141  0.38598050  1
  H  H122  1  0.11936537  0.78231672  0.38299920  1
  H  H123  1  0.62803959  0.11378620  0.38854883  1
  H  H124  1  0.62787314  0.44308893  0.39942992  1
  H  H125  1  0.62129970  0.77858967  0.38739166  1
  H  H126  1  0.37648261  0.22165328  0.88725278  1
  H  H127  1  0.37374742  0.55568557  0.89261109  1
  H  H128  1  0.37859528  0.88483035  0.88228021  1
  H  H129  1  0.87484504  0.22044044  0.89401989  1
  H  H130  1  0.87284149  0.55509748  0.89366781  1
  H  H131  1  0.87689885  0.88939061  0.89155088  1
  H  H132  1  0.37264647  0.11441260  0.11408990  1
  H  H133  1  0.37567705  0.44603446  0.11122738  1
  H  H134  1  0.37279391  0.78120019  0.11714536  1
  H  H135  1  0.86686931  0.10738407  0.09512303  1
  H  H136  1  0.86804073  0.44453181  0.10151453  1
  H  H137  1  0.86806815  0.77599957  0.09622382  1
  H  H138  1  0.12681065  0.22141551  0.60916915  1
  H  H139  1  0.12380028  0.55198129  0.62380624  1
  H  H140  1  0.12139736  0.88535261  0.61391630  1
  H  H141  1  0.62733750  0.22241387  0.61005612  1
  H  H142  1  0.63108079  0.55622707  0.59537193  1
  H  H143  1  0.62404570  0.88877457  0.60741163  1
  H  H144  1  0.42173280  0.74952563  0.99928982  1
  H  H145  1  0.41513766  0.25205667  0.00535720  1
  H  H146  1  0.94476181  0.40013246  1.00227361  1
  H  H147  1  0.57579327  0.41617752  1.00125368  1
  H  H148  1  0.70612425  0.57877351  0.49423672  1
  H  H149  1  0.60858640  0.08347006  0.98736134  1
  H  H150  1  0.91775213  0.91876493  0.00049405  1
  H  H151  1  0.91884895  0.58491458  0.50123387  1
  H  H152  1  0.05145241  0.07927550  1.00534593  1
  H  H153  1  0.81967264  0.75033075  0.50294461  1
  H  H154  1  0.20260596  0.08248665  0.50345993  1
  H  H155  1  0.94155379  0.75152617  1.00141154  1
  H  H156  1  0.17692308  0.09352323  0.00216766  1
  H  H157  1  0.65841684  0.75232011  0.49456221  1
  H  H158  1  0.92160089  0.58370331  0.00036643  1
  H  H159  1  0.08091631  0.58771921  0.00459562  1
  H  H160  1  0.07622327  0.25129280  0.00229628  1
  H  H161  1  0.45948073  0.07319739  1.00675765  1
  H  H162  1  0.32923080  0.08928406  0.00142271  1
  H  H163  1  0.40932307  0.91349188  0.00836904  1
  H  H164  1  0.31163371  0.91671429  0.49767708  1
  H  H165  1  0.33125921  0.41774919  0.49938058  1
  H  H166  1  0.56238758  0.92776824  -0.00108768  1
  H  H167  1  0.07998113  0.58474059  0.49655723  1
  H  H168  1  0.17878445  0.25143677  0.50148086  1
  H  H169  1  0.42024367  0.58341595  0.00044999  1
  H  H170  1  0.05027444  0.07906462  0.49593048  1
  H  H171  1  0.67303875  0.91954941  0.50416772  1
  H  H172  1  0.80118634  0.41813926  -0.00627441  1
  H  H173  1  0.33362191  0.41795121  0.00648391  1
  H  H174  1  0.29799819  0.58033104  0.49261201  1
  H  H175  1  0.09074737  0.42279661  0.98470894  1
  H  H176  1  0.41753654  0.58395118  0.49816260  1
  H  H177  1  0.46024546  0.75241878  0.49408059  1
  H  H178  1  0.58153840  0.75000135  0.99463366  1
  H  H179  1  0.57661566  0.25278347  0.50146192  1
  H  H180  1  0.41266600  0.08168061  0.50320485  1
  H  H181  1  0.08037185  0.41392247  0.50085534  1
  H  H182  1  0.44769128  0.91746121  0.50511658  1
  H  H183  1  0.30347419  0.74955622  0.50206309  1
  H  H184  1  0.41813523  0.25493167  0.49525992  1
  H  H185  1  0.91887898  0.24902394  0.49930285  1
  H  H186  1  0.58007237  0.58045595  0.00575871  1
  H  H187  1  0.83524904  0.91846317  0.50190952  1
  H  H188  1  0.92001153  0.41371258  0.50474354  1
  H  H189  1  0.57100180  0.57975581  0.49508908  1
  H  H190  1  0.18478394  0.91486434  1.00426398  1
  H  H191  1  0.79415412  0.75124174  -0.00363833  1
  Pb  Pb192  1  0.24621179  0.04958164  0.75273697  1
  Pb  Pb193  1  0.24888023  0.37896283  0.75013906  1
  Pb  Pb194  1  0.24728267  0.71435268  0.74191028  1
  Pb  Pb195  1  0.74898755  0.04428154  0.74793924  1
  Pb  Pb196  1  0.74668583  0.38126913  0.75240020  1
  Pb  Pb197  1  0.75079535  0.71277333  0.75338667  1
  Pb  Pb198  1  0.25255370  0.28624996  0.25072187  1
  Pb  Pb199  1  0.24760637  0.62168726  0.25066003  1
  Pb  Pb200  1  0.25065556  0.95417206  0.25402092  1
  Pb  Pb201  1  0.74735565  0.28686031  0.24847744  1
  Pb  Pb202  1  0.75142974  0.61962768  0.25334514  1
  Pb  Pb203  1  0.74962376  0.95452134  0.25025694  1
  Pb  Pb204  1  -0.00451310  0.21413909  0.75081901  1
  Pb  Pb205  1  -0.00021214  0.54603480  0.75371109  1
  Pb  Pb206  1  -0.00216573  0.87910949  0.75290000  1
  Pb  Pb207  1  0.50378899  0.21438163  0.74898465  1
  Pb  Pb208  1  0.49566933  0.54858897  0.74602680  1
  Pb  Pb209  1  0.49760592  0.88080385  0.74993809  1
  Pb  Pb210  1  -0.00060113  0.12079754  0.25081815  1
  Pb  Pb211  1  0.00018569  0.45062786  0.24582064  1
  Pb  Pb212  1  -0.00200128  0.78932506  0.24507966  1
  Pb  Pb213  1  0.50260440  0.11960084  0.24515028  1
  Pb  Pb214  1  0.49778851  0.45437513  0.25305098  1
  Pb  Pb215  1  0.49826659  0.78697540  0.25267101  1
  C  C216  1  -0.00172017  0.04550771  0.63120724  1
  C  C217  1  -0.00250688  0.37990576  0.63297619  1
  C  C218  1  0.00518961  0.71364229  0.63277650  1
  C  C219  1  0.49808235  0.04777177  0.63363597  1
  C  C220  1  0.50145723  0.38027945  0.63053894  1
  C  C221  1  0.50299567  0.71381272  0.63102671  1
  C  C222  1  -0.00086673  0.28610134  0.13428009  1
  C  C223  1  0.00186565  0.61963134  0.13279575  1
  C  C224  1  -0.00159848  0.95353501  0.13366266  1
  C  C225  1  0.50091505  0.28616317  0.13017523  1
  C  C226  1  0.50225987  0.61948441  0.13225561  1
  C  C227  1  0.49976056  0.95202429  0.13024810  1
  C  C228  1  0.00111062  0.04624468  0.86847421  1
  C  C229  1  0.00077584  0.38022664  0.86825245  1
  C  C230  1  0.00292300  0.71342654  0.86513137  1
  C  C231  1  0.50202352  0.04702669  0.87014393  1
  C  C232  1  0.49932621  0.37998111  0.86686739  1
  C  C233  1  0.50259630  0.71411768  0.86720716  1
  C  C234  1  -0.00130392  0.28660287  0.36667286  1
  C  C235  1  0.00150766  0.61977329  0.36875294  1
  C  C236  1  0.00360064  0.95310611  0.36972307  1
  C  C237  1  0.49924120  0.28708435  0.36792794  1
  C  C238  1  0.49960997  0.61914148  0.36616394  1
  C  C239  1  0.50089924  0.95350430  0.36606749  1
  C  C240  1  0.25056382  0.21321502  0.63461955  1
  C  C241  1  0.25160195  0.54646745  0.63391232  1
  C  C242  1  0.24793432  0.87983455  0.63366309  1
  C  C243  1  0.75157942  0.21286315  0.63352911  1
  C  C244  1  0.74851993  0.54516225  0.63224709  1
  C  C245  1  0.74778340  0.88062332  0.63203463  1
  C  C246  1  0.24678114  0.12122391  0.13396660  1
  C  C247  1  0.25035816  0.45294604  0.13206227  1
  C  C248  1  0.24596450  0.78675611  0.13256306  1
  C  C249  1  0.74809542  0.11965674  0.13016461  1
  C  C250  1  0.74943967  0.45372721  0.13488037  1
  C  C251  1  0.75000180  0.78755713  0.13248765  1
  C  C252  1  0.25121508  0.21387767  0.86500921  1
  C  C253  1  0.25038625  0.54645975  0.86714805  1
  C  C254  1  0.25140334  0.87956572  0.86729498  1
  C  C255  1  0.75109631  0.21332845  0.86822578  1
  C  C256  1  0.74969706  0.54607973  0.86721493  1
  C  C257  1  0.75288956  0.88047060  0.86706582  1
  C  C258  1  0.25166023  0.12019202  0.36777113  1
  C  C259  1  0.25152421  0.45289354  0.36564311  1
  C  C260  1  0.24702248  0.78714314  0.36806030  1
  C  C261  1  0.75359616  0.12010623  0.36799540  1
  C  C262  1  0.74886764  0.45250151  0.36715219  1
  C  C263  1  0.74688921  0.78638830  0.36834695  1
  C  C264  1  0.81119793  0.57315779  0.54601182  1
  C  C265  1  0.78826602  0.90903220  0.96012367  1
  C  C266  1  0.02819557  0.92811734  0.46574303  1
  C  C267  1  0.03923192  0.40453467  0.53958043  1
  C  C268  1  0.46084088  0.59347463  0.03909411  1
  C  C269  1  0.30355539  0.90213786  0.95855248  1
  C  C270  1  0.96026376  0.59402028  0.46220682  1
  C  C271  1  0.94753041  0.93057885  0.45876355  1
  C  C272  1  0.53570270  0.25824138  0.03503559  1
  C  C273  1  0.19328612  0.76008050  0.45802810  1
  C  C274  1  0.28941395  0.42778272  0.46086319  1
  C  C275  1  0.20775981  0.42798296  0.45861949  1
  C  C276  1  0.27722831  0.90629513  0.53919692  1
  C  C277  1  0.94438896  0.07319694  0.95740442  1
  C  C278  1  0.97547882  0.73990615  0.95996917  1
  C  C279  1  0.69411674  0.09604701  0.04108328  1
  C  C280  1  0.52974087  0.40768396  0.53550278  1
  C  C281  1  0.22197006  0.90438732  0.96408729  1
  C  C282  1  0.45594268  0.59426920  0.45891378  1
  C  C283  1  0.28417391  0.57553564  0.96049510  1
  C  C284  1  0.56642424  0.73981727  0.54480927  1
  C  C285  1  0.04154222  0.26057689  0.45962187  1
  C  C286  1  0.03307533  0.74349915  0.53864879  1
  C  C287  1  0.26919988  0.57158353  0.53708615  1
  C  C288  1  0.21713823  0.24029899  0.54110632  1
  C  C289  1  0.47913299  0.92744520  0.46204480  1
  C  C290  1  0.78970540  0.24044385  0.54067787  1
  C  C291  1  0.95892921  0.92836973  0.03891952  1
  C  C292  1  0.78269332  0.57387668  0.96131596  1
  C  C293  1  0.22004844  0.75900899  0.03751709  1
  C  C294  1  0.29085592  0.09542800  0.04173647  1
  C  C295  1  0.79178538  0.90720491  0.53961218  1
  C  C296  1  0.78193433  0.76030887  0.46298450  1
  C  C297  1  0.78516300  0.24150843  0.96135851  1
  C  C298  1  0.03701693  0.26093040  0.04132519  1
  C  C299  1  0.31094406  0.09314353  0.45572507  1
  C  C300  1  0.95982902  0.25970208  0.46100106  1
  C  C301  1  0.04057839  0.92787907  0.04045318  1
  C  C302  1  0.78643930  0.09250123  0.46145661  1
  C  C303  1  0.53426685  0.40552068  0.96263905  1
  C  C304  1  0.53807304  0.26213335  0.46200263  1
  C  C305  1  0.45582508  0.07243643  0.54133591  1
  C  C306  1  0.77009715  0.42900238  0.03662533  1
  C  C307  1  0.45254523  0.40531991  0.95899306  1
  C  C308  1  0.44894764  0.40657427  0.54133606  1
  C  C309  1  0.68945227  0.43119867  0.04693169  1
  C  C310  1  0.46188565  0.73978720  0.96068664  1
  C  C311  1  0.96136333  0.59370589  0.03938920  1
  N  N312  1  0.95947312  0.40557022  0.54033956  1
  N  N313  1  0.97269985  0.41064422  0.96136276  1
  N  N314  1  0.21322956  0.42686864  0.03764328  1
  N  N315  1  0.53500657  0.07381680  0.53831124  1
  N  N316  1  0.05162214  0.39750923  0.95897778  1
  N  N317  1  0.29742012  0.76017402  0.04128076  1
  N  N318  1  0.72166264  0.42657732  0.46332786  1
  N  N319  1  0.45832868  0.26098350  0.45973173  1
  N  N320  1  0.71052516  0.90840541  0.96060337  1
  N  N321  1  0.02142108  0.07218268  0.53725593  1
  N  N322  1  0.70914634  0.09321909  0.46098126  1
  N  N323  1  0.29360689  0.23848371  0.95831899  1
  N  N324  1  0.68992650  0.76140493  0.04554536  1
  N  N325  1  0.70791578  0.24228604  0.96113606  1
  N  N326  1  0.70471594  0.57290825  0.96030815  1
  N  N327  1  0.55806389  0.92870227  0.45565054  1
  N  N328  1  0.29660449  0.23993280  0.54188698  1
  N  N329  1  0.20614572  0.57486086  0.95997887  1
  N  N330  1  0.02288293  0.07372935  0.96356038  1
  N  N331  1  0.48329416  0.08075638  0.96342529  1
  N  N332  1  0.56084518  0.06848302  0.95682273  1
  N  N333  1  0.53549290  0.59471389  0.45967508  1
  N  N334  1  0.54169387  0.73939391  0.95987080  1
  N  N335  1  0.94390298  0.07064702  0.54188532  1
  N  N336  1  0.95765117  0.26103725  0.03993282  1
  N  N337  1  0.23224279  0.09164325  0.46279968  1
  N  N338  1  0.76743207  0.75823921  0.03862658  1
  N  N339  1  0.71185618  0.90702471  0.53896880  1
  N  N340  1  0.71192208  0.24151581  0.53943230  1
  N  N341  1  0.79800198  0.42770992  0.45836532  1
  N  N342  1  0.45260870  0.93226031  0.03889825  1
  N  N343  1  0.04007917  0.59284698  0.46103245  1
  N  N344  1  0.29187831  0.42732485  0.04143082  1
  N  N345  1  0.54071062  0.59379953  0.03962827  1
  N  N346  1  0.70217636  0.75984109  0.45934864  1
  N  N347  1  0.73281014  0.57398539  0.53692685  1
  N  N348  1  0.53081810  0.91888067  0.03876204  1
  N  N349  1  0.95565375  0.74110256  0.54111184  1
  N  N350  1  0.27204133  0.75872783  0.46225479  1
  N  N351  1  0.21661022  0.23859263  0.96020574  1
  N  N352  1  0.19077584  0.57147315  0.54588490  1
  N  N353  1  0.48833133  0.74232259  0.53532118  1
  N  N354  1  0.21112038  0.09244390  0.04154759  1
  N  N355  1  0.05451041  0.73869163  0.95639953  1
  N  N356  1  0.19809833  0.90538162  0.54206616  1
  N  N357  1  0.04115220  0.59371824  0.04049451  1
  N  N358  1  0.77086045  0.09206121  0.03237991  1
  N  N359  1  0.45675429  0.25956589  0.03941602  1
  N  N360  1  0.05655248  0.05509391  0.59063967  1
  N  N361  1  0.06289567  0.38915990  0.59735924  1
  N  N362  1  0.06605622  0.72662886  0.59355334  1
  N  N363  1  0.55963673  0.05851820  0.59627735  1
  N  N364  1  0.56162232  0.39171661  0.59017698  1
  N  N365  1  0.57563769  0.72276111  0.60428849  1
  N  N366  1  0.43458186  0.27685715  0.09799801  1
  N  N367  1  0.43688591  0.60994754  0.09652670  1
  N  N368  1  0.43314069  0.94291040  0.09807673  1
  N  N369  1  0.93582750  0.27636840  0.09829529  1
  N  N370  1  0.93687888  0.60894684  0.09702066  1
  N  N371  1  0.93392142  0.94438856  0.09813382  1
  N  N372  1  0.44618263  0.05725053  0.91271961  1
  N  N373  1  0.43211953  0.39010138  0.90091417  1
  N  N374  1  0.43752839  0.72423411  0.90309772  1
  N  N375  1  0.93080163  0.05691012  0.89845793  1
  N  N376  1  0.94141220  0.38829144  0.90821766  1
  N  N377  1  0.94210376  0.72432072  0.90439988  1
  N  N378  1  0.06457278  0.27673861  0.40248807  1
  N  N379  1  0.06522798  0.60906160  0.40357124  1
  N  N380  1  0.06228289  0.94172568  0.41142284  1
  N  N381  1  0.56358449  0.27749456  0.40469603  1
  N  N382  1  0.56243933  0.60836280  0.40195954  1
  N  N383  1  0.56956388  0.94488941  0.39556465  1
  N  N384  1  0.31550024  0.22302604  0.60072715  1
  N  N385  1  0.30817813  0.55687928  0.59085759  1
  N  N386  1  0.30960098  0.89097457  0.59520592  1
  N  N387  1  0.81627108  0.22328842  0.59742709  1
  N  N388  1  0.82058803  0.55656876  0.60544364  1
  N  N389  1  0.81389725  0.89016919  0.59726520  1
  N  N390  1  0.18398004  0.11225046  0.09761987  1
  N  N391  1  0.18838392  0.44237730  0.09456578  1
  N  N392  1  0.18584961  0.77513303  0.09208091  1
  N  N393  1  0.67751169  0.11226928  0.10079926  1
  N  N394  1  0.67760316  0.44592200  0.10628634  1
  N  N395  1  0.67994551  0.77773079  0.10477619  1
  N  N396  1  0.18933572  0.22367943  0.90237253  1
  N  N397  1  0.18528820  0.55645897  0.90058233  1
  N  N398  1  0.19071291  0.89021913  0.90608864  1
  N  N399  1  0.68637111  0.22432593  0.90180226  1
  N  N400  1  0.68435117  0.55527195  0.90060577  1
  N  N401  1  0.68847127  0.89009582  0.90135044  1
  N  N402  1  0.32285328  0.11019225  0.39663477  1
  N  N403  1  0.31538851  0.44352662  0.40176220  1
  N  N404  1  0.30632104  0.77671408  0.40747233  1
  N  N405  1  0.81681201  0.10858990  0.40548609  1
  N  N406  1  0.81606375  0.44395390  0.39882000  1
  N  N407  1  0.80986566  0.77634347  0.40643395  1
  N  N408  1  0.43461073  0.27753988  0.40216347  1
  N  N409  1  0.43331090  0.61006614  0.40112641  1
  N  N410  1  0.44259707  0.94193501  0.40729490  1
  N  N411  1  0.93443696  0.27596126  0.40196102  1
  N  N412  1  0.93631444  0.61008476  0.40450240  1
  N  N413  1  0.93315703  0.94567036  0.39962880  1
  N  N414  1  0.05923586  0.05487009  0.90945912  1
  N  N415  1  0.06861894  0.39103504  0.89819663  1
  N  N416  1  0.06979668  0.72256218  0.89716008  1
  N  N417  1  0.57236135  0.05670872  0.89693816  1
  N  N418  1  0.56205391  0.38945193  0.90398564  1
  N  N419  1  0.56657923  0.72382363  0.90211050  1
  N  N420  1  0.06406850  0.27590833  0.09898885  1
  N  N421  1  0.06592813  0.61054906  0.09780741  1
  N  N422  1  0.06414436  0.94286803  0.09778564  1
  N  N423  1  0.56330225  0.27448527  0.09117511  1
  N  N424  1  0.56602004  0.60860678  0.09750265  1
  N  N425  1  0.56070710  0.94187531  0.09229080  1
  N  N426  1  0.43165604  0.05666235  0.59970161  1
  N  N427  1  0.43211240  0.39013876  0.59965920  1
  N  N428  1  0.44834412  0.72475195  0.58816282  1
  N  N429  1  0.92997702  0.05532491  0.60072692  1
  N  N430  1  0.93389773  0.39014584  0.59783122  1
  N  N431  1  0.93826288  0.72221378  0.60116809  1
  N  N432  1  0.19473964  0.11015018  0.40915015  1
  N  N433  1  0.18527810  0.44305634  0.40098976  1
  N  N434  1  0.17757646  0.77742165  0.39965451  1
  N  N435  1  0.68840034  0.11062715  0.40156074  1
  N  N436  1  0.68990851  0.44168589  0.40694295  1
  N  N437  1  0.68113373  0.77629894  0.40100406  1
  N  N438  1  0.31592635  0.22324752  0.89950200  1
  N  N439  1  0.31335331  0.55830702  0.90459050  1
  N  N440  1  0.32041756  0.88769598  0.89957861  1
  N  N441  1  0.81464450  0.22412083  0.90554622  1
  N  N442  1  0.81230488  0.55772411  0.90511301  1
  N  N443  1  0.81656653  0.89213670  0.90383307  1
  N  N444  1  0.31315110  0.11123574  0.09945816  1
  N  N445  1  0.31529287  0.44315331  0.09836733  1
  N  N446  1  0.31356343  0.77786279  0.10194312  1
  N  N447  1  0.80464476  0.10745375  0.08914109  1
  N  N448  1  0.80657260  0.44339935  0.09278971  1
  N  N449  1  0.80562397  0.77666407  0.09023814  1
  N  N450  1  0.18757799  0.22406037  0.59754444  1
  N  N451  1  0.18182270  0.55575157  0.60628229  1
  N  N452  1  0.18171265  0.88909515  0.60086342  1
  N  N453  1  0.68816653  0.22379893  0.59860328  1
  N  N454  1  0.69328529  0.55398855  0.58925045  1
  N  N455  1  0.68493810  0.89132040  0.59622271  1
  Cl  Cl456  1  0.24021415  0.05846850  0.60810418  1
  Cl  Cl457  1  0.24649495  0.38619489  0.61902408  1
  Cl  Cl458  1  0.26171884  0.72588168  0.60268432  1
  Cl  Cl459  1  0.74592354  0.05020655  0.61664658  1
  Cl  Cl460  1  0.75028351  0.38433900  0.62080642  1
  Cl  Cl461  1  0.75501754  0.71866121  0.61897003  1
  Cl  Cl462  1  0.25096457  0.28142700  0.11933825  1
  Cl  Cl463  1  0.25023949  0.61544385  0.11897291  1
  Cl  Cl464  1  0.25059686  0.94935556  0.11973136  1
  Cl  Cl465  1  0.74983490  0.28165036  0.11686383  1
  Cl  Cl466  1  0.75063224  0.61523397  0.12130852  1
  Cl  Cl467  1  0.74458246  0.94659862  0.11979356  1
  Cl  Cl468  1  0.25004476  0.06163558  0.89624950  1
  Cl  Cl469  1  0.24983910  0.38768649  0.88469738  1
  Cl  Cl470  1  0.25423962  0.71682973  0.87339099  1
  Cl  Cl471  1  0.74990113  0.04818822  0.87871923  1
  Cl  Cl472  1  0.75740980  0.38904154  0.88776186  1
  Cl  Cl473  1  0.75573542  0.72364471  0.89284992  1
  Cl  Cl474  1  0.24999347  0.27947195  0.38470902  1
  Cl  Cl475  1  0.25021296  0.61505877  0.38719022  1
  Cl  Cl476  1  0.25615107  0.94707226  0.38854573  1
  Cl  Cl477  1  0.74774820  0.27977036  0.37920963  1
  Cl  Cl478  1  0.74641984  0.60985505  0.39385139  1
  Cl  Cl479  1  0.75079168  0.94546377  0.38610812  1
  Cl  Cl480  1  0.00190889  0.21888001  0.61693660  1
  Cl  Cl481  1  0.00050934  0.55335518  0.61871639  1
  Cl  Cl482  1  -0.00266076  0.88361056  0.62099091  1
  Cl  Cl483  1  0.50070924  0.22543701  0.61345818  1
  Cl  Cl484  1  0.50412694  0.55899086  0.60281646  1
  Cl  Cl485  1  0.49640462  0.88537001  0.61514559  1
  Cl  Cl486  1  -0.00025289  0.10553120  0.10784075  1
  Cl  Cl487  1  -0.00069295  0.44216414  0.10545070  1
  Cl  Cl488  1  -0.00868456  0.77708367  0.10909484  1
  Cl  Cl489  1  0.49477795  0.10790879  0.10670030  1
  Cl  Cl490  1  0.49470046  0.44821043  0.11832566  1
  Cl  Cl491  1  0.49786714  0.77992302  0.11793032  1
  Cl  Cl492  1  0.00388331  0.21787133  0.88531553  1
  Cl  Cl493  1  -0.00090145  0.55385056  0.88980452  1
  Cl  Cl494  1  0.00125948  0.88805613  0.88545630  1
  Cl  Cl495  1  0.49900041  0.22113313  0.88474813  1
  Cl  Cl496  1  0.49941889  0.55601551  0.88305260  1
  Cl  Cl497  1  0.50419285  0.89119855  0.88948729  1
  Cl  Cl498  1  0.01029565  0.10774631  0.39006085  1
  Cl  Cl499  1  -0.00013472  0.44497102  0.38276448  1
  Cl  Cl500  1  -0.00574255  0.78280058  0.37641472  1
  Cl  Cl501  1  0.50375724  0.11648685  0.37592620  1
  Cl  Cl502  1  0.50440566  0.44893776  0.38481927  1
  Cl  Cl503  1  0.49166634  0.77440380  0.39547661  1
  Cl  Cl504  1  0.36030116  0.14206979  0.74823890  1
  Cl  Cl505  1  0.36156062  0.47970922  0.75076939  1
  Cl  Cl506  1  0.36423873  0.81248459  0.75303162  1
  Cl  Cl507  1  0.86238916  0.14377615  0.74984785  1
  Cl  Cl508  1  0.86629957  0.47772113  0.74685279  1
  Cl  Cl509  1  0.86171312  0.81148045  0.74906460  1
  Cl  Cl510  1  0.13568214  0.18807454  0.24977483  1
  Cl  Cl511  1  0.13789989  0.52175775  0.25010432  1
  Cl  Cl512  1  0.13811793  0.85404211  0.25078873  1
  Cl  Cl513  1  0.63693753  0.18817664  0.24759247  1
  Cl  Cl514  1  0.63569956  0.52275722  0.24707643  1
  Cl  Cl515  1  0.63437697  0.85555774  0.25146501  1
  Cl  Cl516  1  0.14176525  0.14142145  0.75047578  1
  Cl  Cl517  1  0.13500210  0.47805310  0.75037565  1
  Cl  Cl518  1  0.13921155  0.80887289  0.74791287  1
  Cl  Cl519  1  0.63635531  0.14410512  0.75212941  1
  Cl  Cl520  1  0.64298663  0.47737560  0.75232385  1
  Cl  Cl521  1  0.63820248  0.80980146  0.75027694  1
  Cl  Cl522  1  0.36093220  0.18890066  0.25074788  1
  Cl  Cl523  1  0.36292736  0.52234908  0.24977701  1
  Cl  Cl524  1  0.36436301  0.85491933  0.24742571  1
  Cl  Cl525  1  0.86472569  0.18912078  0.24811464  1
  Cl  Cl526  1  0.86252208  0.52245514  0.25227308  1
  Cl  Cl527  1  0.85656270  0.85339744  0.25031689  1
  Cl  Cl528  1  0.11269910  0.31190960  0.75322636  1
  Cl  Cl529  1  0.11437407  0.64532243  0.75004687  1
  Cl  Cl530  1  0.11212472  0.97855973  0.74987031  1
  Cl  Cl531  1  0.61088709  0.31079133  0.75010203  1
  Cl  Cl532  1  0.61477473  0.64529136  0.74847480  1
  Cl  Cl533  1  0.61346355  0.97767194  0.75225497  1
  Cl  Cl534  1  0.38743562  0.02166481  0.24554644  1
  Cl  Cl535  1  0.38783316  0.35426747  0.25019276  1
  Cl  Cl536  1  0.38955737  0.68737528  0.25040137  1
  Cl  Cl537  1  0.88749242  0.02089389  0.25390326  1
  Cl  Cl538  1  0.88854809  0.35676351  0.24867225  1
  Cl  Cl539  1  0.88745104  0.68672810  0.25071975  1
  Cl  Cl540  1  0.38593515  0.31164228  0.74960114  1
  Cl  Cl541  1  0.39482228  0.64403254  0.74737433  1
  Cl  Cl542  1  0.39293858  0.97757385  0.75361355  1
  Cl  Cl543  1  0.89533672  0.31099337  0.74976298  1
  Cl  Cl544  1  0.88711710  0.64510833  0.74667662  1
  Cl  Cl545  1  0.88758572  0.97825457  0.74900859  1
  Cl  Cl546  1  0.11396698  0.02173153  0.24693240  1
  Cl  Cl547  1  0.11128378  0.35661056  0.25204629  1
  Cl  Cl548  1  0.11119406  0.68820879  0.25060944  1
  Cl  Cl549  1  0.60798204  0.02197881  0.24996928  1
  Cl  Cl550  1  0.61217508  0.35510461  0.24699259  1
  Cl  Cl551  1  0.61329546  0.68882905  0.25126767  1
