# generated using pymatgen
data_H8PbC4(N3Cl2)2
_symmetry_space_group_name_H-M   'P 1'
_cell_length_a   16.62530649
_cell_length_b   22.51445585
_cell_length_c   21.59379117
_cell_angle_alpha   89.99731887
_cell_angle_beta   89.98373892
_cell_angle_gamma   90.00628720
_symmetry_Int_Tables_number   1
_chemical_formula_structural   H8PbC4(N3Cl2)2
_chemical_formula_sum   'H192 Pb24 C96 N144 Cl96'
_cell_volume   8082.76573894
_cell_formula_units_Z   24
loop_
 _symmetry_equiv_pos_site_id
 _symmetry_equiv_pos_as_xyz
  1  'x, y, z'
loop_
 _atom_site_type_symbol
 _atom_site_label
 _atom_site_symmetry_multiplicity
 _atom_site_fract_x
 _atom_site_fract_y
 _atom_site_fract_z
 _atom_site_occupancy
  H  H0  1  0.01383781  0.02838568  0.68210195  1
  H  H1  1  -0.00062376  0.36478115  0.68028760  1
  H  H2  1  -0.01122816  0.69692751  0.67733226  1
  H  H3  1  0.48375736  0.03324973  0.67431442  1
  H  H4  1  0.49813733  0.36379955  0.67895066  1
  H  H5  1  0.51585914  0.69540857  0.67217412  1
  H  H6  1  0.00648154  0.30402854  0.17448562  1
  H  H7  1  0.00053303  0.63659328  0.18103756  1
  H  H8  1  0.00638077  0.96909521  0.18047323  1
  H  H9  1  0.49244089  0.30493422  0.18167453  1
  H  H10  1  0.49272199  0.63734000  0.17694051  1
  H  H11  1  0.48998122  0.96904746  0.17547576  1
  H  H12  1  0.00790840  0.03104205  0.81917854  1
  H  H13  1  0.00266318  0.36199669  0.82053701  1
  H  H14  1  0.00258168  0.69864929  0.82010478  1
  H  H15  1  0.49165316  0.02799085  0.81691706  1
  H  H16  1  0.49108470  0.36281345  0.82144099  1
  H  H17  1  0.49379793  0.69431465  0.82208947  1
  H  H18  1  -0.00450229  0.30240554  0.31992575  1
  H  H19  1  -0.00568189  0.63570925  0.32029341  1
  H  H20  1  0.00523755  0.96968243  0.32241126  1
  H  H21  1  0.50076355  0.30293603  0.32248893  1
  H  H22  1  0.51526469  0.63433073  0.32510571  1
  H  H23  1  0.50770266  0.97446809  0.32342816  1
  H  H24  1  0.24900796  0.19592320  0.68082740  1
  H  H25  1  0.24471544  0.52949573  0.67927400  1
  H  H26  1  0.25615737  0.86210492  0.67562345  1
  H  H27  1  0.75522576  0.19579215  0.68070125  1
  H  H28  1  0.74574863  0.53028180  0.67853703  1
  H  H29  1  0.74455549  0.86679359  0.67938987  1
  H  H30  1  0.25844316  0.13657659  0.17939432  1
  H  H31  1  0.24721164  0.46893334  0.17393744  1
  H  H32  1  0.24566690  0.80310716  0.17887747  1
  H  H33  1  0.73586387  0.13741509  0.17840105  1
  H  H34  1  0.74317247  0.47242884  0.18142432  1
  H  H35  1  0.75282300  0.80467621  0.17843011  1
  H  H36  1  0.25069438  0.19574552  0.82145212  1
  H  H37  1  0.25015852  0.52773596  0.82035216  1
  H  H38  1  0.24825525  0.86591164  0.82037872  1
  H  H39  1  0.73845470  0.19974990  0.82237301  1
  H  H40  1  0.75003900  0.52923712  0.82122191  1
  H  H41  1  0.75496824  0.85729499  0.82193563  1
  H  H42  1  0.24314790  0.13753537  0.32022960  1
  H  H43  1  0.25596289  0.47273783  0.32273695  1
  H  H44  1  0.23956345  0.80052804  0.32373473  1
  H  H45  1  0.75814938  0.13546558  0.32002106  1
  H  H46  1  0.75506493  0.47129401  0.32403203  1
  H  H47  1  0.76538060  0.80226723  0.32085475  1
  H  H48  1  0.12346607  0.05392104  0.60030671  1
  H  H49  1  0.13404407  0.38863513  0.62031191  1
  H  H50  1  0.13101014  0.71645691  0.62866631  1
  H  H51  1  0.62539535  0.04863819  0.62545604  1
  H  H52  1  0.63442214  0.38844233  0.62173882  1
  H  H53  1  0.61956113  0.72864235  0.58847227  1
  H  H54  1  0.37141867  0.28249442  0.10688462  1
  H  H55  1  0.37930791  0.60993504  0.09733668  1
  H  H56  1  0.37066301  0.94249602  0.10214905  1
  H  H57  1  0.87123643  0.28461680  0.11483867  1
  H  H58  1  0.87561778  0.61377934  0.11174210  1
  H  H59  1  0.86743590  0.95002984  0.12413727  1
  H  H60  1  0.36911429  0.05117429  0.88905159  1
  H  H61  1  0.37624537  0.38951510  0.89894743  1
  H  H62  1  0.37429185  0.72342000  0.89759209  1
  H  H63  1  0.87224927  0.05382900  0.87925869  1
  H  H64  1  0.87669179  0.38806596  0.88839926  1
  H  H65  1  0.86809802  0.71740684  0.88060741  1
  H  H66  1  0.13300339  0.28237665  0.37783689  1
  H  H67  1  0.11814228  0.61296856  0.38998920  1
  H  H68  1  0.11852202  0.94072749  0.40047039  1
  H  H69  1  0.63031213  0.27855715  0.38841069  1
  H  H70  1  0.61827653  0.60756443  0.41012665  1
  H  H71  1  0.61143585  0.94386042  0.40861252  1
  H  H72  1  0.36555831  0.22208752  0.60284005  1
  H  H73  1  0.37527432  0.55315512  0.61360761  1
  H  H74  1  0.38426702  0.88923910  0.60971226  1
  H  H75  1  0.86270637  0.22437285  0.59855424  1
  H  H76  1  0.87981378  0.55283357  0.61876408  1
  H  H77  1  0.88443517  0.88188022  0.62683054  1
  H  H78  1  0.13024089  0.11262386  0.11409588  1
  H  H79  1  0.12497256  0.44564299  0.10431359  1
  H  H80  1  0.13149666  0.77589326  0.10077511  1
  H  H81  1  0.63378469  0.10718810  0.09120610  1
  H  H82  1  0.62288586  0.44686114  0.10833553  1
  H  H83  1  0.62835105  0.78018821  0.10686290  1
  H  H84  1  0.12954467  0.22422961  0.89151849  1
  H  H85  1  0.12417252  0.55224400  0.88961624  1
  H  H86  1  0.13445899  0.88789157  0.89797415  1
  H  H87  1  0.63417852  0.22585280  0.90554172  1
  H  H88  1  0.62300448  0.55102212  0.88805179  1
  H  H89  1  0.63296869  0.88808036  0.89353456  1
  H  H90  1  0.37799097  0.11547485  0.38079115  1
  H  H91  1  0.36136062  0.44205076  0.40669972  1
  H  H92  1  0.37572812  0.78172173  0.38098425  1
  H  H93  1  0.87151285  0.11018434  0.39821105  1
  H  H94  1  0.86072292  0.44019237  0.40664826  1
  H  H95  1  0.86736270  0.77420140  0.40898405  1
  H  H96  1  0.38095591  0.27759239  0.39513597  1
  H  H97  1  0.37476308  0.61867263  0.37410229  1
  H  H98  1  0.36785323  0.94946987  0.37567436  1
  H  H99  1  0.88526436  0.27692215  0.40064427  1
  H  H100  1  0.86843406  0.61291011  0.38791498  1
  H  H101  1  0.87079958  0.94805334  0.38421961  1
  H  H102  1  0.11937952  0.05897046  0.89870871  1
  H  H103  1  0.12598969  0.38757240  0.89264804  1
  H  H104  1  0.11648469  0.72105398  0.89766026  1
  H  H105  1  0.61856801  0.05656588  0.88416801  1
  H  H106  1  0.62433462  0.38598342  0.88318374  1
  H  H107  1  0.62260557  0.72047288  0.88843414  1
  H  H108  1  0.11797985  0.27377988  0.09540381  1
  H  H109  1  0.12461942  0.61346173  0.10847235  1
  H  H110  1  0.11446333  0.94300367  0.09886825  1
  H  H111  1  0.62029198  0.27992057  0.11438997  1
  H  H112  1  0.62677728  0.61605492  0.11699353  1
  H  H113  1  0.61959439  0.94539110  0.11041276  1
  H  H114  1  0.38219963  0.05845846  0.58972392  1
  H  H115  1  0.38728595  0.39224047  0.59932255  1
  H  H116  1  0.37575561  0.71252206  0.61843957  1
  H  H117  1  0.87640999  0.05021206  0.62439042  1
  H  H118  1  0.88627824  0.39181164  0.60219160  1
  H  H119  1  0.88764894  0.72767325  0.59047422  1
  H  H120  1  0.13010900  0.10971302  0.39894122  1
  H  H121  1  0.11719237  0.44872490  0.37649780  1
  H  H122  1  0.12875503  0.77705964  0.40362745  1
  H  H123  1  0.62375566  0.11578788  0.37820411  1
  H  H124  1  0.61536491  0.45199948  0.37717955  1
  H  H125  1  0.62419349  0.78222713  0.37288401  1
  H  H126  1  0.37831335  0.22146508  0.88910768  1
  H  H127  1  0.37380963  0.55075911  0.89303661  1
  H  H128  1  0.38258299  0.88442648  0.88113421  1
  H  H129  1  0.87932956  0.21465492  0.87449854  1
  H  H130  1  0.87241877  0.55562731  0.89054096  1
  H  H131  1  0.88127425  0.88383629  0.89137372  1
  H  H132  1  0.37752273  0.11458430  0.10407416  1
  H  H133  1  0.37391481  0.44845352  0.10777549  1
  H  H134  1  0.37973334  0.78262944  0.11735721  1
  H  H135  1  0.87676463  0.11796213  0.12583771  1
  H  H136  1  0.87201435  0.44813110  0.11413219  1
  H  H137  1  0.87678652  0.77706181  0.10711288  1
  H  H138  1  0.11747081  0.21975368  0.61502951  1
  H  H139  1  0.12671655  0.55711348  0.60538001  1
  H  H140  1  0.13551959  0.88883664  0.60377867  1
  H  H141  1  0.61657776  0.21541215  0.62381619  1
  H  H142  1  0.63241166  0.55820346  0.59900421  1
  H  H143  1  0.63869810  0.89292863  0.59612792  1
  H  H144  1  0.94880105  0.42197097  0.49578109  1
  H  H145  1  0.89165985  0.91926525  0.01645430  1
  H  H146  1  0.34210656  0.91828903  0.50365955  1
  H  H147  1  0.31241449  0.11673293  -0.00030383  1
  H  H148  1  0.10621384  0.25204371  0.48541736  1
  H  H149  1  0.90708887  0.58542262  0.49912094  1
  H  H150  1  0.67720350  0.41679245  0.00080510  1
  H  H151  1  0.59075376  0.24711017  0.49364897  1
  H  H152  1  0.86913799  0.91204515  0.51347321  1
  H  H153  1  0.19548856  0.91426226  1.00788492  1
  H  H154  1  0.19757748  0.74939221  -0.00266151  1
  H  H155  1  0.89652655  0.24918994  0.00775368  1
  H  H156  1  0.66073023  0.58419919  0.99808950  1
  H  H157  1  0.28413953  0.41640340  0.50599063  1
  H  H158  1  0.57724581  0.91100296  0.00530344  1
  H  H159  1  0.78609571  0.41650878  0.50786013  1
  H  H160  1  0.78540883  0.74809322  0.50573491  1
  H  H161  1  0.45323697  0.42437629  0.49475200  1
  H  H162  1  0.04571830  0.91298523  -0.00615341  1
  H  H163  1  0.79132698  0.25134095  0.49453449  1
  H  H164  1  0.95150908  0.24664928  0.50603566  1
  H  H165  1  0.42078881  0.06853214  1.00134954  1
  H  H166  1  0.92349345  0.41986306  0.99713102  1
  H  H167  1  0.54411785  0.74402724  0.48949405  1
  H  H168  1  0.71609952  0.08484713  -0.00695816  1
  H  H169  1  0.05108921  0.09026393  1.00317409  1
  H  H170  1  0.96816727  0.75403682  0.49328690  1
  H  H171  1  0.70618842  0.25307837  1.01086222  1
  H  H172  1  0.05603277  0.74657585  1.00746986  1
  H  H173  1  0.19664881  0.07933952  0.50409532  1
  H  H174  1  0.82759457  0.58727292  0.99982836  1
  H  H175  1  0.43389418  0.24231709  0.50264374  1
  H  H176  1  0.05230187  0.08217010  0.49558849  1
  H  H177  1  0.18871752  0.74897851  0.51012045  1
  H  H178  1  0.07354685  0.58505680  0.50062837  1
  H  H179  1  0.17169478  0.57987904  0.99887592  1
  H  H180  1  0.64530451  0.08387152  0.49205270  1
  H  H181  1  0.38676630  0.58836137  0.48984740  1
  H  H182  1  0.39234022  0.74817375  0.51052370  1
  H  H183  1  0.53214188  0.91891669  0.50738599  1
  H  H184  1  0.57322433  0.07353436  0.99261985  1
  H  H185  1  0.10383276  0.41414640  0.51147736  1
  H  H186  1  0.60980858  0.41637766  0.51142449  1
  H  H187  1  0.42584201  0.25471414  -0.00036373  1
  H  H188  1  0.81258734  0.08010515  0.50409447  1
  H  H189  1  0.18314950  0.06128080  0.02004642  1
  H  H190  1  0.04869656  0.25992801  -0.00668791  1
  H  H191  1  0.70937666  0.92052354  0.49164704  1
  Pb  Pb192  1  0.25121489  0.04668967  0.74976599  1
  Pb  Pb193  1  0.25846081  0.38203146  0.74611336  1
  Pb  Pb194  1  0.25902212  0.71537095  0.76079667  1
  Pb  Pb195  1  0.75619485  0.04850544  0.75797620  1
  Pb  Pb196  1  0.75595750  0.38249660  0.74650211  1
  Pb  Pb197  1  0.75133669  0.71238829  0.73613400  1
  Pb  Pb198  1  0.24928314  0.28739308  0.24493542  1
  Pb  Pb199  1  0.24664717  0.61896439  0.24589900  1
  Pb  Pb200  1  0.24243997  0.95003016  0.25027445  1
  Pb  Pb201  1  0.74924670  0.28624917  0.25443534  1
  Pb  Pb202  1  0.74361640  0.61821805  0.25446299  1
  Pb  Pb203  1  0.74465321  0.95388389  0.25402030  1
  Pb  Pb204  1  0.00629132  0.21601056  0.74704214  1
  Pb  Pb205  1  0.00738923  0.55053484  0.74874162  1
  Pb  Pb206  1  0.00435685  0.87812188  0.75402953  1
  Pb  Pb207  1  0.50211463  0.21371548  0.75176303  1
  Pb  Pb208  1  0.50355496  0.54671562  0.74551199  1
  Pb  Pb209  1  0.50989895  0.88350715  0.74581039  1
  Pb  Pb210  1  0.00018510  0.11960005  0.25591218  1
  Pb  Pb211  1  -0.00410431  0.45248294  0.25273763  1
  Pb  Pb212  1  -0.00647365  0.78404686  0.25423901  1
  Pb  Pb213  1  0.49659803  0.11853369  0.23662001  1
  Pb  Pb214  1  0.49521095  0.45301265  0.25368459  1
  Pb  Pb215  1  0.49783039  0.78586945  0.25185944  1
  C  C216  1  0.00422892  0.04392154  0.63510324  1
  C  C217  1  0.00748532  0.38023701  0.63299519  1
  C  C218  1  0.00219295  0.71276523  0.63103838  1
  C  C219  1  0.49752838  0.04675060  0.62737610  1
  C  C220  1  0.50759020  0.37976721  0.63198310  1
  C  C221  1  0.50380955  0.71161076  0.62557661  1
  C  C222  1  -0.00151555  0.28763086  0.12745467  1
  C  C223  1  0.00057979  0.62149899  0.13360437  1
  C  C224  1  -0.00465001  0.95397769  0.13339974  1
  C  C225  1  0.49474843  0.28887802  0.13436703  1
  C  C226  1  0.49938751  0.62145531  0.13000223  1
  C  C227  1  0.49377983  0.95234682  0.12853826  1
  C  C228  1  -0.00054099  0.04692071  0.86613080  1
  C  C229  1  0.00179012  0.37875324  0.86757728  1
  C  C230  1  -0.00403842  0.71219745  0.86792030  1
  C  C231  1  0.49371640  0.04405652  0.86435257  1
  C  C232  1  0.49753220  0.37870420  0.86840052  1
  C  C233  1  0.49667948  0.71177374  0.86884540  1
  C  C234  1  0.00523008  0.28692787  0.36710170  1
  C  C235  1  -0.00639575  0.62033259  0.36800586  1
  C  C236  1  -0.00224496  0.95339703  0.36905234  1
  C  C237  1  0.50463212  0.28621939  0.36971415  1
  C  C238  1  0.50174186  0.62003269  0.37183038  1
  C  C239  1  0.49574514  0.95746283  0.36958291  1
  C  C240  1  0.24385259  0.21187412  0.63346923  1
  C  C241  1  0.24927134  0.54617295  0.63258586  1
  C  C242  1  0.25926193  0.87938130  0.62892930  1
  C  C243  1  0.74442257  0.21142487  0.63387754  1
  C  C244  1  0.75256524  0.54695729  0.63192102  1
  C  C245  1  0.75643001  0.88048510  0.63212722  1
  C  C246  1  0.25552081  0.12148492  0.13164944  1
  C  C247  1  0.24876241  0.45382535  0.12607178  1
  C  C248  1  0.25203096  0.78826305  0.13145644  1
  C  C249  1  0.74843063  0.12219321  0.13169639  1
  C  C250  1  0.74622200  0.45586478  0.13427614  1
  C  C251  1  0.75274187  0.78797174  0.13134194  1
  C  C252  1  0.25319319  0.21302539  0.86802610  1
  C  C253  1  0.24934309  0.54355974  0.86775659  1
  C  C254  1  0.25496578  0.87929943  0.86824578  1
  C  C255  1  0.75055488  0.21302669  0.86973321  1
  C  C256  1  0.74843663  0.54562338  0.86852623  1
  C  C257  1  0.75638106  0.87515910  0.86855541  1
  C  C258  1  0.25051773  0.12122677  0.36714803  1
  C  C259  1  0.24490190  0.45590641  0.36905736  1
  C  C260  1  0.24777243  0.78672982  0.37144624  1
  C  C261  1  0.75085850  0.12037160  0.36755218  1
  C  C262  1  0.74384558  0.45561326  0.37079359  1
  C  C263  1  0.75255204  0.78715546  0.36749799  1
  C  C264  1  0.81568630  0.23498938  0.95583734  1
  C  C265  1  0.98057538  0.40945533  0.53793212  1
  C  C266  1  0.80359155  0.57620045  0.54345336  1
  C  C267  1  0.70441409  0.57386110  0.96098354  1
  C  C268  1  0.21121265  0.57013696  0.96012381  1
  C  C269  1  0.30983540  0.90186756  0.95852959  1
  C  C270  1  0.02242967  0.73684265  0.96542355  1
  C  C271  1  0.21856202  0.24611094  0.95956301  1
  C  C272  1  0.73890973  0.90785681  0.53473072  1
  C  C273  1  0.30566935  0.76297430  0.46011871  1
  C  C274  1  0.22488285  0.76023516  0.46910932  1
  C  C275  1  0.45760318  0.91975245  0.03520711  1
  C  C276  1  0.46960039  0.25529908  0.46260757  1
  C  C277  1  0.96304546  0.40805797  0.95897370  1
  C  C278  1  0.01658754  0.92504240  0.03723068  1
  C  C279  1  0.30670572  0.75995272  0.04225135  1
  C  C280  1  0.95048579  0.59456581  0.46142157  1
  C  C281  1  0.71419696  0.42764121  0.04087785  1
  C  C282  1  0.76187794  0.23957005  0.53798490  1
  C  C283  1  0.07053007  0.74133251  0.54759469  1
  C  C284  1  0.51722749  0.59164289  0.46897862  1
  C  C285  1  0.68101183  0.42869210  0.45674373  1
  C  C286  1  0.29174149  0.42662719  0.03545553  1
  C  C287  1  0.96105195  0.59483752  0.04081816  1
  C  C288  1  0.02070355  0.07665195  0.96089318  1
  C  C289  1  0.45563316  0.06707851  0.95888889  1
  C  C290  1  0.03282211  0.59482907  0.46236305  1
  C  C291  1  0.46274069  0.26321591  0.04019233  1
  C  C292  1  0.21805940  0.57805236  0.53963057  1
  C  C293  1  0.02293541  0.92162745  0.46297985  1
  C  C294  1  0.22863528  0.90394353  0.96572640  1
  C  C295  1  0.55043168  0.59323084  0.04140527  1
  C  C296  1  0.98172477  0.25843450  0.46301030  1
  C  C297  1  0.21163486  0.42550700  0.03433942  1
  C  C298  1  0.48451087  0.07357770  0.53049948  1
  C  C299  1  0.78672427  0.57539414  0.96190114  1
  C  C300  1  0.22206319  0.91103348  0.53557916  1
  C  C301  1  0.02300561  0.07157191  0.53937436  1
  C  C302  1  0.48377792  0.41114251  0.53722496  1
  C  C303  1  0.73571802  0.24015956  0.96791428  1
  C  C304  1  0.77716978  0.09218123  0.46360410  1
  C  C305  1  0.22796628  0.09142151  0.46162517  1
  C  C306  1  0.56400866  0.07004388  0.54250372  1
  C  C307  1  0.47135606  0.41034519  0.96201958  1
  C  C308  1  0.43705259  0.59574114  0.45809847  1
  C  C309  1  0.81961507  0.90394885  0.54561159  1
  C  C310  1  0.94155335  0.73535367  0.95774167  1
  C  C311  1  0.69540363  0.09396269  0.45692435  1
  N  N312  1  0.20859337  0.09813114  0.04018237  1
  N  N313  1  0.50858424  0.92555689  0.46322991  1
  N  N314  1  0.43179754  0.92815864  0.45344790  1
  N  N315  1  0.79722423  0.90530062  0.96027904  1
  N  N316  1  0.54188466  0.26076645  0.04248269  1
  N  N317  1  0.94584661  0.92431301  0.45832479  1
  N  N318  1  0.54083487  0.74428351  0.95890002  1
  N  N319  1  0.73814446  0.09217118  0.03738321  1
  N  N320  1  0.30087799  0.90988914  0.53875140  1
  N  N321  1  0.53496512  0.07184259  0.95552365  1
  N  N322  1  0.06046000  0.26005828  0.45391777  1
  N  N323  1  0.04229731  0.40763889  0.96086450  1
  N  N324  1  0.29044259  0.57049651  0.96154236  1
  N  N325  1  0.46480371  0.74557961  0.96140022  1
  N  N326  1  0.72051188  0.90683451  0.96103819  1
  N  N327  1  0.47343810  0.59034770  0.03407873  1
  N  N328  1  0.53661247  0.92195561  0.03882217  1
  N  N329  1  0.29623245  0.24478294  0.96002715  1
  N  N330  1  0.75913015  0.42444670  0.46538336  1
  N  N331  1  0.94437379  0.07097832  0.54755305  1
  N  N332  1  0.79366413  0.42798939  0.04253609  1
  N  N333  1  0.29160075  0.09440879  0.03807887  1
  N  N334  1  0.79043444  0.75676206  0.03910495  1
  N  N335  1  0.54909152  0.25565848  0.45895424  1
  N  N336  1  0.44238065  0.73312793  0.53995574  1
  N  N337  1  0.27318637  0.24032295  0.53841726  1
  N  N338  1  0.81470621  0.09570863  0.04766531  1
  N  N339  1  0.72660703  0.57819671  0.53595158  1
  N  N340  1  0.22812514  0.75876868  0.03750127  1
  N  N341  1  0.54880151  0.40879109  0.95850515  1
  N  N342  1  0.51890710  0.74794326  0.53293786  1
  N  N343  1  0.30676646  0.09300884  0.45574106  1
  N  N344  1  0.99294378  0.74449169  0.53625027  1
  N  N345  1  0.02153274  0.25242589  0.03536818  1
  N  N346  1  0.94200066  0.07453602  0.95457033  1
  N  N347  1  0.76267121  0.75710614  0.46172081  1
  N  N348  1  0.93810746  0.92713809  0.04730488  1
  N  N349  1  0.56261195  0.40918923  0.54562053  1
  N  N350  1  0.03884066  0.59442872  0.03882502  1
  N  N351  1  0.25972949  0.42312461  0.46217150  1
  N  N352  1  0.19669536  0.23918008  0.54256206  1
  N  N353  1  0.29578186  0.57642273  0.54152171  1
  N  N354  1  0.68596760  0.76016664  0.45125735  1
  N  N355  1  0.68348016  0.23636514  0.54619893  1
  N  N356  1  0.18276642  0.42613710  0.45343959  1
  N  N357  1  0.05954975  0.40760564  0.54509610  1
  N  N358  1  0.94388073  0.26524474  0.03939386  1
  N  N359  1  0.71417411  0.75771151  0.03897370  1
  N  N360  1  0.06132651  0.05548829  0.59279661  1
  N  N361  1  0.07598070  0.38780587  0.60304604  1
  N  N362  1  0.07625137  0.72266820  0.60668035  1
  N  N363  1  0.57133893  0.05401940  0.60228566  1
  N  N364  1  0.57689678  0.38817743  0.60344006  1
  N  N365  1  0.55811083  0.72488585  0.58269005  1
  N  N366  1  0.43217333  0.27981400  0.09634195  1
  N  N367  1  0.44144044  0.60847046  0.09053577  1
  N  N368  1  0.43085842  0.93892192  0.09054138  1
  N  N369  1  0.92935606  0.27801213  0.09870446  1
  N  N370  1  0.93544452  0.61096055  0.09805230  1
  N  N371  1  0.92528108  0.94518123  0.10637687  1
  N  N372  1  0.42948380  0.05225062  0.90176922  1
  N  N373  1  0.43745579  0.39196956  0.90824094  1
  N  N374  1  0.43576284  0.72545082  0.90574078  1
  N  N375  1  0.93059935  0.05626911  0.89546211  1
  N  N376  1  0.93650315  0.39039039  0.90197969  1
  N  N377  1  0.92595684  0.72075236  0.89894773  1
  N  N378  1  0.07470716  0.27745234  0.39489525  1
  N  N379  1  0.05804393  0.61085109  0.40390635  1
  N  N380  1  0.05697522  0.93923261  0.40918788  1
  N  N381  1  0.57049052  0.27527249  0.40192524  1
  N  N382  1  0.55623532  0.60629133  0.41697169  1
  N  N383  1  0.54896574  0.94575229  0.41345789  1
  N  N384  1  0.30353698  0.22338142  0.59463391  1
  N  N385  1  0.31532695  0.55654166  0.60037603  1
  N  N386  1  0.32466847  0.88972815  0.59604319  1
  N  N387  1  0.80068245  0.22480932  0.59153620  1
  N  N388  1  0.82197067  0.55764922  0.60185629  1
  N  N389  1  0.82892276  0.88723718  0.60595477  1
  N  N390  1  0.19016460  0.10614557  0.10088724  1
  N  N391  1  0.18439725  0.44198083  0.08960108  1
  N  N392  1  0.19307513  0.77785477  0.09172660  1
  N  N393  1  0.69594986  0.11051983  0.08726622  1
  N  N394  1  0.68376718  0.44421123  0.09693542  1
  N  N395  1  0.68930789  0.77700912  0.09607237  1
  N  N396  1  0.18975944  0.22667714  0.90434088  1
  N  N397  1  0.18435117  0.55442059  0.90266294  1
  N  N398  1  0.19542918  0.88981369  0.90832309  1
  N  N399  1  0.69602604  0.22597042  0.91292008  1
  N  N400  1  0.68240214  0.55546343  0.90250753  1
  N  N401  1  0.69411723  0.88827702  0.90438035  1
  N  N402  1  0.31893395  0.11143728  0.39680668  1
  N  N403  1  0.29901137  0.44391212  0.41217389  1
  N  N404  1  0.31882519  0.77859007  0.40069292  1
  N  N405  1  0.81032154  0.10870603  0.40766280  1
  N  N406  1  0.79851850  0.44352584  0.41314681  1
  N  N407  1  0.80471585  0.77549288  0.41209555  1
  N  N408  1  0.44166929  0.27416257  0.40722226  1
  N  N409  1  0.42901758  0.61315854  0.39672270  1
  N  N410  1  0.42445742  0.94589699  0.39457194  1
  N  N411  1  0.94703528  0.27493827  0.40905326  1
  N  N412  1  0.92795195  0.61011600  0.40229276  1
  N  N413  1  0.92956660  0.94406985  0.39900920  1
  N  N414  1  0.05766685  0.05957098  0.90711450  1
  N  N415  1  0.06477155  0.38965325  0.90350043  1
  N  N416  1  0.05548188  0.72232171  0.90801578  1
  N  N417  1  0.55847671  0.05434345  0.89805125  1
  N  N418  1  0.56509568  0.38863227  0.89870154  1
  N  N419  1  0.56227378  0.72329456  0.90153739  1
  N  N420  1  0.05612044  0.27612708  0.08687606  1
  N  N421  1  0.06348777  0.61123599  0.09786561  1
  N  N422  1  0.05249662  0.94131688  0.09077915  1
  N  N423  1  0.55997712  0.27685814  0.10141687  1
  N  N424  1  0.56901956  0.61169423  0.09966928  1
  N  N425  1  0.55979061  0.94201747  0.09632879  1
  N  N426  1  0.44385280  0.05948929  0.58222923  1
  N  N427  1  0.44925519  0.39298808  0.59072262  1
  N  N428  1  0.43259816  0.71956455  0.59964462  1
  N  N429  1  0.93475563  0.05373849  0.60711536  1
  N  N430  1  0.94796116  0.39279704  0.59258155  1
  N  N431  1  0.94995486  0.72478219  0.58671777  1
  N  N432  1  0.19170504  0.10826094  0.40753358  1
  N  N433  1  0.17391000  0.44470462  0.39485679  1
  N  N434  1  0.18987241  0.77547256  0.41235517  1
  N  N435  1  0.68112479  0.11128964  0.39690875  1
  N  N436  1  0.67105024  0.44664397  0.39748131  1
  N  N437  1  0.68049296  0.77758341  0.39224398  1
  N  N438  1  0.31790623  0.22397924  0.90159392  1
  N  N439  1  0.31251437  0.55362316  0.90384619  1
  N  N440  1  0.32499320  0.88747015  0.89939923  1
  N  N441  1  0.82409213  0.21900655  0.89620747  1
  N  N442  1  0.81245132  0.55795029  0.90397536  1
  N  N443  1  0.82070965  0.88569991  0.90296970  1
  N  N444  1  0.31702242  0.11769300  0.09304525  1
  N  N445  1  0.31532149  0.44371786  0.09150222  1
  N  N446  1  0.32174159  0.77770145  0.10055550  1
  N  N447  1  0.82059948  0.11289761  0.10681049  1
  N  N448  1  0.81161436  0.44553230  0.10098279  1
  N  N449  1  0.81597011  0.77541462  0.09628746  1
  N  N450  1  0.17726060  0.22172031  0.60146272  1
  N  N451  1  0.18765517  0.55985394  0.59458631  1
  N  N452  1  0.19603247  0.89230840  0.59143105  1
  N  N453  1  0.67432491  0.21870538  0.60609759  1
  N  N454  1  0.69456675  0.55969834  0.59227615  1
  N  N455  1  0.70074170  0.89295395  0.58907413  1
  Cl  Cl456  1  0.24747809  0.05299114  0.61459530  1
  Cl  Cl457  1  0.26467110  0.39545801  0.60219427  1
  Cl  Cl458  1  0.25508684  0.71615384  0.62835065  1
  Cl  Cl459  1  0.75370680  0.05349399  0.62982742  1
  Cl  Cl460  1  0.76443826  0.39380426  0.60343725  1
  Cl  Cl461  1  0.75993992  0.72806470  0.59762765  1
  Cl  Cl462  1  0.24078831  0.27543136  0.11141792  1
  Cl  Cl463  1  0.25134605  0.61478632  0.11068254  1
  Cl  Cl464  1  0.23958681  0.94851130  0.11395990  1
  Cl  Cl465  1  0.74605571  0.28194534  0.12077288  1
  Cl  Cl466  1  0.75209921  0.61090038  0.12071851  1
  Cl  Cl467  1  0.74230669  0.94975938  0.12183004  1
  Cl  Cl468  1  0.24447560  0.06027890  0.89068941  1
  Cl  Cl469  1  0.25079612  0.38538351  0.87718274  1
  Cl  Cl470  1  0.24438582  0.72568983  0.89732436  1
  Cl  Cl471  1  0.73958015  0.06183395  0.89562622  1
  Cl  Cl472  1  0.74945077  0.38998783  0.87724439  1
  Cl  Cl473  1  0.74433731  0.71878342  0.86723232  1
  Cl  Cl474  1  0.25789239  0.28308836  0.37798543  1
  Cl  Cl475  1  0.24126713  0.61047918  0.37570248  1
  Cl  Cl476  1  0.24017567  0.94307399  0.38556094  1
  Cl  Cl477  1  0.75966050  0.27941816  0.39044862  1
  Cl  Cl478  1  0.74157653  0.61299817  0.38547317  1
  Cl  Cl479  1  0.73374210  0.94329569  0.38894339  1
  Cl  Cl480  1  -0.01095120  0.22378912  0.61051411  1
  Cl  Cl481  1  0.00495790  0.55432363  0.61303593  1
  Cl  Cl482  1  0.01446573  0.88322959  0.62286972  1
  Cl  Cl483  1  0.48784188  0.22204940  0.61472767  1
  Cl  Cl484  1  0.50508139  0.55592525  0.61013380  1
  Cl  Cl485  1  0.51502646  0.89354410  0.60200219  1
  Cl  Cl486  1  0.00881924  0.11499161  0.12048361  1
  Cl  Cl487  1  -0.00376326  0.44661417  0.12095637  1
  Cl  Cl488  1  0.00628742  0.77816588  0.11877102  1
  Cl  Cl489  1  0.50804888  0.10153901  0.09734719  1
  Cl  Cl490  1  0.50029956  0.44957240  0.12510172  1
  Cl  Cl491  1  0.50488723  0.78586525  0.12255250  1
  Cl  Cl492  1  0.00848753  0.22667591  0.88294841  1
  Cl  Cl493  1  -0.00074512  0.55384568  0.87687121  1
  Cl  Cl494  1  0.00654374  0.88745117  0.89083967  1
  Cl  Cl495  1  0.50525745  0.22163862  0.88379104  1
  Cl  Cl496  1  0.49715798  0.54741392  0.87596622  1
  Cl  Cl497  1  0.51083011  0.89263593  0.88062179  1
  Cl  Cl498  1  0.00325876  0.11113301  0.39050925  1
  Cl  Cl499  1  -0.01652708  0.43880757  0.39002060  1
  Cl  Cl500  1  -0.01021058  0.77529629  0.39905744  1
  Cl  Cl501  1  0.50008241  0.11900409  0.36647414  1
  Cl  Cl502  1  0.48302346  0.44283291  0.39084460  1
  Cl  Cl503  1  0.50124837  0.77549888  0.38845901  1
  Cl  Cl504  1  0.36093554  0.14849877  0.75608542  1
  Cl  Cl505  1  0.35733487  0.48059903  0.74422334  1
  Cl  Cl506  1  0.36184120  0.81286203  0.75260113  1
  Cl  Cl507  1  0.86093032  0.14379664  0.75907789  1
  Cl  Cl508  1  0.86155591  0.48003311  0.74560725  1
  Cl  Cl509  1  0.86682970  0.81120437  0.74395241  1
  Cl  Cl510  1  0.14056418  0.18419930  0.24970419  1
  Cl  Cl511  1  0.13420567  0.51835834  0.25127148  1
  Cl  Cl512  1  0.14545951  0.85017943  0.24996891  1
  Cl  Cl513  1  0.63958642  0.18518840  0.25057753  1
  Cl  Cl514  1  0.63970830  0.51856277  0.25522355  1
  Cl  Cl515  1  0.63811910  0.84997025  0.25590626  1
  Cl  Cl516  1  0.13907681  0.14712624  0.74856541  1
  Cl  Cl517  1  0.13852799  0.47772353  0.74307555  1
  Cl  Cl518  1  0.14410858  0.81421379  0.74990633  1
  Cl  Cl519  1  0.63943168  0.14607319  0.75019889  1
  Cl  Cl520  1  0.64012440  0.47939427  0.74363956  1
  Cl  Cl521  1  0.64374168  0.81633582  0.74240877  1
  Cl  Cl522  1  0.35973033  0.18507723  0.24594046  1
  Cl  Cl523  1  0.35576466  0.51658455  0.25003677  1
  Cl  Cl524  1  0.36464731  0.85600752  0.25738987  1
  Cl  Cl525  1  0.86056882  0.18482672  0.24725965  1
  Cl  Cl526  1  0.85837395  0.51908233  0.25386097  1
  Cl  Cl527  1  0.86051605  0.85465171  0.25095532  1
  Cl  Cl528  1  0.10954856  0.31207251  0.74122323  1
  Cl  Cl529  1  0.10979724  0.64735863  0.74702547  1
  Cl  Cl530  1  0.11129503  0.98170901  0.75473149  1
  Cl  Cl531  1  0.61907047  0.31101877  0.74059184  1
  Cl  Cl532  1  0.60919391  0.64954806  0.74564272  1
  Cl  Cl533  1  0.60699394  0.98146666  0.74594251  1
  Cl  Cl534  1  0.38946032  0.02129138  0.24753997  1
  Cl  Cl535  1  0.39343644  0.34862971  0.25203445  1
  Cl  Cl536  1  0.38315773  0.68711525  0.25688712  1
  Cl  Cl537  1  0.88474115  0.02041858  0.25149689  1
  Cl  Cl538  1  0.89131071  0.34798059  0.24505748  1
  Cl  Cl539  1  0.89210825  0.68802112  0.25236650  1
  Cl  Cl540  1  0.39536239  0.31720577  0.74755176  1
  Cl  Cl541  1  0.39030646  0.64676679  0.74309794  1
  Cl  Cl542  1  0.38750191  0.97799976  0.74890325  1
  Cl  Cl543  1  0.88838975  0.31256883  0.75067348  1
  Cl  Cl544  1  0.88930837  0.64683304  0.74924492  1
  Cl  Cl545  1  0.88859874  0.97733204  0.74873654  1
  Cl  Cl546  1  0.10454098  0.01480131  0.25089206  1
  Cl  Cl547  1  0.10952497  0.35260070  0.25772429  1
  Cl  Cl548  1  0.11061642  0.68664871  0.25239365  1
  Cl  Cl549  1  0.60576466  0.01758512  0.24846185  1
  Cl  Cl550  1  0.61181271  0.35430958  0.25867129  1
  Cl  Cl551  1  0.60583224  0.68307354  0.25254269  1
