# generated using pymatgen
data_H8PbC4(N3Cl2)2
_symmetry_space_group_name_H-M   'P 1'
_cell_length_a   16.62433917
_cell_length_b   22.50623760
_cell_length_c   21.59074563
_cell_angle_alpha   89.99867562
_cell_angle_beta   90.00242077
_cell_angle_gamma   89.99852564
_symmetry_Int_Tables_number   1
_chemical_formula_structural   H8PbC4(N3Cl2)2
_chemical_formula_sum   'H192 Pb24 C96 N144 Cl96'
_cell_volume   8078.20612213
_cell_formula_units_Z   24
loop_
 _symmetry_equiv_pos_site_id
 _symmetry_equiv_pos_as_xyz
  1  'x, y, z'
loop_
 _atom_site_type_symbol
 _atom_site_label
 _atom_site_symmetry_multiplicity
 _atom_site_fract_x
 _atom_site_fract_y
 _atom_site_fract_z
 _atom_site_occupancy
  H  H0  1  -0.00948699  0.03351276  0.67941842  1
  H  H1  1  -0.00394799  0.36272417  0.67773999  1
  H  H2  1  -0.01504324  0.69773445  0.68235906  1
  H  H3  1  0.49408058  0.03235705  0.67949267  1
  H  H4  1  0.50226561  0.36297081  0.67777853  1
  H  H5  1  0.51068843  0.69829233  0.67960423  1
  H  H6  1  0.00232869  0.30239155  0.18296869  1
  H  H7  1  -0.00817844  0.63371902  0.17959451  1
  H  H8  1  -0.00390136  0.96984343  0.18120970  1
  H  H9  1  0.50605198  0.30190626  0.17529789  1
  H  H10  1  0.50393526  0.63534207  0.17905655  1
  H  H11  1  0.49929535  0.97020629  0.18166383  1
  H  H12  1  -0.00641803  0.03299943  0.81972418  1
  H  H13  1  0.00025548  0.36436503  0.82332346  1
  H  H14  1  -0.00467794  0.69568415  0.81863862  1
  H  H15  1  0.50152631  0.03148130  0.81981328  1
  H  H16  1  0.50119447  0.36259801  0.81938607  1
  H  H17  1  0.51070263  0.69793501  0.82085240  1
  H  H18  1  0.00235194  0.30131716  0.32557635  1
  H  H19  1  0.00871828  0.63448867  0.31727997  1
  H  H20  1  -0.01287636  0.96801638  0.32285547  1
  H  H21  1  0.49544356  0.30213062  0.32090133  1
  H  H22  1  0.49116911  0.63379083  0.32103094  1
  H  H23  1  0.51181226  0.97056644  0.32140456  1
  H  H24  1  0.25012459  0.19934334  0.67934180  1
  H  H25  1  0.25640798  0.53008537  0.68264331  1
  H  H26  1  0.25662901  0.86471011  0.67609211  1
  H  H27  1  0.74649762  0.19929022  0.68016683  1
  H  H28  1  0.75150126  0.53157716  0.67923363  1
  H  H29  1  0.74952699  0.86285788  0.68192631  1
  H  H30  1  0.25314988  0.13537979  0.18223999  1
  H  H31  1  0.25011695  0.47127537  0.17965125  1
  H  H32  1  0.23816201  0.80091450  0.18176596  1
  H  H33  1  0.75256965  0.13641571  0.17840102  1
  H  H34  1  0.74267885  0.46771597  0.17834824  1
  H  H35  1  0.75646273  0.80375179  0.18146147  1
  H  H36  1  0.24394121  0.19782337  0.82112955  1
  H  H37  1  0.25925746  0.52996591  0.81903759  1
  H  H38  1  0.24257639  0.86583366  0.82104786  1
  H  H39  1  0.74854426  0.19884408  0.81993580  1
  H  H40  1  0.74364629  0.52848245  0.82139004  1
  H  H41  1  0.75598000  0.86626690  0.81988163  1
  H  H42  1  0.24756906  0.13577779  0.32162243  1
  H  H43  1  0.25333569  0.46757232  0.32108728  1
  H  H44  1  0.25514138  0.80264271  0.32070130  1
  H  H45  1  0.75317869  0.13731224  0.31905112  1
  H  H46  1  0.75634174  0.46786693  0.31993201  1
  H  H47  1  0.75238278  0.80132037  0.31775791  1
  H  H48  1  0.12956152  0.05177550  0.62344639  1
  H  H49  1  0.13078061  0.38267298  0.61569987  1
  H  H50  1  0.12315047  0.71787459  0.62461015  1
  H  H51  1  0.62886928  0.05362063  0.61664036  1
  H  H52  1  0.62704873  0.38867355  0.60793587  1
  H  H53  1  0.61923100  0.72516620  0.59549388  1
  H  H54  1  0.37380226  0.27971255  0.11276198  1
  H  H55  1  0.36960536  0.61497361  0.11899855  1
  H  H56  1  0.37677693  0.94683576  0.10957867  1
  H  H57  1  0.87680446  0.28026494  0.11111730  1
  H  H58  1  0.87214961  0.60948875  0.10508016  1
  H  H59  1  0.88008815  0.94658996  0.10305110  1
  H  H60  1  0.37737824  0.05253556  0.89048556  1
  H  H61  1  0.37628901  0.38684032  0.88948153  1
  H  H62  1  0.37217779  0.71656415  0.87486484  1
  H  H63  1  0.87612329  0.05555362  0.89573842  1
  H  H64  1  0.87234765  0.38703927  0.89016894  1
  H  H65  1  0.87351958  0.71992463  0.89266893  1
  H  H66  1  0.12808183  0.27918575  0.39238812  1
  H  H67  1  0.12606424  0.61243559  0.39236748  1
  H  H68  1  0.12914413  0.94913162  0.37127450  1
  H  H69  1  0.62926410  0.28173261  0.38295208  1
  H  H70  1  0.63130057  0.61519275  0.37514982  1
  H  H71  1  0.62200048  0.94293817  0.40381866  1
  H  H72  1  0.36635890  0.22184512  0.60378353  1
  H  H73  1  0.36836658  0.55525850  0.60304167  1
  H  H74  1  0.36925753  0.88992371  0.59489385  1
  H  H75  1  0.87164486  0.22074519  0.60796977  1
  H  H76  1  0.86628840  0.55464075  0.60270436  1
  H  H77  1  0.87354341  0.89026988  0.61141150  1
  H  H78  1  0.12209872  0.11553952  0.11717994  1
  H  H79  1  0.12401174  0.44624439  0.10970231  1
  H  H80  1  0.13349264  0.77636245  0.09782442  1
  H  H81  1  0.62167406  0.11551430  0.11359034  1
  H  H82  1  0.63147440  0.44192074  0.09672079  1
  H  H83  1  0.62821262  0.77960563  0.11624650  1
  H  H84  1  0.12813535  0.22203869  0.89816028  1
  H  H85  1  0.12823025  0.55108255  0.88532566  1
  H  H86  1  0.12421932  0.88906775  0.89684878  1
  H  H87  1  0.62357649  0.21950119  0.89025779  1
  H  H88  1  0.63177520  0.55624980  0.90263893  1
  H  H89  1  0.62173338  0.88537838  0.87990955  1
  H  H90  1  0.36931177  0.11235068  0.39477339  1
  H  H91  1  0.36677125  0.44356567  0.39847666  1
  H  H92  1  0.37696594  0.78001489  0.39360875  1
  H  H93  1  0.86626242  0.11434279  0.39873418  1
  H  H94  1  0.87135474  0.44308548  0.39952550  1
  H  H95  1  0.87828828  0.77924266  0.38565601  1
  H  H96  1  0.38157855  0.27589322  0.40112916  1
  H  H97  1  0.38512005  0.60971381  0.40557584  1
  H  H98  1  0.37597132  0.94778486  0.37989909  1
  H  H99  1  0.87944970  0.28013855  0.39464747  1
  H  H100  1  0.87734939  0.61523628  0.38094450  1
  H  H101  1  0.88588948  0.93949470  0.40993275  1
  H  H102  1  0.12464250  0.05073836  0.88210054  1
  H  H103  1  0.12153602  0.38870010  0.89575140  1
  H  H104  1  0.12266447  0.72200913  0.88420919  1
  H  H105  1  0.62675035  0.05361876  0.88702607  1
  H  H106  1  0.62554852  0.38568804  0.89106407  1
  H  H107  1  0.61769104  0.72695247  0.90439597  1
  H  H108  1  0.12614002  0.27846338  0.11181942  1
  H  H109  1  0.12090990  0.61487181  0.11572690  1
  H  H110  1  0.12893567  0.94825378  0.11626334  1
  H  H111  1  0.62224645  0.27693659  0.09825616  1
  H  H112  1  0.61754492  0.60742315  0.10003783  1
  H  H113  1  0.62572080  0.94705579  0.11149237  1
  H  H114  1  0.38162873  0.05751604  0.59795111  1
  H  H115  1  0.37813109  0.38780126  0.60860586  1
  H  H116  1  0.37310255  0.71784512  0.62138147  1
  H  H117  1  0.88475271  0.06024741  0.59406319  1
  H  H118  1  0.88396004  0.38933956  0.59683115  1
  H  H119  1  0.87671867  0.72152801  0.59890642  1
  H  H120  1  0.12075895  0.11400095  0.39239626  1
  H  H121  1  0.11840649  0.44791318  0.38082123  1
  H  H122  1  0.12806612  0.78039334  0.38564473  1
  H  H123  1  0.61788140  0.11566796  0.37952237  1
  H  H124  1  0.62391320  0.44743204  0.38343855  1
  H  H125  1  0.62821075  0.77896136  0.39032225  1
  H  H126  1  0.37635157  0.21812271  0.88513538  1
  H  H127  1  0.37592966  0.55661558  0.89728949  1
  H  H128  1  0.37272678  0.88552259  0.88345851  1
  H  H129  1  0.87291649  0.21848410  0.88913726  1
  H  H130  1  0.87854716  0.55132430  0.88156828  1
  H  H131  1  0.87034699  0.89152834  0.89906030  1
  H  H132  1  0.37152261  0.11367089  0.10843599  1
  H  H133  1  0.37255885  0.44638373  0.10737535  1
  H  H134  1  0.37875551  0.78403365  0.12946210  1
  H  H135  1  0.87012065  0.11035686  0.10203271  1
  H  H136  1  0.87809510  0.44930951  0.11933548  1
  H  H137  1  0.87779225  0.77597314  0.10823131  1
  H  H138  1  0.11738145  0.21844049  0.61662536  1
  H  H139  1  0.12067344  0.54983126  0.62129469  1
  H  H140  1  0.12252280  0.88777071  0.61439803  1
  H  H141  1  0.62294512  0.22390705  0.60671382  1
  H  H142  1  0.61769841  0.55089518  0.61849571  1
  H  H143  1  0.62389097  0.88761321  0.61371807  1
  H  H144  1  0.42506075  0.41810841  0.99750484  1
  H  H145  1  0.45061542  0.24876595  0.50226562  1
  H  H146  1  0.82224730  0.91063766  0.50409173  1
  H  H147  1  0.10329185  0.41177320  0.50841879  1
  H  H148  1  0.96192740  0.09183663  0.49701284  1
  H  H149  1  0.80971340  0.58383208  0.49469589  1
  H  H150  1  0.45773660  0.58284901  0.50984661  1
  H  H151  1  0.15483817  0.91346318  0.50538360  1
  H  H152  1  0.91331136  0.41717284  0.99628928  1
  H  H153  1  0.93262555  0.72558036  1.00060946  1
  H  H154  1  0.55074617  0.57991158  -0.00207610  1
  H  H155  1  0.61472637  0.58563569  0.48600596  1
  H  H156  1  0.83349416  0.75053378  0.49784640  1
  H  H157  1  0.33990768  0.91628758  0.99705066  1
  H  H158  1  0.80318714  0.08908078  0.50624794  1
  H  H159  1  0.66968923  0.91464352  0.50194688  1
  H  H160  1  0.54351601  0.75034197  0.49538773  1
  H  H161  1  0.94936120  0.74459651  0.49326408  1
  H  H162  1  0.82102714  0.76319676  0.00070876  1
  H  H163  1  0.68041477  0.74702356  0.49401473  1
  H  H164  1  0.08156435  0.74868441  0.99617455  1
  H  H165  1  0.58683493  0.08360505  0.99894110  1
  H  H166  1  0.54472507  0.74916204  1.00503833  1
  H  H167  1  0.31987105  0.08393228  -0.00081962  1
  H  H168  1  0.66910939  0.75274563  0.00359206  1
  H  H169  1  0.30140872  0.58320227  0.49688330  1
  H  H170  1  0.70383518  0.57933737  1.00463152  1
  H  H171  1  0.40933878  0.24866566  0.00633769  1
  H  H172  1  0.30882006  0.41392986  0.50552262  1
  H  H173  1  0.57953273  0.41649171  0.50331430  1
  H  H174  1  0.09487726  0.08064247  0.99575303  1
  H  H175  1  0.82869108  0.24621427  1.00142074  1
  H  H176  1  0.38974544  0.74897623  0.98914184  1
  H  H177  1  0.54817304  0.92098839  0.50523059  1
  H  H178  1  0.07207457  0.58380686  0.50158564  1
  H  H179  1  0.30840066  0.24929403  0.49330881  1
  H  H180  1  0.17255952  0.41916104  0.00538181  1
  H  H181  1  0.65055549  0.91652456  0.99203444  1
  H  H182  1  0.80549772  0.92619139  0.99893015  1
  H  H183  1  0.08487778  0.58398989  0.00238348  1
  H  H184  1  0.80544249  0.41407105  0.50040016  1
  H  H185  1  0.96686282  0.91692762  0.50872475  1
  H  H186  1  0.94335737  0.92254464  -0.00503026  1
  H  H187  1  0.20681756  0.75113999  -0.00837607  1
  H  H188  1  0.16729178  0.75011742  0.49868839  1
  H  H189  1  0.16860776  0.08667691  0.49700483  1
  H  H190  1  0.07665447  0.24763075  0.00369615  1
  H  H191  1  0.64824374  0.08874230  0.48713796  1
  Pb  Pb192  1  0.25583813  0.04855226  0.74771887  1
  Pb  Pb193  1  0.24891795  0.37817826  0.75372335  1
  Pb  Pb194  1  0.24836861  0.71176150  0.74961942  1
  Pb  Pb195  1  0.75059015  0.04661692  0.74524965  1
  Pb  Pb196  1  0.75113773  0.37917155  0.74419033  1
  Pb  Pb197  1  0.74851569  0.71713606  0.74803801  1
  Pb  Pb198  1  0.25042507  0.28725950  0.25201502  1
  Pb  Pb199  1  0.25337729  0.62012126  0.25790090  1
  Pb  Pb200  1  0.25236051  0.95497030  0.24637311  1
  Pb  Pb201  1  0.74998042  0.28838692  0.24473961  1
  Pb  Pb202  1  0.74960840  0.61897105  0.24155528  1
  Pb  Pb203  1  0.75392215  0.95251501  0.25241033  1
  Pb  Pb204  1  -0.00024366  0.21239925  0.75517316  1
  Pb  Pb205  1  -0.00146540  0.54537224  0.74884094  1
  Pb  Pb206  1  0.00465105  0.88287525  0.75119114  1
  Pb  Pb207  1  0.50112547  0.21437311  0.74680951  1
  Pb  Pb208  1  0.49908490  0.54585803  0.75496642  1
  Pb  Pb209  1  0.49568780  0.88022742  0.74249681  1
  Pb  Pb210  1  -0.00137217  0.12114165  0.25441125  1
  Pb  Pb211  1  0.00012896  0.45377406  0.24921792  1
  Pb  Pb212  1  0.00474313  0.78507659  0.24367788  1
  Pb  Pb213  1  0.50031836  0.12126972  0.24810770  1
  Pb  Pb214  1  0.49783458  0.45256984  0.24949722  1
  Pb  Pb215  1  0.50263576  0.78742817  0.25179165  1
  C  C216  1  0.00146226  0.04833662  0.63232847  1
  C  C217  1  0.00395432  0.37764519  0.63030582  1
  C  C218  1  -0.00485405  0.71256753  0.63512680  1
  C  C219  1  0.50178368  0.04725777  0.63201232  1
  C  C220  1  0.50304287  0.37923216  0.63062467  1
  C  C221  1  0.50144949  0.71301325  0.63223291  1
  C  C222  1  0.00162768  0.28712083  0.13528437  1
  C  C223  1  -0.00442534  0.61933336  0.13185502  1
  C  C224  1  0.00190228  0.95483195  0.13361710  1
  C  C225  1  0.50026356  0.28642968  0.12796950  1
  C  C226  1  0.49735273  0.62006087  0.13181823  1
  C  C227  1  0.50095284  0.95491649  0.13426791  1
  C  C228  1  -0.00124466  0.04670162  0.86767547  1
  C  C229  1  -0.00235784  0.38001973  0.87071926  1
  C  C230  1  -0.00357925  0.71163572  0.86613556  1
  C  C231  1  0.50237391  0.04615948  0.86759174  1
  C  C232  1  0.50098391  0.37857559  0.86672484  1
  C  C233  1  0.50039821  0.71245678  0.86830647  1
  C  C234  1  0.00334467  0.28645364  0.37342717  1
  C  C235  1  0.00434012  0.62043363  0.36513661  1
  C  C236  1  0.00052170  0.95336002  0.36961700  1
  C  C237  1  0.50167292  0.28720714  0.36840200  1
  C  C238  1  0.50335972  0.61905583  0.36816841  1
  C  C239  1  0.50395754  0.95467002  0.36839226  1
  C  C240  1  0.24484134  0.21317907  0.63151035  1
  C  C241  1  0.24809979  0.54509192  0.63532494  1
  C  C242  1  0.24897205  0.88002991  0.62883347  1
  C  C243  1  0.74681986  0.21418613  0.63238600  1
  C  C244  1  0.74545724  0.54612897  0.63159751  1
  C  C245  1  0.74955042  0.87907747  0.63444365  1
  C  C246  1  0.24929051  0.12127923  0.13437831  1
  C  C247  1  0.24857077  0.45497991  0.13244056  1
  C  C248  1  0.25005191  0.78745720  0.13438087  1
  C  C249  1  0.74827073  0.12071097  0.13118210  1
  C  C250  1  0.75063449  0.45324116  0.13098507  1
  C  C251  1  0.75486745  0.78757821  0.13403322  1
  C  C252  1  0.24988471  0.21240770  0.86856432  1
  C  C253  1  0.25468197  0.54538359  0.86650863  1
  C  C254  1  0.24707129  0.88038894  0.86875438  1
  C  C255  1  0.74885851  0.21247842  0.86801159  1
  C  C256  1  0.75091098  0.54466261  0.86836839  1
  C  C257  1  0.74966581  0.88176260  0.86743430  1
  C  C258  1  0.24530226  0.12054768  0.36923179  1
  C  C259  1  0.24647327  0.45305464  0.36868752  1
  C  C260  1  0.25283065  0.78763163  0.36826060  1
  C  C261  1  0.74522891  0.12149810  0.36623629  1
  C  C262  1  0.75083790  0.45312252  0.36756610  1
  C  C263  1  0.75239397  0.78625341  0.36561245  1
  C  C264  1  0.54391176  0.07295352  0.96146449  1
  C  C265  1  0.03524639  0.40971821  0.96480278  1
  C  C266  1  0.70872736  0.76097329  0.04276426  1
  C  C267  1  0.69527588  0.90641642  0.95667123  1
  C  C268  1  0.46228286  0.07204633  0.96119725  1
  C  C269  1  0.46457068  0.92749480  0.04069301  1
  C  C270  1  0.79566604  0.76162385  0.45847247  1
  C  C271  1  0.03527122  0.59451748  0.46149530  1
  C  C272  1  0.46401180  0.40687990  0.95885075  1
  C  C273  1  0.04541563  0.25940579  0.46478667  1
  C  C274  1  0.04181302  0.73863475  0.95758695  1
  C  C275  1  0.44152991  0.59108192  0.04321949  1
  C  C276  1  0.69143950  0.57120892  0.54165303  1
  C  C277  1  0.78884785  0.23673881  0.96283084  1
  C  C278  1  0.03779058  0.25958178  0.04255283  1
  C  C279  1  0.48580506  0.59276631  0.46543219  1
  C  C280  1  0.77274982  0.57306959  0.53493960  1
  C  C281  1  0.53162966  0.25614708  0.03293051  1
  C  C282  1  0.20009796  0.09666838  0.04302680  1
  C  C283  1  0.70727309  0.23669200  0.96168431  1
  C  C284  1  0.04206582  0.59402616  0.03903616  1
  C  C285  1  0.96472993  0.25992216  0.46565794  1
  C  C286  1  0.22182811  0.24023243  0.96354957  1
  C  C287  1  0.97751406  0.73696949  0.53812858  1
  C  C288  1  0.27218867  0.42530699  0.46537584  1
  C  C289  1  0.29547079  0.90617342  0.96088869  1
  C  C290  1  0.21406237  0.90677656  0.96377092  1
  C  C291  1  0.80395502  0.42743546  0.04228701  1
  C  C292  1  0.28165275  0.09514520  0.03859625  1
  C  C293  1  0.20900252  0.76065304  0.46136132  1
  C  C294  1  0.46109864  0.40930681  0.53781375  1
  C  C295  1  0.77187875  0.09631223  0.46270256  1
  C  C296  1  0.06869920  0.92681702  0.45323548  1
  C  C297  1  0.27392623  0.23898965  0.53481762  1
  C  C298  1  0.31456517  0.76480628  0.04830556  1
  C  C299  1  0.27034995  0.57186825  0.53977025  1
  C  C300  1  0.97581462  0.93043752  0.03800182  1
  C  C301  1  0.43848896  0.73918753  0.95424715  1
  C  C302  1  0.95406676  0.59576993  0.45614961  1
  C  C303  1  0.19248682  0.23804661  0.54108095  1
  C  C304  1  0.29055762  0.76111920  0.46228476  1
  C  C305  1  0.23500307  0.76193636  0.03568721  1
  C  C306  1  0.19110758  0.42729476  0.45768402  1
  C  C307  1  0.96049085  0.59304762  0.03701160  1
  C  C308  1  0.70721407  0.90696176  0.54243582  1
  C  C309  1  0.70206447  0.09351270  0.04053745  1
  C  C310  1  0.04848202  0.07102568  0.95986972  1
  C  C311  1  0.96709700  0.07232074  0.96302197  1
  N  N312  1  0.19150796  0.57010082  0.54590458  1
  N  N313  1  0.54024776  0.40852594  0.53887098  1
  N  N314  1  0.44527693  0.92670443  0.45518283  1
  N  N315  1  0.51815166  0.74058217  0.53773173  1
  N  N316  1  0.71609039  0.76352534  0.45943536  1
  N  N317  1  0.55687948  0.26072410  0.45705954  1
  N  N318  1  0.20770487  0.57173068  0.95788354  1
  N  N319  1  0.78685406  0.90854679  0.54282932  1
  N  N320  1  0.77465569  0.90728184  0.96274785  1
  N  N321  1  0.28385782  0.57355417  0.96170431  1
  N  N322  1  0.27678281  0.90684237  0.53287861  1
  N  N323  1  0.77499839  0.42815983  0.46177009  1
  N  N324  1  0.05495591  0.40195852  0.54192802  1
  N  N325  1  0.28484834  0.09453860  0.46301514  1
  N  N326  1  0.80768495  0.57397000  0.95537909  1
  N  N327  1  0.97747183  0.40479510  0.53420923  1
  N  N328  1  0.78612206  0.23961886  0.53866931  1
  N  N329  1  0.78856073  0.75978991  0.04080861  1
  N  N330  1  0.21077708  0.42648336  0.04207124  1
  N  N331  1  0.95602530  0.40846520  0.96174695  1
  N  N332  1  0.77943694  0.09150896  0.03546746  1
  N  N333  1  0.72705450  0.42459581  0.03375296  1
  N  N334  1  0.52265087  0.92564955  0.46215262  1
  N  N335  1  0.28911531  0.42732107  0.03931451  1
  N  N336  1  0.47713415  0.07495919  0.53592781  1
  N  N337  1  0.45285249  0.25773257  0.03882449  1
  N  N338  1  0.69301687  0.09450619  0.45429562  1
  N  N339  1  0.54327413  0.40637811  0.96001664  1
  N  N340  1  0.29955205  0.23866002  0.96029056  1
  N  N341  1  0.51716941  0.74289229  0.96300810  1
  N  N342  1  0.96183721  0.73682685  0.96043298  1
  N  N343  1  0.95842051  0.26066256  0.04193474  1
  N  N344  1  0.69692672  0.42846111  0.45747674  1
  N  N345  1  0.73016531  0.57490043  0.96152780  1
  N  N346  1  0.47925956  0.25829812  0.46148701  1
  N  N347  1  0.06406889  0.07254842  0.54599318  1
  N  N348  1  0.52010910  0.58974836  0.03790482  1
  N  N349  1  0.99113301  0.92361397  0.46515053  1
  N  N350  1  0.19923805  0.90559313  0.54042734  1
  N  N351  1  0.55326185  0.07372162  0.54208105  1
  N  N352  1  0.05477625  0.92985576  0.04282502  1
  N  N353  1  0.20677842  0.09496156  0.46040832  1
  N  N354  1  0.98685914  0.07436389  0.53698978  1
  N  N355  1  0.44095290  0.73777449  0.54508404  1
  N  N356  1  0.56410176  0.59409450  0.45403970  1
  N  N357  1  0.70988845  0.24071797  0.53839772  1
  N  N358  1  0.05574384  0.73730335  0.54717784  1
  N  N359  1  0.54239093  0.92739868  0.04037114  1
  N  N360  1  0.07246114  0.05529500  0.60500948  1
  N  N361  1  0.07201971  0.38569683  0.60002087  1
  N  N362  1  0.06494143  0.72213741  0.60756803  1
  N  N363  1  0.56986137  0.05660538  0.60179308  1
  N  N364  1  0.56680962  0.38941051  0.59584601  1
  N  N365  1  0.55695219  0.72400081  0.58982038  1
  N  N366  1  0.43294003  0.27665299  0.09734263  1
  N  N367  1  0.42723057  0.60968926  0.10135022  1
  N  N368  1  0.43720993  0.94380311  0.09743551  1
  N  N369  1  0.93773031  0.27757724  0.09999087  1
  N  N370  1  0.93251759  0.60795836  0.09306898  1
  N  N371  1  0.94159226  0.94483787  0.09361954  1
  N  N372  1  0.43741672  0.05605327  0.90449012  1
  N  N373  1  0.43636343  0.39029716  0.90182194  1
  N  N374  1  0.42819784  0.72152070  0.89508814  1
  N  N375  1  0.93710060  0.05783538  0.90749615  1
  N  N376  1  0.93239767  0.38982836  0.90388011  1
  N  N377  1  0.93434416  0.71641685  0.90411026  1
  N  N378  1  0.06940561  0.27549268  0.40829624  1
  N  N379  1  0.06564149  0.60999862  0.40361048  1
  N  N380  1  0.07448480  0.94388704  0.39361689  1
  N  N381  1  0.57038252  0.27745523  0.39840591  1
  N  N382  1  0.57419302  0.60971585  0.39402676  1
  N  N383  1  0.56037431  0.94448753  0.41025912  1
  N  N384  1  0.30555959  0.22337813  0.59239136  1
  N  N385  1  0.30656104  0.55660807  0.59424214  1
  N  N386  1  0.30749082  0.89113450  0.58812570  1
  N  N387  1  0.81058275  0.22351171  0.59684265  1
  N  N388  1  0.80520358  0.55736498  0.59234587  1
  N  N389  1  0.81289767  0.88813305  0.59866087  1
  N  N390  1  0.18105912  0.11233475  0.10113108  1
  N  N391  1  0.18469446  0.44467869  0.09769942  1
  N  N392  1  0.19529723  0.77648379  0.09077296  1
  N  N393  1  0.68060877  0.11081895  0.09860341  1
  N  N394  1  0.69359049  0.44102538  0.09036996  1
  N  N395  1  0.68775573  0.77640028  0.10087387  1
  N  N396  1  0.18945241  0.22436797  0.90825938  1
  N  N397  1  0.18827293  0.55470182  0.89887146  1
  N  N398  1  0.18486327  0.89128725  0.90826110  1
  N  N399  1  0.68344777  0.22213218  0.90438901  1
  N  N400  1  0.69383249  0.55504482  0.90964443  1
  N  N401  1  0.67965137  0.88974372  0.89788248  1
  N  N402  1  0.30836015  0.10996226  0.40577769  1
  N  N403  1  0.30565838  0.44173771  0.40850701  1
  N  N404  1  0.31681188  0.77730566  0.40613684  1
  N  N405  1  0.80468064  0.11175848  0.40772039  1
  N  N406  1  0.80938087  0.44208369  0.40734182  1
  N  N407  1  0.81856731  0.77665360  0.40058770  1
  N  N408  1  0.44369654  0.27619510  0.40866646  1
  N  N409  1  0.44758128  0.60808570  0.41223536  1
  N  N410  1  0.43424540  0.94339735  0.39635333  1
  N  N411  1  0.93869369  0.27610225  0.40998479  1
  N  N412  1  0.93581903  0.61119613  0.39789937  1
  N  N413  1  0.94816728  0.94294951  0.41429396  1
  N  N414  1  0.06673746  0.05488606  0.89923844  1
  N  N415  1  0.06106336  0.39210109  0.90829872  1
  N  N416  1  0.06297695  0.72497211  0.89908504  1
  N  N417  1  0.56748974  0.05671589  0.90190169  1
  N  N418  1  0.56453053  0.38865834  0.90233217  1
  N  N419  1  0.55558993  0.72338249  0.91097048  1
  N  N420  1  0.06568894  0.27572814  0.09952830  1
  N  N421  1  0.06251593  0.61050390  0.09916411  1
  N  N422  1  0.06915428  0.94516244  0.10225995  1
  N  N423  1  0.56120116  0.27402680  0.08802600  1
  N  N424  1  0.55572559  0.60887486  0.09189106  1
  N  N425  1  0.56511241  0.94480335  0.09987534  1
  N  N426  1  0.44391279  0.05861089  0.59140060  1
  N  N427  1  0.43793408  0.39153050  0.59474286  1
  N  N428  1  0.43108322  0.72176242  0.60429532  1
  N  N429  1  0.94721593  0.06140175  0.58970400  1
  N  N430  1  0.94606529  0.38931696  0.58940072  1
  N  N431  1  0.93856130  0.72260708  0.59201635  1
  N  N432  1  0.18107714  0.11114115  0.40394899  1
  N  N433  1  0.17618145  0.44395456  0.39889912  1
  N  N434  1  0.18676536  0.77711115  0.40154423  1
  N  N435  1  0.67684640  0.11015308  0.39492324  1
  N  N436  1  0.68284192  0.44477840  0.39882295  1
  N  N437  1  0.68939627  0.77656487  0.40147530  1
  N  N438  1  0.31687405  0.22104944  0.89999790  1
  N  N439  1  0.31451255  0.55698528  0.90530320  1
  N  N440  1  0.31463551  0.88965272  0.90050777  1
  N  N441  1  0.81356001  0.22156588  0.90338745  1
  N  N442  1  0.82002982  0.55677981  0.89682422  1
  N  N443  1  0.80817470  0.89436282  0.90675617  1
  N  N444  1  0.31101192  0.11063961  0.09660951  1
  N  N445  1  0.31184961  0.44368121  0.09647170  1
  N  N446  1  0.32353746  0.77997194  0.10798389  1
  N  N447  1  0.80845536  0.10888321  0.09318350  1
  N  N448  1  0.82084352  0.44468124  0.10138771  1
  N  N449  1  0.81687883  0.77958683  0.09658926  1
  N  N450  1  0.17573477  0.22266809  0.59957271  1
  N  N451  1  0.17949396  0.55358612  0.60551240  1
  N  N452  1  0.18108250  0.88894358  0.59850301  1
  N  N453  1  0.68393053  0.22488116  0.59640676  1
  N  N454  1  0.67554206  0.55522368  0.60066170  1
  N  N455  1  0.68369861  0.89030553  0.59966757  1
  Cl  Cl456  1  0.25759977  0.05562742  0.61298406  1
  Cl  Cl457  1  0.25423375  0.38503883  0.61987231  1
  Cl  Cl458  1  0.24907188  0.71863626  0.61861702  1
  Cl  Cl459  1  0.76074376  0.05572257  0.60670488  1
  Cl  Cl460  1  0.75927325  0.39297018  0.60635248  1
  Cl  Cl461  1  0.74374820  0.72650075  0.60257182  1
  Cl  Cl462  1  0.25005433  0.28082449  0.11929011  1
  Cl  Cl463  1  0.24647548  0.61741182  0.12812521  1
  Cl  Cl464  1  0.25397036  0.94645167  0.11398021  1
  Cl  Cl465  1  0.74930224  0.27889608  0.11070428  1
  Cl  Cl466  1  0.73981968  0.60796037  0.10401291  1
  Cl  Cl467  1  0.75514331  0.94341529  0.10989081  1
  Cl  Cl468  1  0.25331743  0.05081085  0.87873556  1
  Cl  Cl469  1  0.24541542  0.38605032  0.88745219  1
  Cl  Cl470  1  0.24423859  0.72271018  0.88285542  1
  Cl  Cl471  1  0.75339812  0.04915541  0.87556655  1
  Cl  Cl472  1  0.74983122  0.38502547  0.87578164  1
  Cl  Cl473  1  0.74648955  0.72930842  0.89530600  1
  Cl  Cl474  1  0.26017693  0.27761585  0.38624253  1
  Cl  Cl475  1  0.26179927  0.61153009  0.39322962  1
  Cl  Cl476  1  0.25270551  0.94746619  0.37792938  1
  Cl  Cl477  1  0.75347702  0.28478964  0.37587595  1
  Cl  Cl478  1  0.75460555  0.61849509  0.37381694  1
  Cl  Cl479  1  0.75686805  0.93903605  0.39956171  1
  Cl  Cl480  1  -0.00679602  0.21579304  0.62215202  1
  Cl  Cl481  1  -0.00774286  0.55050916  0.61763758  1
  Cl  Cl482  1  -0.00470733  0.89513045  0.60536295  1
  Cl  Cl483  1  0.49344551  0.22720578  0.60942996  1
  Cl  Cl484  1  0.49034919  0.55314813  0.61756141  1
  Cl  Cl485  1  0.49937328  0.89007903  0.60490615  1
  Cl  Cl486  1  -0.00419489  0.11247924  0.12275324  1
  Cl  Cl487  1  0.00331392  0.44484582  0.11299148  1
  Cl  Cl488  1  0.00154486  0.77088088  0.10459114  1
  Cl  Cl489  1  0.49819332  0.11625631  0.11510840  1
  Cl  Cl490  1  0.50022091  0.44787322  0.11561081  1
  Cl  Cl491  1  0.50893441  0.77497509  0.11454655  1
  Cl  Cl492  1  0.00505996  0.22097529  0.88727616  1
  Cl  Cl493  1  0.00475910  0.55007037  0.88367975  1
  Cl  Cl494  1  -0.00642289  0.88738251  0.88583812  1
  Cl  Cl495  1  0.49971403  0.22064855  0.88019204  1
  Cl  Cl496  1  0.50839997  0.56041433  0.89510281  1
  Cl  Cl497  1  0.49855918  0.88173829  0.87277942  1
  Cl  Cl498  1  -0.00787077  0.11104220  0.39596314  1
  Cl  Cl499  1  -0.00766929  0.44565398  0.38089541  1
  Cl  Cl500  1  -0.00075851  0.78185133  0.37755102  1
  Cl  Cl501  1  0.49318085  0.11617905  0.38067696  1
  Cl  Cl502  1  0.49813650  0.44519306  0.38576436  1
  Cl  Cl503  1  0.50689272  0.77576409  0.39202569  1
  Cl  Cl504  1  0.36084636  0.14487988  0.75319238  1
  Cl  Cl505  1  0.36064646  0.47935874  0.75117112  1
  Cl  Cl506  1  0.35822517  0.81362722  0.74686931  1
  Cl  Cl507  1  0.86195148  0.14527140  0.75089523  1
  Cl  Cl508  1  0.85881450  0.48154373  0.75352131  1
  Cl  Cl509  1  0.85787834  0.81102053  0.74877058  1
  Cl  Cl510  1  0.13694592  0.18747863  0.25012993  1
  Cl  Cl511  1  0.13739263  0.52119937  0.25383302  1
  Cl  Cl512  1  0.13922342  0.85452031  0.25114652  1
  Cl  Cl513  1  0.63859586  0.18731975  0.25325833  1
  Cl  Cl514  1  0.64224410  0.52082570  0.25423674  1
  Cl  Cl515  1  0.63776286  0.85511005  0.24981541  1
  Cl  Cl516  1  0.13687364  0.14437429  0.74422242  1
  Cl  Cl517  1  0.13734972  0.47916117  0.74893287  1
  Cl  Cl518  1  0.13697202  0.81304077  0.74579973  1
  Cl  Cl519  1  0.63772884  0.14533110  0.74876954  1
  Cl  Cl520  1  0.63574728  0.47884731  0.74456937  1
  Cl  Cl521  1  0.64263067  0.81096404  0.75121773  1
  Cl  Cl522  1  0.36028657  0.18567410  0.24983830  1
  Cl  Cl523  1  0.36033672  0.52101003  0.24962903  1
  Cl  Cl524  1  0.36400053  0.85344748  0.24809640  1
  Cl  Cl525  1  0.85888265  0.18541912  0.24956359  1
  Cl  Cl526  1  0.86434806  0.52224586  0.24544375  1
  Cl  Cl527  1  0.85553632  0.85434306  0.24957556  1
  Cl  Cl528  1  0.11112507  0.31279604  0.74802112  1
  Cl  Cl529  1  0.11022594  0.64589534  0.74629587  1
  Cl  Cl530  1  0.10872209  0.97672198  0.74488445  1
  Cl  Cl531  1  0.61069825  0.31242114  0.74974071  1
  Cl  Cl532  1  0.61036228  0.64700072  0.75019920  1
  Cl  Cl533  1  0.61498072  0.97654134  0.74370693  1
  Cl  Cl534  1  0.39014627  0.01968409  0.25354138  1
  Cl  Cl535  1  0.38907645  0.35419513  0.24558160  1
  Cl  Cl536  1  0.39090376  0.68645815  0.24816985  1
  Cl  Cl537  1  0.88961278  0.01838917  0.25545132  1
  Cl  Cl538  1  0.89094408  0.35306722  0.24820263  1
  Cl  Cl539  1  0.88496358  0.68927395  0.24803022  1
  Cl  Cl540  1  0.38866711  0.31272569  0.74962073  1
  Cl  Cl541  1  0.38889981  0.64770309  0.75138850  1
  Cl  Cl542  1  0.39266423  0.97973785  0.74984755  1
  Cl  Cl543  1  0.89136363  0.31502752  0.74971565  1
  Cl  Cl544  1  0.88805481  0.64696619  0.75466667  1
  Cl  Cl545  1  0.88735676  0.97878916  0.74519218  1
  Cl  Cl546  1  0.11221961  0.02092359  0.25257219  1
  Cl  Cl547  1  0.11407179  0.35511103  0.25409414  1
  Cl  Cl548  1  0.10573847  0.68890917  0.24886182  1
  Cl  Cl549  1  0.61257134  0.02039517  0.25128366  1
  Cl  Cl550  1  0.61018765  0.35323238  0.25249528  1
  Cl  Cl551  1  0.61412489  0.68715965  0.25426687  1
