# generated using pymatgen
data_H8PbC4(N3Cl2)2
_symmetry_space_group_name_H-M   'P 1'
_cell_length_a   16.63626318
_cell_length_b   22.52608382
_cell_length_c   21.59598500
_cell_angle_alpha   89.99981033
_cell_angle_beta   90.00582793
_cell_angle_gamma   90.01313629
_symmetry_Int_Tables_number   1
_chemical_formula_structural   H8PbC4(N3Cl2)2
_chemical_formula_sum   'H192 Pb24 C96 N144 Cl96'
_cell_volume   8093.09207381
_cell_formula_units_Z   24
loop_
 _symmetry_equiv_pos_site_id
 _symmetry_equiv_pos_as_xyz
  1  'x, y, z'
loop_
 _atom_site_type_symbol
 _atom_site_label
 _atom_site_symmetry_multiplicity
 _atom_site_fract_x
 _atom_site_fract_y
 _atom_site_fract_z
 _atom_site_occupancy
  H  H0  1  0.00778941  0.02941662  0.68158646  1
  H  H1  1  -0.00516387  0.36301067  0.68238405  1
  H  H2  1  -0.00202520  0.69461160  0.67060175  1
  H  H3  1  0.48222802  0.02459337  0.67696879  1
  H  H4  1  0.50718766  0.35611507  0.67635040  1
  H  H5  1  0.49463172  0.69867831  0.68471727  1
  H  H6  1  -0.00427906  0.30681127  0.17303642  1
  H  H7  1  -0.01485364  0.63407241  0.17688248  1
  H  H8  1  -0.02696797  0.97205954  0.15530493  1
  H  H9  1  0.50250933  0.30749897  0.17365737  1
  H  H10  1  0.50880590  0.64118929  0.17133922  1
  H  H11  1  0.50223620  0.96310124  0.17856854  1
  H  H12  1  0.01117181  0.03618858  0.82068056  1
  H  H13  1  0.00080700  0.36133752  0.82341208  1
  H  H14  1  -0.00826425  0.69611470  0.82339627  1
  H  H15  1  0.49287797  0.03159570  0.81813739  1
  H  H16  1  0.51160080  0.36500514  0.81989736  1
  H  H17  1  0.49471895  0.69506199  0.82876032  1
  H  H18  1  -0.01464984  0.30518024  0.31988044  1
  H  H19  1  -0.00328012  0.64048982  0.32238613  1
  H  H20  1  0.02755981  0.96451179  0.34111690  1
  H  H21  1  0.51083583  0.30285643  0.33023872  1
  H  H22  1  0.50563720  0.63728932  0.32330569  1
  H  H23  1  0.49192051  0.97458925  0.32271271  1
  H  H24  1  0.24723705  0.19772295  0.67600056  1
  H  H25  1  0.27056708  0.52433418  0.67402358  1
  H  H26  1  0.22467145  0.86666146  0.65751874  1
  H  H27  1  0.74910160  0.19396507  0.67692742  1
  H  H28  1  0.73451424  0.52586445  0.67394810  1
  H  H29  1  0.75260872  0.85632406  0.67808045  1
  H  H30  1  0.26038025  0.13022565  0.18391698  1
  H  H31  1  0.25962211  0.47379112  0.17612470  1
  H  H32  1  0.24404164  0.80469539  0.17619491  1
  H  H33  1  0.73518365  0.13975272  0.17398961  1
  H  H34  1  0.74377489  0.47291531  0.17540773  1
  H  H35  1  0.75264709  0.79993052  0.18002167  1
  H  H36  1  0.24674677  0.19346720  0.82568605  1
  H  H37  1  0.25737617  0.53406696  0.81826157  1
  H  H38  1  0.26041072  0.85929701  0.82026773  1
  H  H39  1  0.75197710  0.19459070  0.82831865  1
  H  H40  1  0.75092700  0.52670251  0.82662089  1
  H  H41  1  0.77433686  0.86616661  0.84287451  1
  H  H42  1  0.23503784  0.14098266  0.31863958  1
  H  H43  1  0.25473474  0.47320255  0.32209608  1
  H  H44  1  0.24961585  0.80086798  0.32260568  1
  H  H45  1  0.76091864  0.13685765  0.31957687  1
  H  H46  1  0.75632217  0.47375135  0.32657513  1
  H  H47  1  0.75802551  0.80233137  0.32185861  1
  H  H48  1  0.12686181  0.04897038  0.60580171  1
  H  H49  1  0.13037052  0.38353968  0.62574129  1
  H  H50  1  0.13496018  0.71471032  0.61699499  1
  H  H51  1  0.62325891  0.04984618  0.62566351  1
  H  H52  1  0.62897170  0.38585115  0.60337311  1
  H  H53  1  0.63194369  0.71846215  0.62535690  1
  H  H54  1  0.39523349  0.27796857  0.08978567  1
  H  H55  1  0.36515690  0.62257191  0.12218152  1
  H  H56  1  0.36597424  0.94841902  0.11868550  1
  H  H57  1  0.89111862  0.27344332  0.09005576  1
  H  H58  1  0.86574677  0.61099514  0.10228377  1
  H  H59  1  0.83433114  0.94681989  0.10458733  1
  H  H60  1  0.36831649  0.04426837  0.89119640  1
  H  H61  1  0.38291943  0.38700879  0.88822837  1
  H  H62  1  0.38682911  0.72965304  0.90712489  1
  H  H63  1  0.87297922  0.04971028  0.87582759  1
  H  H64  1  0.88549218  0.38996990  0.90039513  1
  H  H65  1  0.88533523  0.72352854  0.90666838  1
  H  H66  1  0.11716234  0.28211821  0.38384291  1
  H  H67  1  0.12089047  0.61425582  0.39054975  1
  H  H68  1  0.16417881  0.94502170  0.39604845  1
  H  H69  1  0.60946580  0.27326452  0.41667074  1
  H  H70  1  0.61414514  0.60560596  0.40569783  1
  H  H71  1  0.63134878  0.94922942  0.37161418  1
  H  H72  1  0.38280036  0.21911850  0.61874880  1
  H  H73  1  0.37690403  0.55703980  0.59241861  1
  H  H74  1  0.33614474  0.89679175  0.57968347  1
  H  H75  1  0.87703471  0.21977976  0.61019077  1
  H  H76  1  0.87894046  0.55046077  0.63098075  1
  H  H77  1  0.86050630  0.88680436  0.59672830  1
  H  H78  1  0.13155061  0.11197417  0.11827246  1
  H  H79  1  0.11977986  0.45136312  0.12317161  1
  H  H80  1  0.11443125  0.77984966  0.10907320  1
  H  H81  1  0.63546070  0.10538378  0.08747707  1
  H  H82  1  0.62407998  0.44340121  0.10201278  1
  H  H83  1  0.61521268  0.78075177  0.12296656  1
  H  H84  1  0.11087893  0.22029112  0.88108734  1
  H  H85  1  0.13922067  0.55521911  0.89607161  1
  H  H86  1  0.14717080  0.88751022  0.89782953  1
  H  H87  1  0.61534439  0.22340824  0.87930775  1
  H  H88  1  0.64116114  0.55961211  0.90699807  1
  H  H89  1  0.66273361  0.89613914  0.92038698  1
  H  H90  1  0.36707285  0.11546929  0.38102645  1
  H  H91  1  0.37182384  0.44520515  0.39712133  1
  H  H92  1  0.35674429  0.77510499  0.40447557  1
  H  H93  1  0.86663212  0.10810908  0.40246956  1
  H  H94  1  0.86655755  0.44094723  0.40547166  1
  H  H95  1  0.87004345  0.77423139  0.39908513  1
  H  H96  1  0.36814945  0.28875850  0.37602570  1
  H  H97  1  0.36824933  0.61475117  0.38021458  1
  H  H98  1  0.38796949  0.94164246  0.40522122  1
  H  H99  1  0.86924461  0.27721062  0.39853042  1
  H  H100  1  0.87202612  0.61552563  0.39016943  1
  H  H101  1  0.91704487  0.93259917  0.41856331  1
  H  H102  1  0.11816745  0.05837776  0.90260268  1
  H  H103  1  0.13305537  0.38458791  0.88454060  1
  H  H104  1  0.13085853  0.71460010  0.87918729  1
  H  H105  1  0.61433709  0.06256993  0.88788400  1
  H  H106  1  0.63095757  0.39116585  0.89593336  1
  H  H107  1  0.63300627  0.71865963  0.88316209  1
  H  H108  1  0.13477118  0.28247465  0.12030211  1
  H  H109  1  0.11409038  0.61548330  0.11283450  1
  H  H110  1  0.08063850  0.93424060  0.07664092  1
  H  H111  1  0.63995848  0.28093403  0.11942739  1
  H  H112  1  0.60778007  0.60306900  0.08719622  1
  H  H113  1  0.61042878  0.93851720  0.09591225  1
  H  H114  1  0.37842113  0.05888638  0.59484417  1
  H  H115  1  0.38071021  0.38693498  0.60940258  1
  H  H116  1  0.38475379  0.72253296  0.60286820  1
  H  H117  1  0.88027285  0.05892638  0.61712918  1
  H  H118  1  0.88318365  0.38613438  0.60223431  1
  H  H119  1  0.88898825  0.72582785  0.59152322  1
  H  H120  1  0.11837016  0.11424470  0.39424304  1
  H  H121  1  0.12367193  0.44842608  0.38582416  1
  H  H122  1  0.10984506  0.78302183  0.37576540  1
  H  H123  1  0.62165603  0.12021105  0.37162242  1
  H  H124  1  0.61994635  0.44488837  0.38007544  1
  H  H125  1  0.62377375  0.78362783  0.37884092  1
  H  H126  1  0.35738112  0.22391077  0.90562835  1
  H  H127  1  0.38740950  0.55594055  0.88292606  1
  H  H128  1  0.39404058  0.88333705  0.88151815  1
  H  H129  1  0.85959236  0.22502947  0.90982784  1
  H  H130  1  0.88684328  0.55182627  0.88414201  1
  H  H131  1  0.90959957  0.88591076  0.89915873  1
  H  H132  1  0.38055068  0.11515242  0.10858901  1
  H  H133  1  0.36560034  0.44270152  0.09422847  1
  H  H134  1  0.36272025  0.77683036  0.10210698  1
  H  H135  1  0.87784226  0.11494678  0.12588154  1
  H  H136  1  0.87246562  0.44778341  0.10892826  1
  H  H137  1  0.86165752  0.77386784  0.09635317  1
  H  H138  1  0.13412448  0.22423396  0.59828302  1
  H  H139  1  0.13150668  0.54970682  0.62068130  1
  H  H140  1  0.08823370  0.88731046  0.60161794  1
  H  H141  1  0.62828142  0.22339026  0.60631392  1
  H  H142  1  0.63777352  0.55971284  0.58629454  1
  H  H143  1  0.61593010  0.88176148  0.62567368  1
  H  H144  1  0.46474617  0.91516785  0.50634437  1
  H  H145  1  0.21089647  0.92170532  1.00219801  1
  H  H146  1  0.72373693  0.92505183  1.02766382  1
  H  H147  1  0.43517948  0.03408634  0.99606344  1
  H  H148  1  0.10707536  0.41087503  0.51182515  1
  H  H149  1  0.79593734  0.08184745  0.50716645  1
  H  H150  1  0.28759931  0.25552365  1.00578062  1
  H  H151  1  0.36657637  0.25659863  0.49878537  1
  H  H152  1  0.01047648  0.90819428  -0.02449529  1
  H  H153  1  0.27469905  0.92411235  0.47255342  1
  H  H154  1  0.45561747  0.09371073  0.49459828  1
  H  H155  1  0.47133827  0.24831557  -0.00872393  1
  H  H156  1  0.94723587  0.41241860  0.49458077  1
  H  H157  1  0.64869279  0.74859404  0.49230396  1
  H  H158  1  0.93854457  0.11572926  0.52811844  1
  H  H159  1  0.15705770  0.74830238  0.00550626  1
  H  H160  1  0.53926282  0.57844716  0.50501871  1
  H  H161  1  0.04736723  0.08283837  1.01100892  1
  H  H162  1  0.37836185  0.58468371  0.01486535  1
  H  H163  1  0.79497798  0.40940033  0.50533944  1
  H  H164  1  0.17001117  0.09089217  0.00313723  1
  H  H165  1  0.28636929  0.74587024  0.51004842  1
  H  H166  1  0.71431077  0.58420199  1.00829713  1
  H  H167  1  0.17618657  0.09635782  0.50481854  1
  H  H168  1  0.72371729  0.58673531  0.49058140  1
  H  H169  1  0.29436496  0.41003081  -0.00822093  1
  H  H170  1  0.97011740  0.24636202  -0.00904992  1
  H  H171  1  0.52473503  0.58479751  -0.01186750  1
  H  H172  1  0.13842549  0.42118726  0.01361462  1
  H  H173  1  0.05913594  0.05065665  0.50149642  1
  H  H174  1  0.32948687  0.10298806  -0.00399880  1
  H  H175  1  0.07782721  0.58493839  -0.00041936  1
  H  H176  1  0.07812530  0.58536888  0.50067141  1
  H  H177  1  0.45393309  0.75216616  0.49853979  1
  H  H178  1  0.19693080  0.25989100  0.49273806  1
  H  H179  1  0.54984640  0.10991008  0.97949566  1
  H  H180  1  0.32884932  0.09886087  0.49119817  1
  H  H181  1  0.71963421  0.07871219  -0.00869054  1
  H  H182  1  0.91266653  0.58892519  0.50172308  1
  H  H183  1  0.97812488  0.89937432  0.52321748  1
  H  H184  1  0.53769613  0.91378499  -0.00648880  1
  H  H185  1  0.11804124  0.75069083  0.49930499  1
  H  H186  1  0.60991012  0.75196050  0.99205457  1
  H  H187  1  0.78583951  0.25257140  1.01053892  1
  H  H188  1  0.82557581  0.41901535  0.00332097  1
  H  H189  1  0.79038853  0.91150043  0.49532848  1
  H  H190  1  0.63778975  0.09393573  0.48727035  1
  H  H191  1  0.63667995  0.91334021  0.51120759  1
  Pb  Pb192  1  0.25492733  0.05152887  0.74834800  1
  Pb  Pb193  1  0.25622281  0.38346141  0.75273243  1
  Pb  Pb194  1  0.25782554  0.71562321  0.75286638  1
  Pb  Pb195  1  0.75150198  0.04649180  0.75518313  1
  Pb  Pb196  1  0.75873579  0.38427242  0.74886119  1
  Pb  Pb197  1  0.76113338  0.71882618  0.74837944  1
  Pb  Pb198  1  0.25052891  0.28426305  0.24026155  1
  Pb  Pb199  1  0.24412769  0.61848932  0.25126282  1
  Pb  Pb200  1  0.23618983  0.94891878  0.23592384  1
  Pb  Pb201  1  0.74865031  0.28352628  0.25417189  1
  Pb  Pb202  1  0.73726979  0.61430840  0.24947300  1
  Pb  Pb203  1  0.75415222  0.95162877  0.26713686  1
  Pb  Pb204  1  0.00027556  0.21520089  0.75169335  1
  Pb  Pb205  1  0.00986129  0.54999224  0.75441975  1
  Pb  Pb206  1  0.00735951  0.88106704  0.75477413  1
  Pb  Pb207  1  0.50414235  0.21617956  0.75933849  1
  Pb  Pb208  1  0.51272840  0.55245757  0.74240913  1
  Pb  Pb209  1  0.50396853  0.88083049  0.75575471  1
  Pb  Pb210  1  -0.00315040  0.11633627  0.26087260  1
  Pb  Pb211  1  -0.00411161  0.45047473  0.25454066  1
  Pb  Pb212  1  -0.01064298  0.78209888  0.24041803  1
  Pb  Pb213  1  0.49710774  0.11343770  0.23983020  1
  Pb  Pb214  1  0.49212812  0.44838910  0.24503925  1
  Pb  Pb215  1  0.49123904  0.78622350  0.25399082  1
  C  C216  1  0.00481400  0.04524961  0.63412601  1
  C  C217  1  0.00318192  0.37671031  0.63459900  1
  C  C218  1  0.00789373  0.71174821  0.62421920  1
  C  C219  1  0.49511261  0.04364630  0.63180849  1
  C  C220  1  0.50581117  0.37466709  0.63002028  1
  C  C221  1  0.50424105  0.71266915  0.63714985  1
  C  C222  1  0.00727111  0.28885144  0.12730985  1
  C  C223  1  -0.01110828  0.62036707  0.12895562  1
  C  C224  1  -0.03710358  0.95238976  0.10994253  1
  C  C225  1  0.51241604  0.28998896  0.12746173  1
  C  C226  1  0.49376397  0.62345455  0.12590094  1
  C  C227  1  0.49289075  0.94929526  0.13106440  1
  C  C228  1  0.00047634  0.04825365  0.86858493  1
  C  C229  1  0.00635378  0.37831122  0.87004148  1
  C  C230  1  0.00303162  0.71100502  0.87011523  1
  C  C231  1  0.49166715  0.04537065  0.86625597  1
  C  C232  1  0.50859072  0.38068772  0.86733667  1
  C  C233  1  0.50533533  0.71404552  0.87407034  1
  C  C234  1  -0.00959014  0.28864788  0.36697463  1
  C  C235  1  -0.00356978  0.62372833  0.36958182  1
  C  C236  1  0.03667342  0.94803935  0.38792605  1
  C  C237  1  0.49546706  0.28805548  0.37649940  1
  C  C238  1  0.49639408  0.62064218  0.36990419  1
  C  C239  1  0.50389080  0.95684754  0.36843038  1
  C  C240  1  0.25445956  0.21414016  0.62902963  1
  C  C241  1  0.25936240  0.54275316  0.62861822  1
  C  C242  1  0.21572787  0.88292811  0.61052748  1
  C  C243  1  0.75169799  0.21210195  0.63063817  1
  C  C244  1  0.75025640  0.54354250  0.62878670  1
  C  C245  1  0.74284201  0.87266229  0.63130538  1
  C  C246  1  0.25739665  0.11933364  0.13496914  1
  C  C247  1  0.24758879  0.45679212  0.12988620  1
  C  C248  1  0.23992200  0.78789666  0.12930620  1
  C  C249  1  0.74928726  0.12169193  0.12868274  1
  C  C250  1  0.74713831  0.45515936  0.12888675  1
  C  C251  1  0.74336679  0.78480604  0.13303725  1
  C  C252  1  0.23846083  0.21129854  0.87183784  1
  C  C253  1  0.26129930  0.54772607  0.86614592  1
  C  C254  1  0.26758487  0.87635631  0.86688182  1
  C  C255  1  0.74220289  0.21251808  0.87426227  1
  C  C256  1  0.75943874  0.54431743  0.87286218  1
  C  C257  1  0.78259720  0.88224086  0.88997671  1
  C  C258  1  0.24085696  0.12558701  0.36613501  1
  C  C259  1  0.24968177  0.45642315  0.36878634  1
  C  C260  1  0.23862268  0.78644031  0.36981489  1
  C  C261  1  0.74921350  0.12276686  0.36689397  1
  C  C262  1  0.74782161  0.45462617  0.37203895  1
  C  C263  1  0.74964871  0.78650998  0.36882222  1
  C  C264  1  0.09436654  0.92020362  0.47657649  1
  C  C265  1  0.83944004  0.90840245  0.97966896  1
  C  C266  1  0.82164583  0.57679230  0.54955137  1
  C  C267  1  0.95475045  0.59738188  0.46328931  1
  C  C268  1  0.68908937  0.41657912  0.45540296  1
  C  C269  1  0.50634179  0.25830833  0.47307980  1
  C  C270  1  0.31099627  0.24274557  0.54156309  1
  C  C271  1  0.15845259  0.90858182  0.52094567  1
  C  C272  1  0.68093893  0.24724279  0.95837518  1
  C  C273  1  1.01188924  0.91537366  0.48339707  1
  C  C274  1  0.05490503  0.40734081  0.95919974  1
  C  C275  1  0.06665021  0.74067756  0.53717627  1
  C  C276  1  0.20906629  0.10094015  0.46161786  1
  C  C277  1  0.68848339  0.76143620  0.04451517  1
  C  C278  1  0.06028355  0.40115227  0.54569467  1
  C  C279  1  0.26594967  0.42396285  0.03481586  1
  C  C280  1  0.48348191  0.75069952  0.96807286  1
  C  C281  1  0.98591314  0.73943243  0.96629310  1
  C  C282  1  0.21095798  0.10075835  0.04092766  1
  C  C283  1  0.27630636  0.57822702  0.53514223  1
  C  C284  1  0.03678907  0.59609533  0.46305158  1
  C  C285  1  0.90174956  0.92086030  0.02505144  1
  C  C286  1  0.56786466  0.92605609  0.45228254  1
  C  C287  1  0.93816935  0.06914292  0.95648123  1
  C  C288  1  0.25668410  0.75863061  0.46707092  1
  C  C289  1  0.95366127  0.59402521  0.03416046  1
  C  C290  1  0.68626044  0.10095378  0.45412102  1
  C  C291  1  0.68349899  0.90408286  0.54639013  1
  C  C292  1  0.77596793  0.75467645  0.46316151  1
  C  C293  1  0.22970337  0.24568725  0.53389401  1
  C  C294  1  0.71840892  0.24678190  0.53968341  1
  C  C295  1  0.48189592  0.07969413  0.53852376  1
  C  C296  1  0.48420457  0.74035457  0.54161990  1
  C  C297  1  0.98569560  0.74459826  0.52983383  1
  C  C298  1  0.03520407  0.59485850  0.03626107  1
  C  C299  1  0.75694953  0.91261673  0.98618931  1
  C  C300  1  0.27880984  0.42418180  0.46170904  1
  C  C301  1  0.24091136  0.91273584  0.51411276  1
  C  C302  1  0.30641950  0.57057685  0.95815749  1
  C  C303  1  0.76695797  0.09555411  0.46437986  1
  C  C304  1  0.18002563  0.24475264  0.95770931  1
  C  C305  1  0.24354659  0.90903682  0.96015513  1
  C  C306  1  0.17616082  0.76196839  0.45633678  1
  C  C307  1  0.29270737  0.10441133  0.03738493  1
  C  C308  1  0.97883381  0.40209385  0.53736673  1
  C  C309  1  0.42700577  0.26392108  0.46044021  1
  C  C310  1  0.69497449  0.75776824  0.45775795  1
  C  C311  1  0.01847836  0.07222224  0.96724192  1
  N  N312  1  -0.01838758  0.91480101  0.01800358  1
  N  N313  1  0.76222917  0.90588278  0.53806700  1
  N  N314  1  0.56271262  0.73827185  0.54904121  1
  N  N315  1  0.51353924  0.58675691  0.46206332  1
  N  N316  1  0.74511519  0.57935173  0.53528222  1
  N  N317  1  0.57357219  0.25817963  0.04298182  1
  N  N318  1  0.27583687  0.75689129  0.03632665  1
  N  N319  1  0.75892396  0.24603719  0.96773673  1
  N  N320  1  0.03884985  0.25858361  0.45656434  1
  N  N321  1  0.25837758  0.24536588  0.96475001  1
  N  N322  1  0.95866873  0.07526577  0.54402537  1
  N  N323  1  0.19790455  0.75805757  0.04058775  1
  N  N324  1  0.04172751  0.07307184  0.54085927  1
  N  N325  1  0.50405932  0.58506799  0.03413094  1
  N  N326  1  0.55962546  0.07759833  0.54941118  1
  N  N327  1  0.78811539  0.42422211  0.04039086  1
  N  N328  1  0.22894508  0.57090998  0.96343401  1
  N  N329  1  0.46465052  0.40904574  0.95882360  1
  N  N330  1  0.74086791  0.08687769  0.03597602  1
  N  N331  1  0.06259538  0.73669089  0.95809767  1
  N  N332  1  0.32241721  0.90813734  0.95491476  1
  N  N333  1  0.42828485  0.59957606  0.04325772  1
  N  N334  1  0.96266878  0.25702865  0.46110632  1
  N  N335  1  0.43375158  0.93149457  0.04148384  1
  N  N336  1  0.44930955  0.06359983  0.96112419  1
  N  N337  1  0.79569313  0.24565491  0.53970093  1
  N  N338  1  0.99342560  0.25321640  0.03530699  1
  N  N339  1  0.97760616  0.40937276  0.96572041  1
  N  N340  1  0.28835889  0.09888423  0.45565501  1
  N  N341  1  0.43625588  0.59009572  0.45507777  1
  N  N342  1  0.19968371  0.57577680  0.54288451  1
  N  N343  1  0.49648211  0.25696904  0.03468556  1
  N  N344  1  0.81730517  0.09055497  0.04734518  1
  N  N345  1  0.54046410  0.40792351  0.53788628  1
  N  N346  1  0.51084602  0.92560738  0.03550259  1
  N  N347  1  0.76717856  0.41759231  0.46368204  1
  N  N348  1  0.81793320  0.57552333  0.95854660  1
  N  N349  1  0.56118038  0.74498828  0.95947353  1
  N  N350  1  0.46449720  0.40837575  0.53969381  1
  N  N351  1  0.49030587  0.92327687  0.46227047  1
  N  N352  1  0.53219182  0.07071178  0.95909763  1
  N  N353  1  0.71020357  0.42299682  0.03658822  1
  N  N354  1  0.20153834  0.42523367  0.45905747  1
  N  N355  1  0.76513967  0.75786682  0.03516842  1
  N  N356  1  0.54093208  0.41037695  0.96126627  1
  N  N357  1  0.74049408  0.57777283  0.96504175  1
  N  N358  1  0.07038624  0.25641016  0.04408505  1
  N  N359  1  0.18757067  0.42746041  0.04553503  1
  N  N360  1  0.06597336  0.04723788  0.59484347  1
  N  N361  1  0.07372201  0.38546479  0.60607361  1
  N  N362  1  0.07897588  0.72043191  0.59693394  1
  N  N363  1  0.56632681  0.05526813  0.60749254  1
  N  N364  1  0.56776880  0.38692304  0.59372049  1
  N  N365  1  0.57367808  0.72090225  0.60856808  1
  N  N366  1  0.45778423  0.27828925  0.08471165  1
  N  N367  1  0.42116944  0.61502932  0.10263204  1
  N  N368  1  0.42278799  0.94412970  0.10156996  1
  N  N369  1  0.95359858  0.27594145  0.08416809  1
  N  N370  1  0.92580319  0.60936384  0.09013116  1
  N  N371  1  0.89084677  0.94198853  0.08379014  1
  N  N372  1  0.42875375  0.04276177  0.90351422  1
  N  N373  1  0.44321005  0.39061274  0.90071112  1
  N  N374  1  0.44840789  0.73154605  0.91540939  1
  N  N375  1  0.92802557  0.05490813  0.89684581  1
  N  N376  1  0.94736449  0.39071584  0.90871128  1
  N  N377  1  0.94717206  0.72439307  0.91338739  1
  N  N378  1  0.05737836  0.27803609  0.39826706  1
  N  N379  1  0.06106832  0.61236957  0.40457836  1
  N  N380  1  0.10729865  0.94088617  0.41612463  1
  N  N381  1  0.54759138  0.27279912  0.42194181  1
  N  N382  1  0.55184565  0.60780365  0.41172357  1
  N  N383  1  0.57717899  0.94535953  0.39349769  1
  N  N384  1  0.32512070  0.22383635  0.60031348  1
  N  N385  1  0.31544339  0.55857872  0.58632553  1
  N  N386  1  0.27385267  0.89676593  0.56988549  1
  N  N387  1  0.81677443  0.22397261  0.59784571  1
  N  N388  1  0.82505633  0.55610094  0.60795347  1
  N  N389  1  0.79846689  0.88276329  0.58888078  1
  N  N390  1  0.19035474  0.11026470  0.10171813  1
  N  N391  1  0.17681605  0.44898919  0.10354525  1
  N  N392  1  0.17452757  0.77716059  0.09652094  1
  N  N393  1  0.69787839  0.10804837  0.08403624  1
  N  N394  1  0.68516409  0.44061799  0.09271024  1
  N  N395  1  0.67241276  0.77726675  0.10436920  1
  N  N396  1  0.16752201  0.22454339  0.89975383  1
  N  N397  1  0.20111607  0.55634972  0.90478953  1
  N  N398  1  0.20866545  0.89018382  0.90653537  1
  N  N399  1  0.67048136  0.22753990  0.90002627  1
  N  N400  1  0.70316428  0.55634115  0.91437497  1
  N  N401  1  0.72422263  0.89623841  0.93037490  1
  N  N402  1  0.30792120  0.11757394  0.39771360  1
  N  N403  1  0.31074657  0.44267966  0.40737206  1
  N  N404  1  0.29463090  0.77445029  0.41227114  1
  N  N405  1  0.80486278  0.10939851  0.40965179  1
  N  N406  1  0.80454771  0.44281538  0.41315871  1
  N  N407  1  0.80877386  0.77191937  0.40965044  1
  N  N408  1  0.42152573  0.28190289  0.39969929  1
  N  N409  1  0.42615930  0.60971293  0.39708043  1
  N  N410  1  0.45023285  0.94493166  0.41160252  1
  N  N411  1  0.93118780  0.27554957  0.40574949  1
  N  N412  1  0.93119912  0.61412978  0.40453087  1
  N  N413  1  0.97869393  0.93302351  0.42829619  1
  N  N414  1  0.05668085  0.05892086  0.91137470  1
  N  N415  1  0.07498842  0.38921727  0.90087401  1
  N  N416  1  0.07335411  0.71863775  0.89712095  1
  N  N417  1  0.55320583  0.06553451  0.89863225  1
  N  N418  1  0.56962691  0.39311771  0.90460582  1
  N  N419  1  0.57543882  0.72220874  0.90139190  1
  N  N420  1  0.07841347  0.27640348  0.10241095  1
  N  N421  1  0.05571444  0.61138514  0.09627003  1
  N  N422  1  0.01865163  0.93820162  0.06878916  1
  N  N423  1  0.58299784  0.27713343  0.10156682  1
  N  N424  1  0.54575608  0.60898798  0.08168218  1
  N  N425  1  0.54840469  0.93687052  0.08935611  1
  N  N426  1  0.44057674  0.05921521  0.58890570  1
  N  N427  1  0.44129088  0.38767235  0.59665320  1
  N  N428  1  0.44694942  0.72481194  0.59534026  1
  N  N429  1  0.94043566  0.06394465  0.60434791  1
  N  N430  1  0.94461237  0.38682630  0.59314144  1
  N  N431  1  0.95064058  0.72723447  0.58257820  1
  N  N432  1  0.17918180  0.11530241  0.40547373  1
  N  N433  1  0.18303591  0.44581360  0.40007591  1
  N  N434  1  0.16607669  0.77880615  0.39650720  1
  N  N435  1  0.67674338  0.11755418  0.39357816  1
  N  N436  1  0.67692428  0.43917867  0.39858845  1
  N  N437  1  0.67991607  0.77739009  0.39779388  1
  N  N438  1  0.29535287  0.22301333  0.91275836  1
  N  N439  1  0.32898910  0.55688426  0.89893171  1
  N  N440  1  0.33568456  0.88744330  0.89666896  1
  N  N441  1  0.79753720  0.22215164  0.91695253  1
  N  N442  1  0.82909464  0.55650775  0.90030780  1
  N  N443  1  0.85293657  0.88935740  0.91880306  1
  N  N444  1  0.32038339  0.11560557  0.09633606  1
  N  N445  1  0.30363091  0.44157146  0.08727567  1
  N  N446  1  0.30159644  0.77526956  0.09206320  1
  N  N447  1  0.82189397  0.11041210  0.10568044  1
  N  N448  1  0.81236308  0.44557966  0.09545495  1
  N  N449  1  0.79920124  0.77261879  0.09153699  1
  N  N450  1  0.19548714  0.22738848  0.58937769  1
  N  N451  1  0.18916831  0.55340064  0.60251112  1
  N  N452  1  0.14515892  0.88958353  0.58193254  1
  N  N453  1  0.68860323  0.22665298  0.59434807  1
  N  N454  1  0.70014935  0.55552788  0.58298434  1
  N  N455  1  0.67127563  0.88511539  0.60508962  1
  Cl  Cl456  1  0.25240573  0.06155086  0.60747167  1
  Cl  Cl457  1  0.25904506  0.39166087  0.62382494  1
  Cl  Cl458  1  0.26508061  0.71868917  0.61799059  1
  Cl  Cl459  1  0.75868280  0.05269490  0.62277554  1
  Cl  Cl460  1  0.75716661  0.39239944  0.60796632  1
  Cl  Cl461  1  0.76521783  0.72233012  0.61396756  1
  Cl  Cl462  1  0.27490873  0.27885503  0.10098936  1
  Cl  Cl463  1  0.24141019  0.61418441  0.12054575  1
  Cl  Cl464  1  0.20255247  0.93900869  0.10278443  1
  Cl  Cl465  1  0.77208687  0.27144651  0.10640612  1
  Cl  Cl466  1  0.72847061  0.60213580  0.10583139  1
  Cl  Cl467  1  0.72035259  0.94909761  0.13034087  1
  Cl  Cl468  1  0.24494122  0.05872013  0.88367040  1
  Cl  Cl469  1  0.25944387  0.38531814  0.88915878  1
  Cl  Cl470  1  0.26160622  0.72294217  0.88434059  1
  Cl  Cl471  1  0.73390405  0.05995854  0.89510032  1
  Cl  Cl472  1  0.76020691  0.38932692  0.88472081  1
  Cl  Cl473  1  0.75981020  0.72178412  0.88051036  1
  Cl  Cl474  1  0.23722833  0.28339248  0.37141713  1
  Cl  Cl475  1  0.24455104  0.61190679  0.38180175  1
  Cl  Cl476  1  0.27859500  0.95042926  0.37121300  1
  Cl  Cl477  1  0.74170380  0.27878951  0.38642330  1
  Cl  Cl478  1  0.73523047  0.60410364  0.39523907  1
  Cl  Cl479  1  0.79254557  0.93472376  0.40042619  1
  Cl  Cl480  1  0.00493974  0.21346736  0.62035502  1
  Cl  Cl481  1  0.00638001  0.55668084  0.62331557  1
  Cl  Cl482  1  -0.02865305  0.89453193  0.62536419  1
  Cl  Cl483  1  0.50704811  0.21660450  0.62909778  1
  Cl  Cl484  1  0.51511244  0.56151548  0.60238908  1
  Cl  Cl485  1  0.45684406  0.89666166  0.59678338  1
  Cl  Cl486  1  0.00661585  0.10918295  0.12823248  1
  Cl  Cl487  1  -0.00576106  0.44968341  0.12260675  1
  Cl  Cl488  1  -0.01150253  0.77862381  0.10456317  1
  Cl  Cl489  1  0.51170612  0.10575103  0.10125738  1
  Cl  Cl490  1  0.49516644  0.44694890  0.11310548  1
  Cl  Cl491  1  0.48803578  0.77595837  0.11827459  1
  Cl  Cl492  1  -0.02020586  0.22846073  0.89523093  1
  Cl  Cl493  1  0.01532801  0.55448017  0.88798131  1
  Cl  Cl494  1  0.03116364  0.88505730  0.88870641  1
  Cl  Cl495  1  0.47950423  0.21916027  0.90063603  1
  Cl  Cl496  1  0.52041106  0.56900316  0.89399675  1
  Cl  Cl497  1  0.53981788  0.89411892  0.89669436  1
  Cl  Cl498  1  -0.00633384  0.10046425  0.39791780  1
  Cl  Cl499  1  -0.01044944  0.43969225  0.38952264  1
  Cl  Cl500  1  -0.01408750  0.77945429  0.37106550  1
  Cl  Cl501  1  0.48831235  0.10580162  0.37428430  1
  Cl  Cl502  1  0.49473298  0.44778461  0.37724778  1
  Cl  Cl503  1  0.48012241  0.77754091  0.38851478  1
  Cl  Cl504  1  0.35351662  0.14923984  0.75259326  1
  Cl  Cl505  1  0.36440944  0.48338550  0.75518079  1
  Cl  Cl506  1  0.37027632  0.81682762  0.75323909  1
  Cl  Cl507  1  0.85951534  0.14893619  0.75407521  1
  Cl  Cl508  1  0.85918878  0.48358291  0.74780261  1
  Cl  Cl509  1  0.85110684  0.82074555  0.75871386  1
  Cl  Cl510  1  0.13563868  0.18556558  0.24405124  1
  Cl  Cl511  1  0.13224241  0.51807894  0.25376232  1
  Cl  Cl512  1  0.13270725  0.85543763  0.25944742  1
  Cl  Cl513  1  0.63425397  0.18475808  0.24787312  1
  Cl  Cl514  1  0.63965090  0.51931514  0.25336269  1
  Cl  Cl515  1  0.63220913  0.85584058  0.26580449  1
  Cl  Cl516  1  0.13413938  0.14591515  0.75363810  1
  Cl  Cl517  1  0.14192586  0.48206328  0.74537385  1
  Cl  Cl518  1  0.14637617  0.81728917  0.73893942  1
  Cl  Cl519  1  0.63744177  0.14565083  0.76083212  1
  Cl  Cl520  1  0.63885902  0.47997336  0.75240404  1
  Cl  Cl521  1  0.62564566  0.80603203  0.73479052  1
  Cl  Cl522  1  0.36042226  0.18232983  0.25305685  1
  Cl  Cl523  1  0.35581540  0.51696105  0.24644528  1
  Cl  Cl524  1  0.35238736  0.85016760  0.23888111  1
  Cl  Cl525  1  0.85784189  0.18078990  0.24790048  1
  Cl  Cl526  1  0.85691613  0.51835739  0.25219616  1
  Cl  Cl527  1  0.85128665  0.84730765  0.24055888  1
  Cl  Cl528  1  0.11815575  0.31200697  0.75349216  1
  Cl  Cl529  1  0.11734150  0.65110632  0.75121687  1
  Cl  Cl530  1  0.10645483  0.98095368  0.74636990  1
  Cl  Cl531  1  0.61259710  0.31083286  0.75480721  1
  Cl  Cl532  1  0.61773345  0.64307674  0.74896101  1
  Cl  Cl533  1  0.61623606  0.97911596  0.73706181  1
  Cl  Cl534  1  0.38621260  0.01789522  0.23004667  1
  Cl  Cl535  1  0.39262775  0.34632191  0.25333079  1
  Cl  Cl536  1  0.38532321  0.68196047  0.24975443  1
  Cl  Cl537  1  0.89245174  0.01271905  0.23974636  1
  Cl  Cl538  1  0.88919563  0.34709764  0.24443983  1
  Cl  Cl539  1  0.88819139  0.68205525  0.24767476  1
  Cl  Cl540  1  0.39068351  0.31453336  0.75318852  1
  Cl  Cl541  1  0.39716182  0.64955215  0.75847906  1
  Cl  Cl542  1  0.39147214  0.98172185  0.75490539  1
  Cl  Cl543  1  0.89496753  0.31905191  0.75174058  1
  Cl  Cl544  1  0.89714329  0.65098305  0.74866449  1
  Cl  Cl545  1  0.88696471  0.97768001  0.76953385  1
  Cl  Cl546  1  0.11455827  0.01994807  0.27001820  1
  Cl  Cl547  1  0.11515899  0.35438109  0.23707985  1
  Cl  Cl548  1  0.10962257  0.68806028  0.24615715  1
  Cl  Cl549  1  0.61544598  0.01995560  0.26514597  1
  Cl  Cl550  1  0.61397178  0.35262934  0.24393895  1
  Cl  Cl551  1  0.60565399  0.68569597  0.24756206  1
