# generated using pymatgen
data_H8PbC4(N3Cl2)2
_symmetry_space_group_name_H-M   'P 1'
_cell_length_a   16.63902680
_cell_length_b   22.54046995
_cell_length_c   21.60519625
_cell_angle_alpha   90.00489036
_cell_angle_beta   89.99000574
_cell_angle_gamma   89.99731626
_symmetry_Int_Tables_number   1
_chemical_formula_structural   H8PbC4(N3Cl2)2
_chemical_formula_sum   'H192 Pb24 C96 N144 Cl96'
_cell_volume   8103.06073936
_cell_formula_units_Z   24
loop_
 _symmetry_equiv_pos_site_id
 _symmetry_equiv_pos_as_xyz
  1  'x, y, z'
loop_
 _atom_site_type_symbol
 _atom_site_label
 _atom_site_symmetry_multiplicity
 _atom_site_fract_x
 _atom_site_fract_y
 _atom_site_fract_z
 _atom_site_occupancy
  H  H0  1  -0.00829120  0.03105179  0.67518741  1
  H  H1  1  -0.01594343  0.36989740  0.68350041  1
  H  H2  1  -0.01241845  0.68340810  0.67276582  1
  H  H3  1  0.50990196  0.02772781  0.67593999  1
  H  H4  1  0.51390661  0.35737694  0.67244602  1
  H  H5  1  0.49039662  0.68996701  0.68301727  1
  H  H6  1  -0.01872121  0.30261675  0.15489318  1
  H  H7  1  0.00626915  0.63986141  0.17705676  1
  H  H8  1  0.00024096  0.97205295  0.17163860  1
  H  H9  1  0.46880095  0.30611867  0.18320769  1
  H  H10  1  0.51396448  0.63700209  0.18252408  1
  H  H11  1  0.50810741  0.97830345  0.17425917  1
  H  H12  1  0.01163341  0.02308626  0.82666330  1
  H  H13  1  -0.02610584  0.37201216  0.84198943  1
  H  H14  1  0.00081291  0.69411182  0.82153681  1
  H  H15  1  0.51881827  0.03474396  0.82305886  1
  H  H16  1  0.49325050  0.36364684  0.82467493  1
  H  H17  1  0.50126588  0.69791513  0.82749396  1
  H  H18  1  -0.00928105  0.29557096  0.31087910  1
  H  H19  1  0.00539063  0.64421450  0.32930301  1
  H  H20  1  0.02415932  0.97031755  0.34551543  1
  H  H21  1  0.49976218  0.31303961  0.32893299  1
  H  H22  1  0.48690724  0.64086874  0.33125316  1
  H  H23  1  0.51247160  0.97481549  0.31465997  1
  H  H24  1  0.23120472  0.19284808  0.67398480  1
  H  H25  1  0.23947448  0.52965648  0.66745558  1
  H  H26  1  0.22239376  0.86843227  0.65955356  1
  H  H27  1  0.76801168  0.19036483  0.67751809  1
  H  H28  1  0.75855283  0.53371268  0.67137496  1
  H  H29  1  0.74888550  0.86167721  0.68237146  1
  H  H30  1  0.24990032  0.13738330  0.18381011  1
  H  H31  1  0.25182139  0.47154699  0.17968637  1
  H  H32  1  0.23867304  0.81329904  0.16907877  1
  H  H33  1  0.75052022  0.13356490  0.18166666  1
  H  H34  1  0.77620233  0.46893596  0.15099020  1
  H  H35  1  0.75714130  0.80731703  0.17551862  1
  H  H36  1  0.27675015  0.19082565  0.81978389  1
  H  H37  1  0.24751949  0.53463733  0.81891212  1
  H  H38  1  0.26198557  0.86613435  0.82145381  1
  H  H39  1  0.76793037  0.19212229  0.84978658  1
  H  H40  1  0.75134637  0.52862163  0.81976303  1
  H  H41  1  0.73626689  0.85954974  0.82212285  1
  H  H42  1  0.24915011  0.14209494  0.32191884  1
  H  H43  1  0.24013232  0.48052042  0.32171963  1
  H  H44  1  0.26329136  0.80336548  0.31763633  1
  H  H45  1  0.73473880  0.13521948  0.32357045  1
  H  H46  1  0.75808123  0.48391070  0.32928184  1
  H  H47  1  0.75720166  0.80932649  0.32429310  1
  H  H48  1  0.13150994  0.04966940  0.61991733  1
  H  H49  1  0.12819046  0.38111910  0.63550450  1
  H  H50  1  0.12821015  0.71157494  0.62472630  1
  H  H51  1  0.63348940  0.05655104  0.60735245  1
  H  H52  1  0.62646336  0.39077982  0.59607730  1
  H  H53  1  0.62716848  0.71334505  0.62555452  1
  H  H54  1  0.35433675  0.28869747  0.10169307  1
  H  H55  1  0.37555873  0.61546413  0.12588671  1
  H  H56  1  0.37171871  0.94902894  0.12240163  1
  H  H57  1  0.84369976  0.28266542  0.10238619  1
  H  H58  1  0.87069924  0.61527237  0.11927254  1
  H  H59  1  0.86805768  0.94519706  0.11097396  1
  H  H60  1  0.37988347  0.04496399  0.87471114  1
  H  H61  1  0.35750939  0.38810579  0.87914238  1
  H  H62  1  0.36759004  0.72246206  0.88725082  1
  H  H63  1  0.87109218  0.04929151  0.87576234  1
  H  H64  1  0.83826354  0.39218574  0.89757993  1
  H  H65  1  0.86232218  0.71871047  0.87611374  1
  H  H66  1  0.12252294  0.28384447  0.37529087  1
  H  H67  1  0.13075021  0.61199055  0.39618896  1
  H  H68  1  0.16328613  0.94728097  0.39605132  1
  H  H69  1  0.62198539  0.28076112  0.39920790  1
  H  H70  1  0.62699391  0.61893061  0.37839878  1
  H  H71  1  0.63843211  0.94821602  0.38500129  1
  H  H72  1  0.37774979  0.21617102  0.63298732  1
  H  H73  1  0.36794148  0.54996511  0.60383836  1
  H  H74  1  0.33569891  0.89742530  0.58396985  1
  H  H75  1  0.86274612  0.22264544  0.58910169  1
  H  H76  1  0.86141528  0.56391665  0.58820850  1
  H  H77  1  0.85356980  0.89303675  0.60149554  1
  H  H78  1  0.13362280  0.10818991  0.10600468  1
  H  H79  1  0.14140138  0.44424024  0.10080814  1
  H  H80  1  0.14234749  0.77282102  0.08489912  1
  H  H81  1  0.63234492  0.10807815  0.10511776  1
  H  H82  1  0.67148182  0.43309943  0.06991708  1
  H  H83  1  0.64137993  0.77652894  0.10116568  1
  H  H84  1  0.14438722  0.21830370  0.87725723  1
  H  H85  1  0.13246131  0.55650816  0.89647684  1
  H  H86  1  0.13365766  0.89125936  0.88975582  1
  H  H87  1  0.66486134  0.23569376  0.92909122  1
  H  H88  1  0.63911490  0.55854589  0.90043588  1
  H  H89  1  0.63494620  0.89150577  0.90712694  1
  H  H90  1  0.36124273  0.10948566  0.39975431  1
  H  H91  1  0.37107101  0.45180174  0.38443024  1
  H  H92  1  0.37116427  0.77439259  0.39722511  1
  H  H93  1  0.86471284  0.11155952  0.38852885  1
  H  H94  1  0.86036028  0.44686987  0.41341468  1
  H  H95  1  0.86390776  0.77254097  0.40505695  1
  H  H96  1  0.37420742  0.27916980  0.39509308  1
  H  H97  1  0.38319161  0.60680029  0.41277870  1
  H  H98  1  0.39036041  0.94871680  0.38802145  1
  H  H99  1  0.87464147  0.27363337  0.39020159  1
  H  H100  1  0.88175728  0.61012479  0.39486098  1
  H  H101  1  0.91862076  0.93174863  0.42502175  1
  H  H102  1  0.11564392  0.05889723  0.90882641  1
  H  H103  1  0.08546325  0.39690299  0.92177813  1
  H  H104  1  0.10875468  0.72622631  0.90132843  1
  H  H105  1  0.62311254  0.06374473  0.90631455  1
  H  H106  1  0.60240444  0.39353033  0.90453313  1
  H  H107  1  0.61399384  0.72573912  0.90584371  1
  H  H108  1  0.08892817  0.26960834  0.07580131  1
  H  H109  1  0.11864485  0.61078147  0.09947201  1
  H  H110  1  0.11583241  0.93805348  0.09853103  1
  H  H111  1  0.59829383  0.27223980  0.12508443  1
  H  H112  1  0.62192719  0.60978899  0.10012927  1
  H  H113  1  0.61690829  0.94343490  0.09495286  1
  H  H114  1  0.38442387  0.04919106  0.60876433  1
  H  H115  1  0.37942004  0.38180001  0.61714270  1
  H  H116  1  0.38095319  0.71716434  0.60220774  1
  H  H117  1  0.88698614  0.06112489  0.59090942  1
  H  H118  1  0.88612416  0.39832943  0.59359830  1
  H  H119  1  0.88559775  0.72198560  0.58954889  1
  H  H120  1  0.11409088  0.11749791  0.37991817  1
  H  H121  1  0.12402903  0.44985155  0.39847914  1
  H  H122  1  0.12570631  0.78209881  0.37024396  1
  H  H123  1  0.61627042  0.10807813  0.39778090  1
  H  H124  1  0.61722476  0.45362511  0.37683142  1
  H  H125  1  0.61874392  0.78285124  0.37410275  1
  H  H126  1  0.39086818  0.21479337  0.90109315  1
  H  H127  1  0.37931694  0.55183020  0.87928954  1
  H  H128  1  0.38185414  0.89158371  0.89728118  1
  H  H129  1  0.90848203  0.21851911  0.89515571  1
  H  H130  1  0.88596955  0.55219767  0.88084007  1
  H  H131  1  0.87845506  0.88450535  0.87070988  1
  H  H132  1  0.38128920  0.11299833  0.11890741  1
  H  H133  1  0.38724038  0.44961017  0.12038511  1
  H  H134  1  0.38239991  0.78801467  0.12792912  1
  H  H135  1  0.88033613  0.11141919  0.11618310  1
  H  H136  1  0.91647133  0.44367253  0.09906848  1
  H  H137  1  0.88914619  0.78037257  0.11393879  1
  H  H138  1  0.13817582  0.22528440  0.58513901  1
  H  H139  1  0.11961845  0.55695120  0.59730864  1
  H  H140  1  0.08894898  0.88722213  0.60100422  1
  H  H141  1  0.62214571  0.21658715  0.63610898  1
  H  H142  1  0.61803119  0.54495490  0.62081995  1
  H  H143  1  0.60891742  0.88190991  0.63243815  1
  H  H144  1  0.54563593  0.76541613  1.00183386  1
  H  H145  1  0.77959123  0.25288655  0.49117016  1
  H  H146  1  0.05470208  0.57532808  -0.00512071  1
  H  H147  1  0.74712003  0.41313256  -0.03064616  1
  H  H148  1  0.88542180  0.74560415  0.98570559  1
  H  H149  1  0.54420214  0.21135297  0.03830815  1
  H  H150  1  0.39319757  0.07634564  -0.00970612  1
  H  H151  1  0.98988487  0.90934134  0.52677546  1
  H  H152  1  0.77771897  0.41519758  0.50849031  1
  H  H153  1  0.22723614  0.74582272  -0.01148635  1
  H  H154  1  0.04014429  0.76083754  1.00392531  1
  H  H155  1  0.73975167  0.26095965  1.02837752  1
  H  H156  1  0.02434091  0.24050918  -0.02999014  1
  H  H157  1  0.30315140  0.74314408  0.50283944  1
  H  H158  1  0.54349174  0.91565382  -0.00577014  1
  H  H159  1  0.02375323  0.42477274  1.02925040  1
  H  H160  1  0.78265328  0.92715562  0.49850037  1
  H  H161  1  0.39625169  0.74634173  0.99815962  1
  H  H162  1  0.62263122  0.57133269  0.49600873  1
  H  H163  1  0.89946315  0.58436131  0.01217519  1
  H  H164  1  0.53301574  0.42083362  1.00687776  1
  H  H165  1  0.37194092  0.24276683  0.52271833  1
  H  H166  1  0.20775434  0.41496174  -0.00508205  1
  H  H167  1  0.62363265  0.91759002  0.52015638  1
  H  H168  1  0.14461901  0.75048791  0.48436636  1
  H  H169  1  0.17565315  0.25363694  0.98905191  1
  H  H170  1  0.96807216  0.74874516  0.49249832  1
  H  H171  1  0.63771143  0.74703520  0.48631093  1
  H  H172  1  0.40592297  0.42249408  0.50599312  1
  H  H173  1  0.35083069  0.57830891  -0.00557059  1
  H  H174  1  0.43567543  0.28658997  0.00209788  1
  H  H175  1  0.55085050  0.57677910  -0.00170482  1
  H  H176  1  0.93779280  0.23771505  0.48910245  1
  H  H177  1  0.03849456  0.08476777  1.00770495  1
  H  H178  1  0.84268660  0.08519554  0.00471170  1
  H  H179  1  0.32475358  0.22396362  1.00420455  1
  H  H180  1  0.90429846  0.91375446  0.00371909  1
  H  H181  1  0.22334050  0.25612088  0.48725617  1
  H  H182  1  0.79055289  0.74717782  0.50459932  1
  H  H183  1  0.08858228  0.26099922  0.48973534  1
  H  H184  1  0.96703019  0.42705385  0.49940240  1
  H  H185  1  0.10981839  0.08024743  0.51056953  1
  H  H186  1  0.45084105  0.74813388  0.49823645  1
  H  H187  1  0.11969937  0.41499845  0.52261260  1
  H  H188  1  0.71388068  0.92268729  1.00691531  1
  H  H189  1  0.27900490  0.92708005  0.47607211  1
  H  H190  1  0.62978588  0.24100946  0.52548514  1
  H  H191  1  0.42751893  0.08369600  0.49788305  1
  Pb  Pb192  1  0.24801194  0.05088656  0.75378577  1
  Pb  Pb193  1  0.24531234  0.38183568  0.76234507  1
  Pb  Pb194  1  0.25390307  0.71577905  0.75433400  1
  Pb  Pb195  1  0.75301561  0.05170934  0.74945121  1
  Pb  Pb196  1  0.75195678  0.38229822  0.74014716  1
  Pb  Pb197  1  0.74807828  0.71668320  0.74599908  1
  Pb  Pb198  1  0.24599078  0.28536108  0.23844010  1
  Pb  Pb199  1  0.25134730  0.61745474  0.25155702  1
  Pb  Pb200  1  0.24539568  0.95302266  0.24172196  1
  Pb  Pb201  1  0.74824640  0.28779300  0.25506156  1
  Pb  Pb202  1  0.75037356  0.61705127  0.24613935  1
  Pb  Pb203  1  0.75355841  0.95115800  0.25409278  1
  Pb  Pb204  1  0.00034824  0.21900932  0.73097689  1
  Pb  Pb205  1  0.00366766  0.55127847  0.74671879  1
  Pb  Pb206  1  0.00271707  0.88171302  0.75200581  1
  Pb  Pb207  1  0.50405237  0.21632875  0.77210345  1
  Pb  Pb208  1  0.50220427  0.54657416  0.75737856  1
  Pb  Pb209  1  0.49594324  0.88687441  0.75313011  1
  Pb  Pb210  1  -0.00227150  0.11812973  0.24354258  1
  Pb  Pb211  1  -0.00196326  0.45021088  0.26387993  1
  Pb  Pb212  1  0.00095461  0.78354973  0.24898044  1
  Pb  Pb213  1  0.50020853  0.11850030  0.25183770  1
  Pb  Pb214  1  0.50757489  0.45172825  0.23428723  1
  Pb  Pb215  1  0.50248271  0.78554598  0.24664775  1
  C  C216  1  0.00383817  0.04664840  0.62862068  1
  C  C217  1  -0.00048837  0.38372255  0.63671594  1
  C  C218  1  0.00026608  0.70432059  0.62867182  1
  C  C219  1  0.50872343  0.04402993  0.62885346  1
  C  C220  1  0.50594361  0.37622129  0.62672255  1
  C  C221  1  0.50009826  0.70648533  0.63639935  1
  C  C222  1  -0.02906219  0.28510297  0.10857423  1
  C  C223  1  -0.00219688  0.62246224  0.13050390  1
  C  C224  1  -0.00584890  0.95339207  0.12571422  1
  C  C225  1  0.47373805  0.28966529  0.13617794  1
  C  C226  1  0.50332101  0.62133535  0.13567421  1
  C  C227  1  0.49906145  0.95933387  0.12886739  1
  C  C228  1  -0.00040086  0.04138369  0.87215214  1
  C  C229  1  -0.03434150  0.38694295  0.88946760  1
  C  C230  1  -0.01036911  0.71129253  0.86783388  1
  C  C231  1  0.50604831  0.04803715  0.87023938  1
  C  C232  1  0.48420440  0.37986608  0.87130549  1
  C  C233  1  0.49380728  0.71415769  0.87455796  1
  C  C234  1  -0.00441567  0.28342554  0.35942212  1
  C  C235  1  0.00621430  0.62305041  0.37412878  1
  C  C236  1  0.03473200  0.95148820  0.39118173  1
  C  C237  1  0.49870160  0.29280216  0.37454404  1
  C  C238  1  0.49970505  0.62267296  0.37664016  1
  C  C239  1  0.51395170  0.95822778  0.36182570  1
  C  C240  1  0.25004687  0.20957308  0.62897432  1
  C  C241  1  0.24235871  0.54544305  0.61987992  1
  C  C242  1  0.21547971  0.88359262  0.61200317  1
  C  C243  1  0.74981285  0.20798135  0.63270694  1
  C  C244  1  0.74534559  0.54763946  0.62444049  1
  C  C245  1  0.73640047  0.87857154  0.63626017  1
  C  C246  1  0.25488625  0.12064426  0.13683126  1
  C  C247  1  0.26075476  0.45563922  0.13278412  1
  C  C248  1  0.25453551  0.79288854  0.12525594  1
  C  C249  1  0.75456812  0.11844791  0.13414372  1
  C  C250  1  0.78780253  0.45109313  0.10511340  1
  C  C251  1  0.76304315  0.78867504  0.12970966  1
  C  C252  1  0.27129736  0.20665241  0.86719392  1
  C  C253  1  0.25404374  0.54750458  0.86697365  1
  C  C254  1  0.25921353  0.88196395  0.86881257  1
  C  C255  1  0.77990335  0.21427579  0.89354803  1
  C  C256  1  0.75888678  0.54502468  0.86671264  1
  C  C257  1  0.75061477  0.87778357  0.86734301  1
  C  C258  1  0.24166319  0.12404353  0.36796098  1
  C  C259  1  0.24484100  0.46167801  0.36782888  1
  C  C260  1  0.25256750  0.78747748  0.36448008  1
  C  C261  1  0.73884613  0.11872949  0.37044837  1
  C  C262  1  0.74569319  0.46258227  0.37324111  1
  C  C263  1  0.74663056  0.79024935  0.36983506  1
  C  C264  1  0.19014474  0.09490899  0.45603591  1
  C  C265  1  0.56401865  0.59011264  0.45934792  1
  C  C266  1  0.76066184  0.57594009  0.52796161  1
  C  C267  1  0.46775183  0.07342367  0.53596665  1
  C  C268  1  0.90894143  0.41082269  0.97890452  1
  C  C269  1  0.93450362  0.07348442  0.95514103  1
  C  C270  1  0.19211682  0.76000925  0.45114908  1
  C  C271  1  0.16106509  0.90914349  0.52119771  1
  C  C272  1  0.28780837  0.57306711  0.53007819  1
  C  C273  1  0.24372431  0.91332859  0.51596401  1
  C  C274  1  0.54923517  0.07566305  0.53714814  1
  C  C275  1  0.75670271  0.23996031  0.53644310  1
  C  C276  1  0.79900651  0.09401532  0.04239292  1
  C  C277  1  0.68485569  0.75712600  0.45283372  1
  C  C278  1  0.67277712  0.90797275  0.55190776  1
  C  C279  1  0.91034874  0.25889147  0.02018127  1
  C  C280  1  0.73446368  0.75350272  0.03760262  1
  C  C281  1  0.42544462  0.41253108  0.95707419  1
  C  C282  1  0.32587435  0.75888045  0.04640662  1
  C  C283  1  0.96932799  0.58312267  0.46164621  1
  C  C284  1  0.75347973  0.91245276  0.54101071  1
  C  C285  1  0.45188851  0.41004232  0.53943790  1
  C  C286  1  0.24469642  0.24242906  0.53280058  1
  C  C287  1  0.04681064  0.26540909  0.45131659  1
  C  C288  1  0.22438198  0.57189048  0.96314955  1
  C  C289  1  0.27308154  0.75719577  0.46066361  1
  C  C290  1  0.52305029  0.07577199  0.96727879  1
  C  C291  1  0.02344328  0.58903888  0.03681130  1
  C  C292  1  0.53299448  0.41229455  0.53377638  1
  C  C293  1  0.73993784  0.90992690  0.96243691  1
  C  C294  1  0.43875223  0.92325802  0.04511517  1
  C  C295  1  0.70850194  0.08684512  0.46302710  1
  C  C296  1  0.30551670  0.57032052  0.95899347  1
  C  C297  1  0.21779750  0.23654923  0.95495009  1
  C  C298  1  0.06921677  0.40687619  0.55355818  1
  C  C299  1  0.02538931  0.91607952  0.03358035  1
  C  C300  1  0.52126258  0.59002623  0.04118517  1
  C  C301  1  -0.00762300  0.25350695  0.01185502  1
  C  C302  1  0.68085519  0.56870240  0.53786841  1
  C  C303  1  0.20783150  0.57569842  0.52809677  1
  C  C304  1  0.09771588  0.92094608  0.47606409  1
  C  C305  1  0.23943939  0.42659121  0.03767964  1
  C  C306  1  0.48403552  0.58637166  0.47000199  1
  C  C307  1  -0.00864775  0.41405148  0.98684333  1
  C  C308  1  0.01064636  0.74557096  0.96178173  1
  C  C309  1  0.84577677  0.24733496  0.97606353  1
  C  C310  1  0.48063219  0.73661582  0.54156449  1
  C  C311  1  0.44277202  0.06961042  0.95792530  1
  N  N312  1  0.50376883  0.41324995  0.96451200  1
  N  N313  1  0.44282623  0.59218502  0.04942088  1
  N  N314  1  0.98962750  0.74178829  0.53729495  1
  N  N315  1  0.22632898  0.08897994  0.04298024  1
  N  N316  1  0.71990894  0.09147790  0.03882200  1
  N  N317  1  0.94689709  0.92022545  0.03836990  1
  N  N318  1  0.78584134  0.08791021  0.46151354  1
  N  N319  1  0.53505737  0.25707713  0.46522354  1
  N  N320  1  1.01787525  0.91385209  0.48364459  1
  N  N321  1  0.32088283  0.23777636  0.54978775  1
  N  N322  1  0.06150921  0.07209000  0.54330103  1
  N  N323  1  0.94447342  0.59001585  0.04501001  1
  N  N324  1  0.51893487  0.73804234  0.96975868  1
  N  N325  1  0.44109143  0.74471979  0.96042140  1
  N  N326  1  0.99179219  0.41247186  0.54071380  1
  N  N327  1  0.24890996  0.75366328  0.03337599  1
  N  N328  1  0.76628484  0.25549794  0.98473736  1
  N  N329  1  0.30228990  0.09071842  0.04718284  1
  N  N330  1  0.55899046  0.73587714  0.54960060  1
  N  N331  1  0.52542942  0.25325650  0.05064532  1
  N  N332  1  0.68006712  0.42461355  0.45234903  1
  N  N333  1  0.84892480  0.42202478  0.02107583  1
  N  N334  1  0.06612106  0.73831356  0.54789578  1
  N  N335  1  0.26720802  0.09173592  0.46357580  1
  N  N336  1  0.68013108  0.23727626  0.55315327  1
  N  N337  1  0.55390342  0.92967252  0.45378504  1
  N  N338  1  0.29674035  0.23164635  0.96281643  1
  N  N339  1  0.44337138  0.26111325  0.04128068  1
  N  N340  1  0.31816722  0.42734585  0.04430608  1
  N  N341  1  0.75647430  0.42325013  0.46370467  1
  N  N342  1  0.51672742  0.92348256  0.03655294  1
  N  N343  1  0.04661194  0.58357899  0.46326661  1
  N  N344  1  0.45854731  0.25718747  0.46409384  1
  N  N345  1  0.76991166  0.40897034  0.01469654  1
  N  N346  1  0.73511154  0.57604472  0.96159450  1
  N  N347  1  0.21607378  0.42677109  0.46057126  1
  N  N348  1  0.29233714  0.91231408  0.96239839  1
  N  N349  1  0.29190458  0.42793188  0.45646221  1
  N  N350  1  0.21632889  0.91238894  0.95994261  1
  N  N351  1  0.81192082  0.75590364  0.04036788  1
  N  N352  1  0.01231321  0.07673521  0.96524094  1
  N  N353  1  0.93216562  0.74176275  0.95255537  1
  N  N354  1  0.76331778  0.75331441  0.46199662  1
  N  N355  1  0.96747883  0.26053934  0.45498384  1
  N  N356  1  0.47790002  0.92908874  0.45503632  1
  N  N357  1  0.81121152  0.57314948  0.95547900  1
  N  N358  1  0.81744747  0.90796747  0.95030326  1
  N  N359  1  0.98479580  0.07541562  0.53221129  1
  N  N360  1  0.07427939  0.05405051  0.60149252  1
  N  N361  1  0.07412622  0.38876140  0.61302663  1
  N  N362  1  0.07220699  0.71723486  0.60555550  1
  N  N363  1  0.57377066  0.05820510  0.59336435  1
  N  N364  1  0.56565236  0.39220171  0.58641066  1
  N  N365  1  0.56957365  0.71693731  0.60876313  1
  N  N366  1  0.41594785  0.28866381  0.09414684  1
  N  N367  1  0.43329687  0.61197030  0.10829684  1
  N  N368  1  0.42764159  0.94460507  0.10260296  1
  N  N369  1  0.89945954  0.27861904  0.08122087  1
  N  N370  1  0.92902430  0.61201848  0.10220210  1
  N  N371  1  0.92676666  0.94438440  0.09480266  1
  N  N372  1  0.43385950  0.05261748  0.89648251  1
  N  N373  1  0.41300285  0.39253204  0.89911266  1
  N  N374  1  0.42516509  0.72137982  0.90478310  1
  N  N375  1  0.92653140  0.05316327  0.89687778  1
  N  N376  1  0.89495663  0.39389916  0.91791479  1
  N  N377  1  0.91949961  0.71848906  0.89545312  1
  N  N378  1  0.06440354  0.28046565  0.39247238  1
  N  N379  1  0.07001901  0.60899620  0.40751587  1
  N  N380  1  0.10708199  0.94184764  0.41703870  1
  N  N381  1  0.56123753  0.27900737  0.40969709  1
  N  N382  1  0.57251131  0.61256537  0.40063934  1
  N  N383  1  0.57809162  0.94788891  0.39660325  1
  N  N384  1  0.32396709  0.21547492  0.60813045  1
  N  N385  1  0.30980273  0.55484997  0.58620620  1
  N  N386  1  0.27508233  0.89689250  0.57238336  1
  N  N387  1  0.80032341  0.22295015  0.58616861  1
  N  N388  1  0.79949978  0.56316294  0.58060565  1
  N  N389  1  0.79154430  0.89393557  0.59390717  1
  N  N390  1  0.19552140  0.10723304  0.09848485  1
  N  N391  1  0.20296071  0.44366924  0.09149426  1
  N  N392  1  0.20429169  0.77799671  0.08065214  1
  N  N393  1  0.69407220  0.10641321  0.09627280  1
  N  N394  1  0.73325921  0.43664683  0.06276655  1
  N  N395  1  0.70252690  0.77340945  0.09132619  1
  N  N396  1  0.20215222  0.22235590  0.89561043  1
  N  N397  1  0.19346101  0.55816144  0.90780856  1
  N  N398  1  0.19423070  0.89365116  0.90202551  1
  N  N399  1  0.72628891  0.23089841  0.93543964  1
  N  N400  1  0.70154759  0.55897476  0.90674334  1
  N  N401  1  0.69759912  0.89202302  0.91174424  1
  N  N402  1  0.29923322  0.11027082  0.40735100  1
  N  N403  1  0.31127942  0.44931223  0.39902032  1
  N  N404  1  0.30943895  0.77459254  0.40644625  1
  N  N405  1  0.80487118  0.10817993  0.40248931  1
  N  N406  1  0.79799551  0.44827528  0.41701140  1
  N  N407  1  0.80137667  0.77688519  0.41191994  1
  N  N408  1  0.43461834  0.27928026  0.40811963  1
  N  N409  1  0.44527501  0.60627083  0.41978580  1
  N  N410  1  0.45178971  0.94645589  0.39806919  1
  N  N411  1  0.93634088  0.26882540  0.39726343  1
  N  N412  1  0.94171650  0.60670182  0.40800733  1
  N  N413  1  0.97956840  0.93714634  0.43280428  1
  N  N414  1  0.05338334  0.05400361  0.91515546  1
  N  N415  1  0.02388978  0.39857243  0.93097970  1
  N  N416  1  0.04668460  0.72709052  0.90912703  1
  N  N417  1  0.56115243  0.06259209  0.91448755  1
  N  N418  1  0.54079731  0.39049110  0.91276018  1
  N  N419  1  0.55202795  0.72849791  0.91355831  1
  N  N420  1  0.02757576  0.26997994  0.06713685  1
  N  N421  1  0.05689776  0.60837977  0.09014634  1
  N  N422  1  0.05489525  0.93643574  0.08754328  1
  N  N423  1  0.53916019  0.26722448  0.11069789  1
  N  N424  1  0.55970124  0.60792465  0.09357368  1
  N  N425  1  0.55509489  0.94760089  0.08718637  1
  N  N426  1  0.44368632  0.05380989  0.59420801  1
  N  N427  1  0.43654688  0.38746826  0.59834821  1
  N  N428  1  0.44303841  0.71888095  0.59454582  1
  N  N429  1  0.94921652  0.06005871  0.58567708  1
  N  N430  1  0.94892293  0.39910446  0.59231470  1
  N  N431  1  0.94814300  0.71856443  0.58490529  1
  N  N432  1  0.17189950  0.11400580  0.39761071  1
  N  N433  1  0.18526713  0.44757739  0.40576845  1
  N  N434  1  0.18076267  0.77884024  0.39143094  1
  N  N435  1  0.67686902  0.10537087  0.40833327  1
  N  N436  1  0.67390212  0.44781675  0.39567150  1
  N  N437  1  0.67437485  0.77827236  0.39503254  1
  N  N438  1  0.32939790  0.21060765  0.90884082  1
  N  N439  1  0.32253763  0.55534304  0.89788463  1
  N  N440  1  0.32060997  0.89287376  0.90627179  1
  N  N441  1  0.85336609  0.22486427  0.91741368  1
  N  N442  1  0.82726068  0.55308913  0.89698923  1
  N  N443  1  0.82250529  0.88804103  0.89093096  1
  N  N444  1  0.32162106  0.11099865  0.10485636  1
  N  N445  1  0.32973046  0.44572921  0.10390516  1
  N  N446  1  0.32949606  0.78085380  0.10457904  1
  N  N447  1  0.82161100  0.11076010  0.10078643  1
  N  N448  1  0.85907459  0.44339746  0.07948616  1
  N  N449  1  0.83014712  0.77787505  0.09909145  1
  N  N450  1  0.20022747  0.22529470  0.58216802  1
  N  N451  1  0.17903953  0.55904986  0.58288147  1
  N  N452  1  0.14606307  0.89026113  0.58191656  1
  N  N453  1  0.67609863  0.21527933  0.61158655  1
  N  N454  1  0.67254165  0.55174126  0.59857527  1
  N  N455  1  0.66366486  0.88706936  0.61092092  1
  Cl  Cl456  1  0.25674905  0.04904831  0.62195168  1
  Cl  Cl457  1  0.25608781  0.37703698  0.63197394  1
  Cl  Cl458  1  0.26015477  0.71638243  0.62105959  1
  Cl  Cl459  1  0.76406676  0.06134515  0.61749842  1
  Cl  Cl460  1  0.76337161  0.39264309  0.59997091  1
  Cl  Cl461  1  0.76745167  0.72916505  0.60424901  1
  Cl  Cl462  1  0.22455704  0.27352295  0.10099086  1
  Cl  Cl463  1  0.23994371  0.61649858  0.12008693  1
  Cl  Cl464  1  0.23846712  0.93789567  0.11593369  1
  Cl  Cl465  1  0.72127530  0.28105125  0.11834468  1
  Cl  Cl466  1  0.74475734  0.61385347  0.11359189  1
  Cl  Cl467  1  0.73884568  0.93626733  0.11409234  1
  Cl  Cl468  1  0.23408853  0.06445884  0.88361251  1
  Cl  Cl469  1  0.20966142  0.38883687  0.89587091  1
  Cl  Cl470  1  0.23215900  0.72717500  0.89579106  1
  Cl  Cl471  1  0.74431354  0.06461464  0.88272964  1
  Cl  Cl472  1  0.71952762  0.39425744  0.88072740  1
  Cl  Cl473  1  0.73327485  0.72679881  0.87917544  1
  Cl  Cl474  1  0.25138345  0.27507620  0.37721612  1
  Cl  Cl475  1  0.25924503  0.60839905  0.38711707  1
  Cl  Cl476  1  0.27602981  0.95162347  0.37419702  1
  Cl  Cl477  1  0.75010507  0.27883471  0.39105015  1
  Cl  Cl478  1  0.76024425  0.61113790  0.37792881  1
  Cl  Cl479  1  0.77822760  0.93903473  0.38704292  1
  Cl  Cl480  1  -0.00496433  0.22587123  0.59298544  1
  Cl  Cl481  1  -0.01418990  0.55974837  0.61486347  1
  Cl  Cl482  1  -0.03116378  0.88954788  0.61606276  1
  Cl  Cl483  1  0.49935494  0.23138267  0.63908482  1
  Cl  Cl484  1  0.48795900  0.54799975  0.63059763  1
  Cl  Cl485  1  0.46323034  0.89122074  0.62750790  1
  Cl  Cl486  1  0.01152798  0.10571999  0.10480673  1
  Cl  Cl487  1  0.02650916  0.44468664  0.12946673  1
  Cl  Cl488  1  0.02032153  0.77409866  0.11229877  1
  Cl  Cl489  1  0.50839388  0.11407086  0.11467965  1
  Cl  Cl490  1  0.54939488  0.43589467  0.09687121  1
  Cl  Cl491  1  0.51878074  0.78248465  0.10989217  1
  Cl  Cl492  1  0.02235420  0.21019233  0.86537110  1
  Cl  Cl493  1  0.01049002  0.55710943  0.88413347  1
  Cl  Cl494  1  0.01016913  0.89071196  0.88390920  1
  Cl  Cl495  1  0.52241557  0.22970107  0.90712377  1
  Cl  Cl496  1  0.51822566  0.55719586  0.89285608  1
  Cl  Cl497  1  0.51271127  0.89072140  0.89983097  1
  Cl  Cl498  1  -0.01077912  0.11425231  0.37420431  1
  Cl  Cl499  1  -0.01586398  0.44284305  0.40261790  1
  Cl  Cl500  1  -0.01778100  0.76879465  0.39621874  1
  Cl  Cl501  1  0.48790397  0.11024924  0.38492158  1
  Cl  Cl502  1  0.49199258  0.45086269  0.36573059  1
  Cl  Cl503  1  0.49054888  0.77264392  0.38122370  1
  Cl  Cl504  1  0.36883251  0.14484115  0.74666636  1
  Cl  Cl505  1  0.36873953  0.47494667  0.76610844  1
  Cl  Cl506  1  0.36493022  0.80419547  0.77013609  1
  Cl  Cl507  1  0.85365288  0.15338414  0.76053909  1
  Cl  Cl508  1  0.86042566  0.47606849  0.75391992  1
  Cl  Cl509  1  0.86461951  0.81359738  0.75893428  1
  Cl  Cl510  1  0.13965377  0.18169508  0.25124573  1
  Cl  Cl511  1  0.13901347  0.51680268  0.25290674  1
  Cl  Cl512  1  0.13293085  0.85385454  0.26389735  1
  Cl  Cl513  1  0.64250895  0.18379929  0.24854184  1
  Cl  Cl514  1  0.64829787  0.51075826  0.24939552  1
  Cl  Cl515  1  0.64290611  0.84893002  0.25671837  1
  Cl  Cl516  1  0.13652191  0.15067797  0.73539780  1
  Cl  Cl517  1  0.14506876  0.48803542  0.74352685  1
  Cl  Cl518  1  0.14186764  0.81608878  0.73726780  1
  Cl  Cl519  1  0.63203580  0.14679492  0.74779862  1
  Cl  Cl520  1  0.64212406  0.48273783  0.73833499  1
  Cl  Cl521  1  0.63355016  0.81626711  0.74531923  1
  Cl  Cl522  1  0.36643037  0.18994444  0.24414543  1
  Cl  Cl523  1  0.37257246  0.52478334  0.23136626  1
  Cl  Cl524  1  0.36009863  0.85329420  0.24187453  1
  Cl  Cl525  1  0.86322052  0.18896245  0.24977124  1
  Cl  Cl526  1  0.86672457  0.51869259  0.23688299  1
  Cl  Cl527  1  0.86818204  0.85278938  0.24210734  1
  Cl  Cl528  1  0.10523035  0.31777915  0.75010366  1
  Cl  Cl529  1  0.09971165  0.65268835  0.74823074  1
  Cl  Cl530  1  0.11201953  0.98081277  0.73611177  1
  Cl  Cl531  1  0.60851787  0.31899505  0.75233343  1
  Cl  Cl532  1  0.60965369  0.65000009  0.74522728  1
  Cl  Cl533  1  0.60473149  0.98100245  0.74757537  1
  Cl  Cl534  1  0.38611040  0.02005540  0.23639097  1
  Cl  Cl535  1  0.37749412  0.36176356  0.24509127  1
  Cl  Cl536  1  0.38452777  0.68904764  0.24002997  1
  Cl  Cl537  1  0.87992163  0.02311171  0.22646324  1
  Cl  Cl538  1  0.88913776  0.35214607  0.22976641  1
  Cl  Cl539  1  0.89001779  0.68391777  0.24101517  1
  Cl  Cl540  1  0.37623319  0.30748115  0.77161596  1
  Cl  Cl541  1  0.38465751  0.64349799  0.77003911  1
  Cl  Cl542  1  0.37523866  0.97610810  0.77571519  1
  Cl  Cl543  1  0.88794697  0.31612598  0.76383064  1
  Cl  Cl544  1  0.87683072  0.64215366  0.75994210  1
  Cl  Cl545  1  0.89075177  0.98293609  0.75875647  1
  Cl  Cl546  1  0.10109732  0.01395794  0.25923152  1
  Cl  Cl547  1  0.10930932  0.34876698  0.25871742  1
  Cl  Cl548  1  0.11317688  0.68534808  0.26149365  1
  Cl  Cl549  1  0.61445148  0.01866604  0.24664744  1
  Cl  Cl550  1  0.60237084  0.34340543  0.25261182  1
  Cl  Cl551  1  0.60788315  0.68177962  0.25994163  1
