# generated using pymatgen
data_H8PbC4(N3Cl2)2
_symmetry_space_group_name_H-M   'P 1'
_cell_length_a   16.62414134
_cell_length_b   22.50635955
_cell_length_c   21.58809201
_cell_angle_alpha   89.99816748
_cell_angle_beta   89.99508664
_cell_angle_gamma   89.99703713
_symmetry_Int_Tables_number   1
_chemical_formula_structural   H8PbC4(N3Cl2)2
_chemical_formula_sum   'H192 Pb24 C96 N144 Cl96'
_cell_volume   8077.16088228
_cell_formula_units_Z   24
loop_
 _symmetry_equiv_pos_site_id
 _symmetry_equiv_pos_as_xyz
  1  'x, y, z'
loop_
 _atom_site_type_symbol
 _atom_site_label
 _atom_site_symmetry_multiplicity
 _atom_site_fract_x
 _atom_site_fract_y
 _atom_site_fract_z
 _atom_site_occupancy
  H  H0  1  -0.00031603  0.03087778  0.67674241  1
  H  H1  1  0.00574125  0.36543742  0.67959759  1
  H  H2  1  0.00235055  0.69660981  0.67857746  1
  H  H3  1  0.49410994  0.03274508  0.67776640  1
  H  H4  1  0.49805428  0.37038863  0.67848779  1
  H  H5  1  0.50073193  0.69771750  0.68189738  1
  H  H6  1  -0.00661063  0.30559494  0.17707036  1
  H  H7  1  -0.01026535  0.63505756  0.18039853  1
  H  H8  1  0.01262147  0.96916419  0.17463784  1
  H  H9  1  0.50224017  0.30067347  0.17446398  1
  H  H10  1  0.50390054  0.63494807  0.17950453  1
  H  H11  1  0.48901691  0.96837679  0.18083107  1
  H  H12  1  -0.00698661  0.03017056  0.82064618  1
  H  H13  1  0.00059653  0.36552962  0.82396842  1
  H  H14  1  0.00868735  0.69745125  0.82141695  1
  H  H15  1  0.50647014  0.03164212  0.82428605  1
  H  H16  1  0.49330334  0.36282495  0.82347149  1
  H  H17  1  0.49279754  0.69878308  0.81557312  1
  H  H18  1  -0.01024462  0.30006017  0.31610646  1
  H  H19  1  -0.00094672  0.63684010  0.32213189  1
  H  H20  1  0.01101641  0.96840415  0.32144042  1
  H  H21  1  0.50809465  0.30156410  0.32256396  1
  H  H22  1  0.49799883  0.63574124  0.31738499  1
  H  H23  1  0.49068813  0.96970281  0.32197760  1
  H  H24  1  0.23965702  0.19637209  0.67836356  1
  H  H25  1  0.24672359  0.53218373  0.68136743  1
  H  H26  1  0.26271505  0.86486059  0.67949179  1
  H  H27  1  0.75768000  0.19862760  0.68087584  1
  H  H28  1  0.74592602  0.52918684  0.67931788  1
  H  H29  1  0.74360085  0.86599332  0.67813041  1
  H  H30  1  0.24565224  0.13762879  0.17992462  1
  H  H31  1  0.24888275  0.46848270  0.18007910  1
  H  H32  1  0.25784878  0.80147318  0.18411327  1
  H  H33  1  0.75072760  0.13723831  0.17791210  1
  H  H34  1  0.75510991  0.46732250  0.17791875  1
  H  H35  1  0.74081722  0.80309624  0.17869547  1
  H  H36  1  0.25257440  0.19903526  0.82052949  1
  H  H37  1  0.24162100  0.52805960  0.81976748  1
  H  H38  1  0.25717904  0.86471242  0.82137777  1
  H  H39  1  0.74744932  0.19854799  0.82143918  1
  H  H40  1  0.75972071  0.52984784  0.81754818  1
  H  H41  1  0.74609632  0.86474615  0.82051449  1
  H  H42  1  0.25660342  0.13433480  0.32231348  1
  H  H43  1  0.23881375  0.46856935  0.31923505  1
  H  H44  1  0.24553196  0.80282678  0.32124588  1
  H  H45  1  0.75003424  0.13442280  0.32136365  1
  H  H46  1  0.76323510  0.46804373  0.32247028  1
  H  H47  1  0.74860266  0.80158758  0.32164805  1
  H  H48  1  0.13198491  0.05235528  0.61354667  1
  H  H49  1  0.12015217  0.39153638  0.60072187  1
  H  H50  1  0.11563638  0.72336500  0.59945304  1
  H  H51  1  0.63094507  0.05158098  0.62044137  1
  H  H52  1  0.62288219  0.38689019  0.60665250  1
  H  H53  1  0.61691132  0.72329736  0.60513869  1
  H  H54  1  0.38039189  0.27977406  0.10409646  1
  H  H55  1  0.37455877  0.61228102  0.11282190  1
  H  H56  1  0.38086227  0.94332994  0.09990429  1
  H  H57  1  0.88292176  0.27589775  0.09692462  1
  H  H58  1  0.87979276  0.60929452  0.09708391  1
  H  H59  1  0.87390273  0.95034849  0.11933496  1
  H  H60  1  0.37435575  0.05296310  0.88741969  1
  H  H61  1  0.38359900  0.38889315  0.90581713  1
  H  H62  1  0.37340623  0.72047487  0.88974809  1
  H  H63  1  0.87623135  0.05671236  0.89656480  1
  H  H64  1  0.87680094  0.38669105  0.89290903  1
  H  H65  1  0.87185470  0.72051307  0.87718880  1
  H  H66  1  0.12116475  0.28030860  0.37903443  1
  H  H67  1  0.12474571  0.61202194  0.39027538  1
  H  H68  1  0.12237010  0.94218569  0.40187343  1
  H  H69  1  0.61705898  0.27497577  0.40475360  1
  H  H70  1  0.62521357  0.61303739  0.38608298  1
  H  H71  1  0.62879349  0.94873682  0.37644836  1
  H  H72  1  0.37853563  0.21644238  0.62347347  1
  H  H73  1  0.37358370  0.55309785  0.61304650  1
  H  H74  1  0.37007378  0.89337360  0.59498021  1
  H  H75  1  0.87754592  0.22209557  0.60669643  1
  H  H76  1  0.87321230  0.55314224  0.61184935  1
  H  H77  1  0.87666311  0.88462428  0.61604941  1
  H  H78  1  0.12717266  0.11126544  0.10528531  1
  H  H79  1  0.12356709  0.44580831  0.10805406  1
  H  H80  1  0.12764279  0.78180502  0.12034409  1
  H  H81  1  0.62577674  0.11444654  0.10615950  1
  H  H82  1  0.62079012  0.44496414  0.11643159  1
  H  H83  1  0.63155624  0.77703872  0.09613450  1
  H  H84  1  0.11946705  0.22029095  0.88290087  1
  H  H85  1  0.12570606  0.55323927  0.89714954  1
  H  H86  1  0.12421252  0.88639272  0.88319012  1
  H  H87  1  0.61493152  0.21826345  0.88463845  1
  H  H88  1  0.62363827  0.55054585  0.87753124  1
  H  H89  1  0.62978663  0.89050520  0.89462082  1
  H  H90  1  0.36594070  0.10726315  0.40453091  1
  H  H91  1  0.37802753  0.44975238  0.37566021  1
  H  H92  1  0.38045496  0.78245533  0.38188380  1
  H  H93  1  0.86795423  0.10951115  0.39619152  1
  H  H94  1  0.87373143  0.44211639  0.40385029  1
  H  H95  1  0.88138491  0.77885864  0.38350646  1
  H  H96  1  0.37108897  0.28121215  0.38003760  1
  H  H97  1  0.37624113  0.61326632  0.39080587  1
  H  H98  1  0.38272500  0.94326349  0.40521709  1
  H  H99  1  0.87221309  0.27867625  0.39190086  1
  H  H100  1  0.87534834  0.61180516  0.39301003  1
  H  H101  1  0.87499778  0.94768031  0.38017571  1
  H  H102  1  0.12480948  0.05163167  0.88532982  1
  H  H103  1  0.12583054  0.38675209  0.89147193  1
  H  H104  1  0.11823246  0.72518227  0.90300358  1
  H  H105  1  0.62304108  0.05648400  0.90089517  1
  H  H106  1  0.62990504  0.38133424  0.88093363  1
  H  H107  1  0.62258348  0.72017733  0.87900787  1
  H  H108  1  0.13046016  0.28419152  0.12065170  1
  H  H109  1  0.12617977  0.61516829  0.12139575  1
  H  H110  1  0.11920773  0.94042303  0.09237013  1
  H  H111  1  0.62898620  0.27882652  0.10884053  1
  H  H112  1  0.62385095  0.61140439  0.10612219  1
  H  H113  1  0.62758733  0.95321909  0.12518972  1
  H  H114  1  0.38465497  0.05801893  0.59484770  1
  H  H115  1  0.37412274  0.38979473  0.60552743  1
  H  H116  1  0.36842240  0.71900001  0.61663254  1
  H  H117  1  0.88358979  0.05791704  0.60147582  1
  H  H118  1  0.87187812  0.38597111  0.61826752  1
  H  H119  1  0.86792726  0.72065375  0.61925730  1
  H  H120  1  0.11956076  0.11422353  0.37930565  1
  H  H121  1  0.13214286  0.44381665  0.40347581  1
  H  H122  1  0.13391786  0.77471142  0.40268436  1
  H  H123  1  0.61839437  0.11250822  0.38599616  1
  H  H124  1  0.62698253  0.44775795  0.38084801  1
  H  H125  1  0.63318178  0.77785429  0.39984110  1
  H  H126  1  0.36760104  0.22333110  0.89951985  1
  H  H127  1  0.37382805  0.55090559  0.88295803  1
  H  H128  1  0.37263108  0.89195591  0.89859866  1
  H  H129  1  0.86418624  0.22158253  0.89644758  1
  H  H130  1  0.87091731  0.55482248  0.89862576  1
  H  H131  1  0.87835362  0.88442598  0.88346728  1
  H  H132  1  0.37603606  0.11564023  0.11371606  1
  H  H133  1  0.37218000  0.44309346  0.10764827  1
  H  H134  1  0.37687474  0.78043747  0.10963975  1
  H  H135  1  0.87489465  0.11169726  0.10831252  1
  H  H136  1  0.86784076  0.44256968  0.09733970  1
  H  H137  1  0.87807249  0.78242321  0.12239907  1
  H  H138  1  0.13483593  0.22432418  0.59336652  1
  H  H139  1  0.12433763  0.55376133  0.61119361  1
  H  H140  1  0.12470190  0.88356027  0.62260784  1
  H  H141  1  0.62953359  0.22067289  0.61416699  1
  H  H142  1  0.62487983  0.55478540  0.60496075  1
  H  H143  1  0.62844442  0.89095503  0.60244280  1
  H  H144  1  0.05397406  0.41942028  0.49807952  1
  H  H145  1  0.58559513  0.74689179  0.99339104  1
  H  H146  1  0.81280302  0.08039672  0.50439212  1
  H  H147  1  0.30769671  0.91774643  1.00266681  1
  H  H148  1  0.21246612  0.24689081  0.49331754  1
  H  H149  1  0.68132831  0.58237577  0.50208282  1
  H  H150  1  0.57323289  0.58160408  -0.00232900  1
  H  H151  1  0.41091315  0.08474833  0.99371557  1
  H  H152  1  0.68240099  0.91752686  0.49366002  1
  H  H153  1  0.92827372  0.25142246  0.50172377  1
  H  H154  1  0.05851287  0.91390097  0.50716301  1
  H  H155  1  0.95316114  0.57861028  -0.00145800  1
  H  H156  1  0.08704147  0.25447614  0.49304919  1
  H  H157  1  0.81475885  0.27021920  0.51419924  1
  H  H158  1  0.80258045  0.58295891  1.00371391  1
  H  H159  1  0.55507308  0.74998640  0.49747264  1
  H  H160  1  0.32194769  0.76534286  -0.00370802  1
  H  H161  1  0.95175584  0.25477839  -0.00587757  1
  H  H162  1  0.70453468  0.75383843  -0.00591024  1
  H  H163  1  0.09879327  0.08200163  0.50587099  1
  H  H164  1  0.92533883  0.58083487  0.49666917  1
  H  H165  1  0.20521979  0.41839155  0.50740669  1
  H  H166  1  0.68161463  0.92051523  1.00309807  1
  H  H167  1  0.39743192  0.24586493  0.48580158  1
  H  H168  1  0.41473806  0.58146283  0.00773740  1
  H  H169  1  0.16926154  0.58293564  0.49992646  1
  H  H170  1  0.16442460  0.75739935  0.00534171  1
  H  H171  1  0.04600395  0.75032870  1.00471979  1
  H  H172  1  0.54289198  0.26285533  0.50631050  1
  H  H173  1  0.42756128  0.58572149  0.49901023  1
  H  H174  1  0.57585521  0.41929659  0.50283591  1
  H  H175  1  0.67865514  0.22626353  0.50571332  1
  H  H176  1  0.29365748  0.91794295  0.49547061  1
  H  H177  1  0.20531575  0.74886704  0.50331716  1
  H  H178  1  0.89861516  0.91748378  0.48808648  1
  H  H179  1  0.18581661  0.58119595  1.00319015  1
  H  H180  1  0.89344883  0.91835861  0.01059758  1
  H  H181  1  0.04866980  0.75030644  0.49694411  1
  H  H182  1  0.42284083  0.41854328  0.50110652  1
  H  H183  1  0.65093655  0.41643215  0.00884182  1
  H  H184  1  0.45640963  0.91951997  0.50634963  1
  H  H185  1  0.42818829  0.73656220  1.00298931  1
  H  H186  1  0.18342109  0.08173000  -0.00135419  1
  H  H187  1  0.69776599  0.75226289  0.50397617  1
  H  H188  1  0.65204227  0.08356920  0.49302017  1
  H  H189  1  0.44964709  0.91581083  -0.00740709  1
  H  H190  1  0.80683616  0.24916936  1.00708113  1
  H  H191  1  0.10795844  0.25317709  0.00799994  1
  Pb  Pb192  1  0.24995474  0.04667475  0.74889222  1
  Pb  Pb193  1  0.25277498  0.37993030  0.74825507  1
  Pb  Pb194  1  0.25132652  0.71489958  0.75021178  1
  Pb  Pb195  1  0.75481869  0.04871687  0.74925731  1
  Pb  Pb196  1  0.75030117  0.38016712  0.75007797  1
  Pb  Pb197  1  0.74656846  0.71456531  0.74808369  1
  Pb  Pb198  1  0.25225104  0.28678341  0.25535621  1
  Pb  Pb199  1  0.25463756  0.61918176  0.25205813  1
  Pb  Pb200  1  0.25630026  0.95126380  0.24889789  1
  Pb  Pb201  1  0.75448464  0.28331816  0.25554609  1
  Pb  Pb202  1  0.75528786  0.61796584  0.24832710  1
  Pb  Pb203  1  0.75258702  0.95408776  0.25033621  1
  Pb  Pb204  1  0.00377803  0.21591053  0.74976708  1
  Pb  Pb205  1  0.00183313  0.54815405  0.75380301  1
  Pb  Pb206  1  0.00028853  0.87917530  0.74981504  1
  Pb  Pb207  1  0.50067782  0.21293101  0.74545270  1
  Pb  Pb208  1  0.49919565  0.54586611  0.75041871  1
  Pb  Pb209  1  0.49965119  0.88545823  0.74661778  1
  Pb  Pb210  1  0.00406522  0.11769880  0.25189659  1
  Pb  Pb211  1  0.00480676  0.45196312  0.25559747  1
  Pb  Pb212  1  0.00472671  0.78542074  0.25243831  1
  Pb  Pb213  1  0.50088658  0.12101179  0.24789342  1
  Pb  Pb214  1  0.50363208  0.45147287  0.25437773  1
  Pb  Pb215  1  0.50749418  0.78539903  0.24773104  1
  C  C216  1  0.00560053  0.04685017  0.62959003  1
  C  C217  1  -0.00050319  0.38043034  0.63219974  1
  C  C218  1  -0.00467688  0.71209471  0.63138587  1
  C  C219  1  0.50321937  0.04742368  0.63060944  1
  C  C220  1  0.49825517  0.38361902  0.62996723  1
  C  C221  1  0.49499374  0.71297238  0.63446550  1
  C  C222  1  0.00208846  0.28976354  0.12991077  1
  C  C223  1  -0.00173934  0.61983992  0.13318556  1
  C  C224  1  0.00142980  0.95346982  0.12792059  1
  C  C225  1  0.50397032  0.28621229  0.12637626  1
  C  C226  1  0.50033544  0.61908722  0.13196197  1
  C  C227  1  0.49913430  0.95482593  0.13331200  1
  C  C228  1  -0.00166809  0.04607027  0.86773385  1
  C  C229  1  0.00119542  0.38021411  0.87199531  1
  C  C230  1  -0.00018441  0.71282112  0.86848646  1
  C  C231  1  0.50085339  0.04704686  0.87165107  1
  C  C232  1  0.50218387  0.37757193  0.87064740  1
  C  C233  1  0.49637432  0.71313052  0.86351290  1
  C  C234  1  -0.00534948  0.28655581  0.36426756  1
  C  C235  1  -0.00074818  0.62015974  0.36920568  1
  C  C236  1  0.00229642  0.95246603  0.36860961  1
  C  C237  1  0.49843645  0.28612344  0.36974468  1
  C  C238  1  0.49990783  0.62045496  0.36497978  1
  C  C239  1  0.50068948  0.95517031  0.36920140  1
  C  C240  1  0.25095164  0.21129829  0.63131008  1
  C  C241  1  0.24782089  0.54675417  0.63354321  1
  C  C242  1  0.25287332  0.87958563  0.63227264  1
  C  C243  1  0.75481701  0.21357692  0.63305162  1
  C  C244  1  0.74759888  0.54566283  0.63216842  1
  C  C245  1  0.74929392  0.88043446  0.63041589  1
  C  C246  1  0.24980932  0.12122901  0.13277189  1
  C  C247  1  0.24816396  0.45306420  0.13250689  1
  C  C248  1  0.25396356  0.78753691  0.13604289  1
  C  C249  1  0.75023159  0.12135149  0.13063242  1
  C  C250  1  0.74755400  0.45201779  0.13054537  1
  C  C251  1  0.74993918  0.78861370  0.13134731  1
  C  C252  1  0.24668747  0.21389297  0.86787331  1
  C  C253  1  0.24723363  0.54428476  0.86689149  1
  C  C254  1  0.25161056  0.87997762  0.86874904  1
  C  C255  1  0.74243646  0.21283776  0.86919212  1
  C  C256  1  0.75106834  0.54483224  0.86487943  1
  C  C257  1  0.75102417  0.87987685  0.86801854  1
  C  C258  1  0.24744852  0.11870671  0.36914009  1
  C  C259  1  0.25008928  0.45427750  0.36651251  1
  C  C260  1  0.25307855  0.78730138  0.36841020  1
  C  C261  1  0.74487974  0.11879748  0.36890030  1
  C  C262  1  0.75428949  0.45300215  0.36948370  1
  C  C263  1  0.75434840  0.78688225  0.36924385  1
  C  C264  1  0.55832139  0.07238618  0.54220523  1
  C  C265  1  0.21984168  0.09289778  0.03889862  1
  C  C266  1  0.77201787  0.57215797  0.96049246  1
  C  C267  1  0.19783520  0.90864074  0.95829389  1
  C  C268  1  0.93971263  0.74267138  0.95521910  1
  C  C269  1  0.02146330  0.92187822  0.03132136  1
  C  C270  1  0.22043295  0.57141678  0.96169499  1
  C  C271  1  0.46615712  0.59522720  0.45907620  1
  C  C272  1  0.93943081  0.74265995  0.54318324  1
  C  C273  1  0.54437224  0.73607186  0.95593676  1
  C  C274  1  0.80803165  0.75872080  0.45920333  1
  C  C275  1  0.28764842  0.76739809  0.03909635  1
  C  C276  1  0.04313012  0.58997907  0.46143278  1
  C  C277  1  0.96977602  0.07670619  0.96135401  1
  C  C278  1  0.80252489  0.90546463  0.95846001  1
  C  C279  1  0.46256611  0.73402058  0.96024466  1
  C  C280  1  0.94468832  0.40888932  0.54299038  1
  C  C281  1  0.19798525  0.24069024  0.95768551  1
  C  C282  1  0.77545153  0.42335800  0.46471857  1
  C  C283  1  0.72110352  0.90818366  0.96397411  1
  C  C284  1  0.53260480  0.07646380  0.96695357  1
  C  C285  1  0.96211165  0.40680668  0.96394847  1
  C  C286  1  0.02608829  0.92439912  0.46472963  1
  C  C287  1  0.47998317  0.92767160  0.03554703  1
  C  C288  1  0.77720135  0.09131464  0.46352417  1
  C  C289  1  0.77200595  0.23884904  0.96579034  1
  C  C290  1  0.69056938  0.23783875  0.95990607  1
  C  C291  1  0.56044563  0.93165480  0.04604195  1
  C  C292  1  0.78770505  0.09139214  0.03883985  1
  C  C293  1  0.80249957  0.90446724  0.53978236  1
  C  C294  1  0.96260642  0.26290768  0.46064328  1
  C  C295  1  0.29188694  0.57276677  0.54087883  1
  C  C296  1  0.06020879  0.26214968  0.04288479  1
  C  C297  1  0.52193071  0.73921190  0.53947803  1
  C  C298  1  0.97422590  0.07749024  0.53452145  1
  C  C299  1  0.20572980  0.76612063  0.04334462  1
  C  C300  1  0.54774240  0.26015240  0.03514284  1
  C  C301  1  0.55730311  0.40356457  0.95876371  1
  C  C302  1  0.72084539  0.90690805  0.53363820  1
  C  C303  1  0.21016332  0.57313917  0.53866828  1
  C  C304  1  0.04236176  0.40679065  0.96335549  1
  C  C305  1  0.04440540  0.26366757  0.45612173  1
  C  C306  1  0.53600832  0.59200711  0.03765918  1
  C  C307  1  0.23411321  0.42889914  0.46335521  1
  C  C308  1  0.19240299  0.09232956  0.45708233  1
  C  C309  1  0.56237910  0.92712516  0.45560435  1
  C  C310  1  0.46724946  0.26052810  0.03356631  1
  C  C311  1  0.81052187  0.76058685  0.04410299  1
  N  N312  1  0.98103600  0.25851500  0.03588165  1
  N  N313  1  0.97996682  0.59259742  0.03880590  1
  N  N314  1  0.29919440  0.09425811  0.04120235  1
  N  N315  1  0.79474569  0.57339661  0.54093743  1
  N  N316  1  0.28532463  0.42487524  0.03903414  1
  N  N317  1  0.94379756  0.92584546  0.04170241  1
  N  N318  1  0.23289212  0.75908609  0.46210091  1
  N  N319  1  0.20919402  0.42606969  0.03910388  1
  N  N320  1  0.96377080  0.59044194  0.46115925  1
  N  N321  1  0.51958342  0.25372785  0.46315046  1
  N  N322  1  0.94713394  0.92522759  0.45603425  1
  N  N323  1  0.70883561  0.24226680  0.54365530  1
  N  N324  1  0.77525958  0.42481017  0.03469470  1
  N  N325  1  0.69747712  0.09242915  0.45901583  1
  N  N326  1  0.79009009  0.23553638  0.53859460  1
  N  N327  1  0.26829302  0.90842990  0.53803270  1
  N  N328  1  0.73213651  0.75988277  0.03612164  1
  N  N329  1  0.31249613  0.43100547  0.45439419  1
  N  N330  1  0.48160814  0.07519802  0.53268093  1
  N  N331  1  0.44286776  0.73782123  0.54325778  1
  N  N332  1  0.45965953  0.40224832  0.53602516  1
  N  N333  1  0.72913424  0.75914918  0.46372500  1
  N  N334  1  0.69741701  0.42519343  0.04267031  1
  N  N335  1  0.26913660  0.08941670  0.46656932  1
  N  N336  1  0.69802658  0.42554373  0.45883373  1
  N  N337  1  0.01808127  0.74317470  0.96305357  1
  N  N338  1  0.48040410  0.40689203  0.96800829  1
  N  N339  1  0.23676987  0.24041935  0.53685846  1
  N  N340  1  0.05752280  0.59455767  0.04574041  1
  N  N341  1  0.69317146  0.57123464  0.95353811  1
  N  N342  1  0.45642421  0.59244163  0.04111608  1
  N  N343  1  0.71058331  0.09214929  0.03691464  1
  N  N344  1  0.45399066  0.07501405  0.96109862  1
  N  N345  1  0.31039602  0.76171872  0.45668255  1
  N  N346  1  0.48404025  0.92622124  0.46425435  1
  N  N347  1  0.53890891  0.40009998  0.53595891  1
  N  N348  1  0.27498058  0.24212466  0.96455142  1
  N  N349  1  0.19098676  0.90478542  0.54586465  1
  N  N350  1  0.31385294  0.23529777  0.54512067  1
  N  N351  1  0.05297302  0.07446628  0.53989638  1
  N  N352  1  0.04725532  0.07506437  0.95903520  1
  N  N353  1  0.27656697  0.90923864  0.96270536  1
  N  N354  1  0.01817699  0.74276073  0.53755980  1
  N  N355  1  0.71630252  0.57444474  0.54035016  1
  N  N356  1  0.44131946  0.26373199  0.45666700  1
  N  N357  1  0.02332941  0.40970451  0.53809908  1
  N  N358  1  0.29969965  0.57158617  0.95746837  1
  N  N359  1  0.54565845  0.59488309  0.45820293  1
  N  N360  1  0.07274364  0.05563181  0.59842901  1
  N  N361  1  0.05831513  0.39111320  0.59243270  1
  N  N362  1  0.05366984  0.72169320  0.59097763  1
  N  N363  1  0.57401944  0.05601171  0.60195244  1
  N  N364  1  0.56244114  0.39212727  0.59482745  1
  N  N365  1  0.55553659  0.72439883  0.59513560  1
  N  N366  1  0.43982334  0.27622110  0.08904758  1
  N  N367  1  0.43469303  0.60868620  0.09928867  1
  N  N368  1  0.44257021  0.94248410  0.09133606  1
  N  N369  1  0.94512018  0.27876181  0.08865279  1
  N  N370  1  0.94213597  0.60752807  0.09167395  1
  N  N371  1  0.93120090  0.94534882  0.10108804  1
  N  N372  1  0.43361545  0.05696671  0.90235529  1
  N  N373  1  0.44593335  0.38980291  0.91184873  1
  N  N374  1  0.43377259  0.72054540  0.90213086  1
  N  N375  1  0.93724640  0.05924204  0.90662796  1
  N  N376  1  0.93614885  0.39072857  0.90812403  1
  N  N377  1  0.92849620  0.72456981  0.89644808  1
  N  N378  1  0.06286984  0.27823875  0.39601789  1
  N  N379  1  0.06509655  0.60804139  0.40445439  1
  N  N380  1  0.06086460  0.94067657  0.41028419  1
  N  N381  1  0.55487243  0.27772971  0.41216152  1
  N  N382  1  0.56479313  0.61055924  0.39895504  1
  N  N383  1  0.57254153  0.94407822  0.39639600  1
  N  N384  1  0.32204256  0.21986170  0.60480561  1
  N  N385  1  0.31421059  0.55690516  0.59824798  1
  N  N386  1  0.30762309  0.89117489  0.58956027  1
  N  N387  1  0.81657244  0.22823116  0.59761357  1
  N  N388  1  0.81321813  0.55660484  0.59875235  1
  N  N389  1  0.81856886  0.88884409  0.59866402  1
  N  N390  1  0.18826624  0.10872616  0.09479890  1
  N  N391  1  0.18440623  0.44362733  0.09694510  1
  N  N392  1  0.18619125  0.77869469  0.10368309  1
  N  N393  1  0.68678311  0.11132219  0.09536964  1
  N  N394  1  0.67962951  0.44194086  0.10064625  1
  N  N395  1  0.69363054  0.77927077  0.08913562  1
  N  N396  1  0.17784435  0.22369828  0.89908243  1
  N  N397  1  0.18689652  0.55551432  0.90643780  1
  N  N398  1  0.18230169  0.89097255  0.89996328  1
  N  N399  1  0.67346909  0.22222463  0.90143319  1
  N  N400  1  0.68215876  0.55428405  0.89386303  1
  N  N401  1  0.69025865  0.89173371  0.90623686  1
  N  N402  1  0.30363253  0.10614641  0.41031660  1
  N  N403  1  0.32043818  0.44686233  0.39391311  1
  N  N404  1  0.32245672  0.77813730  0.39771649  1
  N  N405  1  0.80691538  0.10754210  0.40762359  1
  N  N406  1  0.81228274  0.43989900  0.41129792  1
  N  N407  1  0.82367260  0.77539700  0.40045648  1
  N  N408  1  0.42872253  0.27418119  0.39652984  1
  N  N409  1  0.43679351  0.61040828  0.40219609  1
  N  N410  1  0.44499849  0.94595277  0.41179989  1
  N  N411  1  0.93277034  0.27725161  0.40316553  1
  N  N412  1  0.93611759  0.60919410  0.40440975  1
  N  N413  1  0.93330342  0.94241079  0.39690552  1
  N  N414  1  0.06507574  0.05579891  0.89920432  1
  N  N415  1  0.06707606  0.39078575  0.90726818  1
  N  N416  1  0.05633990  0.72266650  0.91038675  1
  N  N417  1  0.56209132  0.05919033  0.91157095  1
  N  N418  1  0.57278702  0.38629587  0.89933903  1
  N  N419  1  0.56400816  0.72297576  0.89566255  1
  N  N420  1  0.07307873  0.27977052  0.10182888  1
  N  N421  1  0.06810399  0.61139479  0.10452101  1
  N  N422  1  0.05765388  0.93892553  0.08476542  1
  N  N423  1  0.57067118  0.27561310  0.09209747  1
  N  N424  1  0.56353463  0.60848879  0.09417129  1
  N  N425  1  0.57131651  0.94770026  0.10513833  1
  N  N426  1  0.44702837  0.05930255  0.58921692  1
  N  N427  1  0.43472378  0.39238182  0.59413439  1
  N  N428  1  0.42786948  0.72165000  0.60252703  1
  N  N429  1  0.94457070  0.06024318  0.59013533  1
  N  N430  1  0.92974118  0.39101278  0.60133119  1
  N  N431  1  0.92532431  0.72446689  0.60162819  1
  N  N432  1  0.17669657  0.10954859  0.39760928  1
  N  N433  1  0.19443350  0.44272246  0.40981799  1
  N  N434  1  0.19608730  0.77595605  0.40943422  1
  N  N435  1  0.67819940  0.10944928  0.40062104  1
  N  N436  1  0.68519662  0.44411595  0.39792077  1
  N  N437  1  0.69499134  0.77813812  0.40896073  1
  N  N438  1  0.30560352  0.22505809  0.90714880  1
  N  N439  1  0.31438970  0.55461042  0.89778186  1
  N  N440  1  0.31100444  0.88998688  0.90821724  1
  N  N441  1  0.80337470  0.22317338  0.90807419  1
  N  N442  1  0.80894866  0.55625004  0.90650024  1
  N  N443  1  0.81982247  0.88883494  0.90006877  1
  N  N444  1  0.31601357  0.11188705  0.10027692  1
  N  N445  1  0.31113439  0.44145254  0.09692443  1
  N  N446  1  0.31651460  0.78000519  0.09730060  1
  N  N447  1  0.81501474  0.10882698  0.09526489  1
  N  N448  1  0.80600572  0.44109459  0.08982208  1
  N  N449  1  0.82143832  0.77775140  0.10325214  1
  N  N450  1  0.19688979  0.22272643  0.58799117  1
  N  N451  1  0.18407394  0.55692712  0.59761034  1
  N  N452  1  0.18216175  0.88840798  0.60497742  1
  N  N453  1  0.68902612  0.21797751  0.59895502  1
  N  N454  1  0.68616022  0.55671414  0.59506767  1
  N  N455  1  0.68907013  0.89176329  0.59147832  1
  Cl  Cl456  1  0.25656121  0.05191305  0.61707790  1
  Cl  Cl457  1  0.24496999  0.38938316  0.61015851  1
  Cl  Cl458  1  0.23721816  0.72504134  0.60908144  1
  Cl  Cl459  1  0.75960094  0.05732330  0.61250282  1
  Cl  Cl460  1  0.74549459  0.38209780  0.61598759  1
  Cl  Cl461  1  0.73904751  0.72467588  0.60950267  1
  Cl  Cl462  1  0.25447621  0.28077615  0.12784516  1
  Cl  Cl463  1  0.25105271  0.61408059  0.11826954  1
  Cl  Cl464  1  0.25293544  0.94188740  0.11004495  1
  Cl  Cl465  1  0.76234571  0.27724326  0.12121200  1
  Cl  Cl466  1  0.75718532  0.61258884  0.11139597  1
  Cl  Cl467  1  0.75247941  0.94918404  0.11913727  1
  Cl  Cl468  1  0.24993828  0.05039019  0.88386664  1
  Cl  Cl469  1  0.25714117  0.38468475  0.87681083  1
  Cl  Cl470  1  0.24346837  0.72585485  0.88471304  1
  Cl  Cl471  1  0.74968188  0.05336029  0.88012625  1
  Cl  Cl472  1  0.75324862  0.38339556  0.88084073  1
  Cl  Cl473  1  0.74601565  0.72560015  0.88447499  1
  Cl  Cl474  1  0.24513471  0.27491197  0.39390040  1
  Cl  Cl475  1  0.24843431  0.61520049  0.38438479  1
  Cl  Cl476  1  0.25851217  0.93970822  0.39384194  1
  Cl  Cl477  1  0.74119451  0.27251951  0.39831441  1
  Cl  Cl478  1  0.75047462  0.61380543  0.38470717  1
  Cl  Cl479  1  0.75312392  0.94804468  0.38282910  1
  Cl  Cl480  1  0.00617225  0.22188736  0.61053079  1
  Cl  Cl481  1  -0.00380964  0.55287570  0.61718834  1
  Cl  Cl482  1  0.00038414  0.88544589  0.61450460  1
  Cl  Cl483  1  0.50838267  0.23128664  0.60718969  1
  Cl  Cl484  1  0.50162973  0.55055017  0.61673283  1
  Cl  Cl485  1  0.49187130  0.89508904  0.60446317  1
  Cl  Cl486  1  0.00136468  0.11539786  0.12050006  1
  Cl  Cl487  1  -0.00513023  0.44719854  0.12276609  1
  Cl  Cl488  1  0.00408415  0.77834699  0.11526241  1
  Cl  Cl489  1  0.50059211  0.11300567  0.11202069  1
  Cl  Cl490  1  0.49762508  0.44751123  0.12340433  1
  Cl  Cl491  1  0.50697244  0.77626671  0.11254767  1
  Cl  Cl492  1  -0.00924232  0.22543209  0.88801506  1
  Cl  Cl493  1  -0.00551384  0.55682422  0.89284585  1
  Cl  Cl494  1  0.00115673  0.88340669  0.88195209  1
  Cl  Cl495  1  0.49038457  0.21594088  0.87618183  1
  Cl  Cl496  1  0.49729694  0.55419317  0.88503677  1
  Cl  Cl497  1  0.49528407  0.89167775  0.88068402  1
  Cl  Cl498  1  -0.00679786  0.10908646  0.38702961  1
  Cl  Cl499  1  0.00693023  0.44471058  0.39796748  1
  Cl  Cl500  1  0.01290838  0.77372698  0.39414037  1
  Cl  Cl501  1  0.49444187  0.11454524  0.37977229  1
  Cl  Cl502  1  0.50307904  0.44171082  0.39130761  1
  Cl  Cl503  1  0.51101123  0.78198703  0.38380573  1
  Cl  Cl504  1  0.36160125  0.14717678  0.74404659  1
  Cl  Cl505  1  0.36056608  0.48014401  0.74629262  1
  Cl  Cl506  1  0.35765214  0.80991945  0.74939208  1
  Cl  Cl507  1  0.85556980  0.14571109  0.74732234  1
  Cl  Cl508  1  0.85338532  0.47953774  0.74467618  1
  Cl  Cl509  1  0.86243565  0.81170027  0.74789111  1
  Cl  Cl510  1  0.13708083  0.18810570  0.25679539  1
  Cl  Cl511  1  0.13888474  0.52103968  0.25021981  1
  Cl  Cl512  1  0.13682609  0.85476701  0.25026504  1
  Cl  Cl513  1  0.63879841  0.18731783  0.25365032  1
  Cl  Cl514  1  0.63470164  0.52192832  0.25314583  1
  Cl  Cl515  1  0.64368435  0.85288221  0.24947232  1
  Cl  Cl516  1  0.13776472  0.14670948  0.75153490  1
  Cl  Cl517  1  0.13854757  0.48028151  0.74861028  1
  Cl  Cl518  1  0.13667133  0.81379697  0.74689689  1
  Cl  Cl519  1  0.63683443  0.14544311  0.74547552  1
  Cl  Cl520  1  0.63411104  0.47737900  0.75296865  1
  Cl  Cl521  1  0.64190641  0.81408836  0.74958261  1
  Cl  Cl522  1  0.35899401  0.18501398  0.25345131  1
  Cl  Cl523  1  0.36170102  0.52210461  0.25438826  1
  Cl  Cl524  1  0.35738326  0.85453926  0.25346844  1
  Cl  Cl525  1  0.85806441  0.18887925  0.25753117  1
  Cl  Cl526  1  0.85504859  0.52012154  0.25029868  1
  Cl  Cl527  1  0.86565068  0.85396029  0.25133790  1
  Cl  Cl528  1  0.10585699  0.31179485  0.75058137  1
  Cl  Cl529  1  0.10282859  0.64506650  0.74951141  1
  Cl  Cl530  1  0.11200365  0.97910706  0.74930554  1
  Cl  Cl531  1  0.61052679  0.31185066  0.74830125  1
  Cl  Cl532  1  0.61182520  0.64581844  0.75510057  1
  Cl  Cl533  1  0.60756526  0.97776191  0.74556071  1
  Cl  Cl534  1  0.39061800  0.01814550  0.24899430  1
  Cl  Cl535  1  0.38775997  0.35337735  0.25843312  1
  Cl  Cl536  1  0.38669932  0.69003907  0.24558543  1
  Cl  Cl537  1  0.88652461  0.02203191  0.25180683  1
  Cl  Cl538  1  0.88958739  0.35282874  0.25257160  1
  Cl  Cl539  1  0.88995076  0.68629322  0.25286683  1
  Cl  Cl540  1  0.38987925  0.31422744  0.73993280  1
  Cl  Cl541  1  0.38670534  0.64673082  0.74503587  1
  Cl  Cl542  1  0.38778990  0.97805712  0.75179620  1
  Cl  Cl543  1  0.88713090  0.31389122  0.74563462  1
  Cl  Cl544  1  0.88387984  0.64578750  0.74930722  1
  Cl  Cl545  1  0.88963927  0.97980913  0.74679705  1
  Cl  Cl546  1  0.10581793  0.01966804  0.25056750  1
  Cl  Cl547  1  0.11147566  0.35529599  0.25176403  1
  Cl  Cl548  1  0.11056347  0.68728971  0.24607019  1
  Cl  Cl549  1  0.61420868  0.02069410  0.25173332  1
  Cl  Cl550  1  0.60743150  0.35422469  0.25156906  1
  Cl  Cl551  1  0.60527949  0.68654931  0.25094657  1
