# generated using pymatgen
data_H8PbC4(N3Cl2)2
_symmetry_space_group_name_H-M   'P 1'
_cell_length_a   16.62617972
_cell_length_b   22.51383066
_cell_length_c   21.59437694
_cell_angle_alpha   90.00006210
_cell_angle_beta   90.02040592
_cell_angle_gamma   89.99221176
_symmetry_Int_Tables_number   1
_chemical_formula_structural   H8PbC4(N3Cl2)2
_chemical_formula_sum   'H192 Pb24 C96 N144 Cl96'
_cell_volume   8083.18488072
_cell_formula_units_Z   24
loop_
 _symmetry_equiv_pos_site_id
 _symmetry_equiv_pos_as_xyz
  1  'x, y, z'
loop_
 _atom_site_type_symbol
 _atom_site_label
 _atom_site_symmetry_multiplicity
 _atom_site_fract_x
 _atom_site_fract_y
 _atom_site_fract_z
 _atom_site_occupancy
  H  H0  1  0.00348557  0.02890015  0.67608773  1
  H  H1  1  0.00244640  0.36091673  0.67914749  1
  H  H2  1  0.00308475  0.69539104  0.67999103  1
  H  H3  1  0.50616846  0.02630302  0.68034263  1
  H  H4  1  0.50482368  0.36667733  0.68121452  1
  H  H5  1  0.49234380  0.69727514  0.68278472  1
  H  H6  1  -0.00871229  0.30458883  0.18200748  1
  H  H7  1  0.00892928  0.63421467  0.17931016  1
  H  H8  1  -0.00619813  0.97111837  0.17803229  1
  H  H9  1  0.50105920  0.30561151  0.17871335  1
  H  H10  1  0.49090109  0.63618050  0.17539417  1
  H  H11  1  0.49929282  0.97493007  0.17476918  1
  H  H12  1  -0.00907103  0.02945184  0.82272278  1
  H  H13  1  -0.01353468  0.36731048  0.82448106  1
  H  H14  1  0.00546336  0.69699399  0.82241351  1
  H  H15  1  0.50102017  0.02907396  0.82255359  1
  H  H16  1  0.49198076  0.36299254  0.82219344  1
  H  H17  1  0.50693609  0.69357174  0.82323062  1
  H  H18  1  0.00973762  0.30460783  0.32439463  1
  H  H19  1  -0.00992494  0.63396753  0.32597422  1
  H  H20  1  -0.00367232  0.96881514  0.32125435  1
  H  H21  1  0.48446655  0.30221707  0.31798115  1
  H  H22  1  0.49460999  0.63725270  0.31766243  1
  H  H23  1  0.49720469  0.96608055  0.31901027  1
  H  H24  1  0.24583788  0.19704446  0.68250116  1
  H  H25  1  0.25838580  0.52716418  0.67576697  1
  H  H26  1  0.25482139  0.86267835  0.67692408  1
  H  H27  1  0.73810943  0.19886566  0.67894597  1
  H  H28  1  0.74410326  0.52911543  0.68085001  1
  H  H29  1  0.75347707  0.86085746  0.67667488  1
  H  H30  1  0.25073006  0.13786090  0.17871286  1
  H  H31  1  0.25784795  0.46923019  0.17541735  1
  H  H32  1  0.24372629  0.80267157  0.17905136  1
  H  H33  1  0.74835415  0.13435994  0.18037221  1
  H  H34  1  0.74929401  0.47188193  0.17824698  1
  H  H35  1  0.74989657  0.80015380  0.18047052  1
  H  H36  1  0.23993049  0.19561585  0.82016887  1
  H  H37  1  0.25129717  0.53147866  0.82272953  1
  H  H38  1  0.23230086  0.86478820  0.82361312  1
  H  H39  1  0.75713906  0.20132075  0.82163663  1
  H  H40  1  0.75666092  0.52860703  0.82005000  1
  H  H41  1  0.75806837  0.86251987  0.82107585  1
  H  H42  1  0.24040515  0.13924918  0.32107093  1
  H  H43  1  0.26019651  0.46877561  0.31984490  1
  H  H44  1  0.25296134  0.80510185  0.31776109  1
  H  H45  1  0.74404030  0.13861951  0.32264025  1
  H  H46  1  0.74164378  0.46875540  0.31747277  1
  H  H47  1  0.74282817  0.80143785  0.31937839  1
  H  H48  1  0.11315537  0.06037757  0.59598649  1
  H  H49  1  0.12301496  0.38789066  0.60509539  1
  H  H50  1  0.12139190  0.71983514  0.60595303  1
  H  H51  1  0.61618731  0.05756447  0.59919991  1
  H  H52  1  0.61895580  0.38706908  0.60372893  1
  H  H53  1  0.62213920  0.72005149  0.61634049  1
  H  H54  1  0.37986993  0.28076907  0.10627798  1
  H  H55  1  0.36815765  0.61031318  0.10480061  1
  H  H56  1  0.37879367  0.94433903  0.10200195  1
  H  H57  1  0.88306391  0.27863422  0.09896740  1
  H  H58  1  0.86976052  0.61690889  0.12520088  1
  H  H59  1  0.88214808  0.94281980  0.09718059  1
  H  H60  1  0.37866363  0.05530808  0.89327127  1
  H  H61  1  0.38023767  0.39095659  0.90148836  1
  H  H62  1  0.37290312  0.71734872  0.88423694  1
  H  H63  1  0.88595937  0.05921448  0.90636981  1
  H  H64  1  0.88286273  0.39159215  0.90829531  1
  H  H65  1  0.86786890  0.71446259  0.87989725  1
  H  H66  1  0.11643567  0.27346061  0.40504483  1
  H  H67  1  0.12833114  0.61628713  0.37730576  1
  H  H68  1  0.13406478  0.94937092  0.37949492  1
  H  H69  1  0.61657636  0.28073529  0.38239343  1
  H  H70  1  0.63241810  0.61712949  0.37628912  1
  H  H71  1  0.63234501  0.94542450  0.38174948  1
  H  H72  1  0.37618150  0.21991001  0.61570262  1
  H  H73  1  0.36447728  0.55654712  0.59242376  1
  H  H74  1  0.36650592  0.89078051  0.59780907  1
  H  H75  1  0.87456531  0.21937178  0.62095151  1
  H  H76  1  0.87095328  0.55322820  0.61200165  1
  H  H77  1  0.86293389  0.89176601  0.59675490  1
  H  H78  1  0.12176157  0.11321112  0.11266684  1
  H  H79  1  0.12314815  0.44964957  0.11892059  1
  H  H80  1  0.13840606  0.77652551  0.09543429  1
  H  H81  1  0.61675447  0.11339015  0.11748152  1
  H  H82  1  0.62230431  0.44910452  0.10957123  1
  H  H83  1  0.63759649  0.77398736  0.09893755  1
  H  H84  1  0.12432805  0.22269468  0.89456689  1
  H  H85  1  0.13817965  0.55365872  0.90080533  1
  H  H86  1  0.12523741  0.89348399  0.90639575  1
  H  H87  1  0.61886938  0.21732127  0.87821449  1
  H  H88  1  0.63302599  0.55481209  0.89078677  1
  H  H89  1  0.61908382  0.88305637  0.87690606  1
  H  H90  1  0.37982255  0.11517646  0.37176728  1
  H  H91  1  0.37639431  0.44299611  0.39849111  1
  H  H92  1  0.37521948  0.78065364  0.39172146  1
  H  H93  1  0.88359971  0.11753987  0.37588791  1
  H  H94  1  0.87623734  0.45004227  0.37659862  1
  H  H95  1  0.87836466  0.78130329  0.37781772  1
  H  H96  1  0.36813714  0.27853731  0.39601780  1
  H  H97  1  0.38543382  0.60910320  0.39892668  1
  H  H98  1  0.38515348  0.94343754  0.40180446  1
  H  H99  1  0.87126243  0.28540186  0.37593042  1
  H  H100  1  0.88391175  0.60829715  0.40920290  1
  H  H101  1  0.88630871  0.94059438  0.40104775  1
  H  H102  1  0.13106495  0.04986698  0.87473488  1
  H  H103  1  0.12694139  0.38192528  0.87590991  1
  H  H104  1  0.11377934  0.72770713  0.90326149  1
  H  H105  1  0.62752173  0.05453025  0.89096035  1
  H  H106  1  0.62783930  0.38462253  0.88181802  1
  H  H107  1  0.62054259  0.72206985  0.90113814  1
  H  H108  1  0.12954180  0.28548151  0.12429163  1
  H  H109  1  0.11590161  0.60634428  0.09573780  1
  H  H110  1  0.12887719  0.94701523  0.11855686  1
  H  H111  1  0.62876074  0.27791588  0.11181410  1
  H  H112  1  0.61706745  0.61446100  0.10959559  1
  H  H113  1  0.62646497  0.94761249  0.10907015  1
  H  H114  1  0.37028520  0.04832877  0.62506774  1
  H  H115  1  0.37064790  0.38537881  0.62040974  1
  H  H116  1  0.37315032  0.72188305  0.60794885  1
  H  H117  1  0.86690705  0.04990257  0.61825530  1
  H  H118  1  0.87503116  0.38432760  0.61128701  1
  H  H119  1  0.87253662  0.71755859  0.61722731  1
  H  H120  1  0.13540703  0.10870470  0.40505002  1
  H  H121  1  0.12836939  0.44723411  0.38604338  1
  H  H122  1  0.12672136  0.77822817  0.38662343  1
  H  H123  1  0.63999583  0.10644000  0.40762546  1
  H  H124  1  0.62827196  0.44532869  0.39596226  1
  H  H125  1  0.63043396  0.77783935  0.39776351  1
  H  H126  1  0.37266692  0.21622490  0.88207101  1
  H  H127  1  0.38626013  0.55079983  0.88253574  1
  H  H128  1  0.37101519  0.88331967  0.87965089  1
  H  H129  1  0.86453149  0.22328567  0.90637980  1
  H  H130  1  0.88186159  0.55163456  0.88997391  1
  H  H131  1  0.86601768  0.89118211  0.90259757  1
  H  H132  1  0.37046575  0.11177304  0.10423090  1
  H  H133  1  0.36987577  0.44478619  0.09626073  1
  H  H134  1  0.38353349  0.78370835  0.12803108  1
  H  H135  1  0.86561286  0.11165338  0.10606612  1
  H  H136  1  0.87169209  0.44559410  0.10592121  1
  H  H137  1  0.88467587  0.77958853  0.11725986  1
  H  H138  1  0.12730980  0.22285309  0.60813009  1
  H  H139  1  0.11861905  0.55042759  0.62353452  1
  H  H140  1  0.11972364  0.88550983  0.61816553  1
  H  H141  1  0.62860923  0.22306359  0.59471686  1
  H  H142  1  0.62193878  0.55384361  0.60808138  1
  H  H143  1  0.61677681  0.88169024  0.61914985  1
  H  H144  1  0.79655016  0.91982805  1.00744551  1
  H  H145  1  0.04109237  0.08018648  0.49433396  1
  H  H146  1  0.67410390  0.58497604  0.50118088  1
  H  H147  1  0.64255645  0.23762995  0.98858415  1
  H  H148  1  0.39221923  0.07909277  0.51136026  1
  H  H149  1  0.79102814  0.90450631  0.49450390  1
  H  H150  1  0.71867262  0.08425289  0.50703487  1
  H  H151  1  0.90232435  0.74632835  0.50482000  1
  H  H152  1  0.88899509  0.25102468  0.48996720  1
  H  H153  1  0.69991540  0.25582788  0.49768999  1
  H  H154  1  0.64355406  0.91720337  0.51357347  1
  H  H155  1  0.96204374  0.08346564  1.00647208  1
  H  H156  1  0.54707433  0.07918588  0.49758910  1
  H  H157  1  0.11340396  0.58629697  0.49373252  1
  H  H158  1  0.16184951  0.08382082  0.00242115  1
  H  H159  1  0.57633798  0.58166198  -0.00219563  1
  H  H160  1  0.45549361  0.57982242  0.50267617  1
  H  H161  1  0.18022884  0.25485566  1.00240814  1
  H  H162  1  0.42818265  0.25327756  0.50245972  1
  H  H163  1  0.43016193  0.75442865  0.50174960  1
  H  H164  1  0.85015551  0.42219831  0.48967706  1
  H  H165  1  0.36863908  0.75464649  1.01393107  1
  H  H166  1  0.10797490  0.91934590  0.48718648  1
  H  H167  1  0.28872135  0.58090936  0.49189580  1
  H  H168  1  0.04320258  0.57429283  -0.00202176  1
  H  H169  1  0.78924568  0.26012204  1.00020955  1
  H  H170  1  0.80977172  0.08311221  -0.00464510  1
  H  H171  1  0.06913354  0.74756722  0.49721882  1
  H  H172  1  0.55830820  0.41433652  0.49374163  1
  H  H173  1  0.95411857  0.91714358  -0.00442039  1
  H  H174  1  0.43101498  0.24712771  -0.00028002  1
  H  H175  1  0.95449621  0.25288938  -0.00524445  1
  H  H176  1  0.69116614  0.74879638  0.50508894  1
  H  H177  1  0.95322721  0.91248141  0.50717882  1
  H  H178  1  0.88709292  0.58570142  0.01181583  1
  H  H179  1  0.04045242  0.74509383  1.00525593  1
  H  H180  1  0.06559953  0.41623843  0.50196955  1
  H  H181  1  0.20940562  0.75002314  -0.00930926  1
  H  H182  1  0.68985958  0.41934850  0.50453346  1
  H  H183  1  0.64266508  0.91241760  0.98454477  1
  H  H184  1  0.18510906  0.25412888  0.50102020  1
  H  H185  1  0.43498476  0.91601206  -0.00058188  1
  H  H186  1  0.89468919  0.08762338  0.51277453  1
  H  H187  1  0.19954678  0.58175476  1.00956319  1
  H  H188  1  0.66796159  0.41954833  0.00055065  1
  H  H189  1  0.21311331  0.08320687  0.50495950  1
  H  H190  1  0.89298664  0.75169812  0.98511727  1
  H  H191  1  0.14312816  0.41687317  0.00417895  1
  Pb  Pb192  1  0.24787511  0.04523243  0.74182283  1
  Pb  Pb193  1  0.24842834  0.38015264  0.75354356  1
  Pb  Pb194  1  0.24583201  0.71389622  0.75067491  1
  Pb  Pb195  1  0.74581276  0.04968173  0.75240281  1
  Pb  Pb196  1  0.74930234  0.37987326  0.75040846  1
  Pb  Pb197  1  0.74582459  0.71256893  0.75257935  1
  Pb  Pb198  1  0.25339521  0.28656311  0.25595629  1
  Pb  Pb199  1  0.25770593  0.61631414  0.25132562  1
  Pb  Pb200  1  0.26061481  0.95154180  0.25140665  1
  Pb  Pb201  1  0.75778710  0.28361926  0.24436690  1
  Pb  Pb202  1  0.75507994  0.61986858  0.25444054  1
  Pb  Pb203  1  0.75824638  0.95083959  0.25023820  1
  Pb  Pb204  1  -0.00106774  0.21332714  0.75753115  1
  Pb  Pb205  1  -0.00148136  0.54592473  0.76016456  1
  Pb  Pb206  1  -0.00501044  0.88115188  0.75275286  1
  Pb  Pb207  1  0.49611946  0.21457961  0.74331623  1
  Pb  Pb208  1  0.49826357  0.54699080  0.74327780  1
  Pb  Pb209  1  0.49613823  0.87899136  0.75006507  1
  Pb  Pb210  1  0.00997963  0.11672737  0.24872200  1
  Pb  Pb211  1  0.00266971  0.45233640  0.25294267  1
  Pb  Pb212  1  0.01062050  0.78309269  0.24330476  1
  Pb  Pb213  1  0.50607489  0.11945406  0.25848125  1
  Pb  Pb214  1  0.50716106  0.45073865  0.25081510  1
  Pb  Pb215  1  0.50922179  0.78389110  0.25095564  1
  C  C216  1  -0.00581994  0.04621297  0.62959233  1
  C  C217  1  0.00052874  0.37705472  0.63181932  1
  C  C218  1  -0.00118219  0.71108873  0.63247549  1
  C  C219  1  0.49763642  0.04287665  0.63351296  1
  C  C220  1  0.49827127  0.37987933  0.63329321  1
  C  C221  1  0.49602574  0.71285809  0.63531361  1
  C  C222  1  0.00162390  0.28982197  0.13481526  1
  C  C223  1  -0.00172954  0.61945104  0.13202659  1
  C  C224  1  0.00119448  0.95454034  0.13118218  1
  C  C225  1  0.50353016  0.28831746  0.13183335  1
  C  C226  1  0.49248634  0.62042244  0.12805634  1
  C  C227  1  0.50117376  0.95631258  0.12845916  1
  C  C228  1  0.00242587  0.04494262  0.86949629  1
  C  C229  1  -0.00072358  0.38075764  0.87162977  1
  C  C230  1  -0.00461263  0.71273704  0.86943473  1
  C  C231  1  0.50273468  0.04585655  0.86940303  1
  C  C232  1  0.50044976  0.37936595  0.86878898  1
  C  C233  1  0.49972258  0.71040124  0.86969960  1
  C  C234  1  -0.00196990  0.28807637  0.37061157  1
  C  C235  1  0.00175260  0.61941687  0.37294007  1
  C  C236  1  0.00629422  0.95286858  0.36819058  1
  C  C237  1  0.48986324  0.28757051  0.36561799  1
  C  C238  1  0.50457049  0.62186762  0.36469183  1
  C  C239  1  0.50511378  0.95215495  0.36679897  1
  C  C240  1  0.25008514  0.21310758  0.63523912  1
  C  C241  1  0.24750713  0.54348710  0.62929727  1
  C  C242  1  0.24654384  0.87902226  0.63036120  1
  C  C243  1  0.74677467  0.21354243  0.63160233  1
  C  C244  1  0.74561992  0.54536590  0.63359041  1
  C  C245  1  0.74416136  0.87755128  0.62988653  1
  C  C246  1  0.24747933  0.12158537  0.13152475  1
  C  C247  1  0.24953238  0.45428041  0.12808255  1
  C  C248  1  0.25575890  0.78802898  0.13202420  1
  C  C249  1  0.74387826  0.12014148  0.13261959  1
  C  C250  1  0.74776664  0.45520097  0.13119510  1
  C  C251  1  0.75768136  0.78600371  0.13271819  1
  C  C252  1  0.24533300  0.21156589  0.86731738  1
  C  C253  1  0.25850684  0.54539168  0.87043938  1
  C  C254  1  0.24318888  0.88035436  0.87021077  1
  C  C255  1  0.74653340  0.21408060  0.86958114  1
  C  C256  1  0.75706292  0.54498303  0.86709224  1
  C  C257  1  0.74705243  0.87838229  0.86789854  1
  C  C258  1  0.25183565  0.12319437  0.36762406  1
  C  C259  1  0.25490064  0.45359297  0.36740144  1
  C  C260  1  0.25162858  0.78867569  0.36496249  1
  C  C261  1  0.75572654  0.12244311  0.36912387  1
  C  C262  1  0.74911195  0.45477422  0.36528891  1
  C  C263  1  0.75025183  0.78698054  0.36688248  1
  C  C264  1  0.98414220  0.40762933  0.96832758  1
  C  C265  1  0.22023620  0.24217887  0.54175837  1
  C  C266  1  0.53487323  0.59233947  0.03508040  1
  C  C267  1  0.46976944  0.25794086  0.03937356  1
  C  C268  1  0.43895039  0.07101942  0.54686145  1
  C  C269  1  0.06691700  0.07256309  0.95469868  1
  C  C270  1  0.31594057  0.09192776  0.45134955  1
  C  C271  1  0.03119114  0.73768053  0.53691630  1
  C  C272  1  0.52502144  0.74293334  0.96322389  1
  C  C273  1  0.98387822  0.26311910  0.03868707  1
  C  C274  1  0.23870807  0.76146726  0.03426306  1
  C  C275  1  0.21617594  0.24155994  0.96270800  1
  C  C276  1  0.93755779  0.25988438  0.45726348  1
  C  C277  1  0.46768961  0.07787170  0.96094480  1
  C  C278  1  0.06345374  0.59431319  0.46050727  1
  C  C279  1  0.98294916  0.59106653  0.46945803  1
  C  C280  1  0.29722004  0.23823879  0.95709284  1
  C  C281  1  0.44416269  0.40397321  0.54374356  1
  C  C282  1  0.77457825  0.09355193  0.03644264  1
  C  C283  1  0.93623402  0.59432687  0.04566820  1
  C  C284  1  0.20497236  0.09399868  0.04020771  1
  C  C285  1  0.80704946  0.76151457  0.45564335  1
  C  C286  1  0.26972178  0.91064946  0.53593088  1
  C  C287  1  0.70827573  0.42849342  0.03912634  1
  C  C288  1  0.76779026  0.90856219  0.96373770  1
  C  C289  1  0.48563646  0.59250365  0.45977176  1
  C  C290  1  0.06385117  0.40421631  0.95762480  1
  C  C291  1  0.31933141  0.76374219  0.04585057  1
  C  C292  1  0.46585155  0.74186734  0.54187573  1
  C  C293  1  0.31451403  0.56962376  0.96030605  1
  C  C294  1  0.72257938  0.42941410  0.46221109  1
  C  C295  1  0.79628996  0.57390658  0.95932927  1
  C  C296  1  0.46288067  0.26293256  0.46105844  1
  C  C297  1  0.01815988  0.25551223  0.46585810  1
  C  C298  1  0.80415290  0.43127055  0.45523192  1
  C  C299  1  0.18453546  0.57353981  0.54457962  1
  C  C300  1  0.27486641  0.42578940  0.03261538  1
  C  C301  1  0.47758409  0.41183841  0.96262790  1
  C  C302  1  0.72590312  0.75989929  0.46405676  1
  C  C303  1  0.22589691  0.91196145  0.96510970  1
  C  C304  1  0.52499159  0.40469366  0.53595785  1
  C  C305  1  0.69335857  0.09412705  0.04226666  1
  C  C306  1  0.19373675  0.42699991  0.03871094  1
  C  C307  1  0.98312916  0.92386653  0.46391292  1
  C  C308  1  0.45282000  0.59127881  0.03464552  1
  C  C309  1  0.23307497  0.57130003  0.96765890  1
  C  C310  1  0.94910341  0.73651786  0.54074351  1
  C  C311  1  0.71194710  0.57381578  0.54057182  1
  N  N312  1  0.79112194  0.57387808  0.54148596  1
  N  N313  1  0.26263135  0.57530560  0.53492612  1
  N  N314  1  0.06185708  0.92632141  0.45506334  1
  N  N315  1  0.56425896  0.59469262  0.45223406  1
  N  N316  1  0.01507166  0.59153318  0.03648992  1
  N  N317  1  0.54520661  0.74063216  0.54413230  1
  N  N318  1  0.30276154  0.90892724  0.95788542  1
  N  N319  1  0.01544513  0.74811834  0.96147393  1
  N  N320  1  0.44792232  0.74089063  0.95849911  1
  N  N321  1  0.28411083  0.09324054  0.03696348  1
  N  N322  1  0.01582308  0.08224436  0.53802457  1
  N  N323  1  0.21063208  0.75851839  0.45671291  1
  N  N324  1  0.23832344  0.09051304  0.46176707  1
  N  N325  1  0.47002221  0.92317976  0.03800095  1
  N  N326  1  0.95364373  0.40542907  0.54090941  1
  N  N327  1  0.98053987  0.92339170  0.03835794  1
  N  N328  1  0.73314081  0.76091227  0.03603453  1
  N  N329  1  0.78752901  0.42613295  0.03768393  1
  N  N330  1  0.54844178  0.92539169  0.03855626  1
  N  N331  1  0.68797440  0.89950592  0.54250743  1
  N  N332  1  0.51784420  0.07456601  0.53953112  1
  N  N333  1  0.68746555  0.23887023  0.95508062  1
  N  N334  1  0.71864279  0.57553784  0.96093399  1
  N  N335  1  0.93844111  0.06996256  0.54265717  1
  N  N336  1  0.28386012  0.42568093  0.46265424  1
  N  N337  1  0.54207732  0.26359133  0.45711594  1
  N  N338  1  0.76576545  0.91181249  0.53734411  1
  N  N339  1  0.93818802  0.73443354  0.95639827  1
  N  N340  1  0.81939575  0.09799158  0.45447636  1
  N  N341  1  0.06228699  0.26422462  0.04725955  1
  N  N342  1  0.72824031  0.24128696  0.53723774  1
  N  N343  1  0.55708756  0.93082361  0.45778604  1
  N  N344  1  0.54514769  0.07764643  0.96148695  1
  N  N345  1  0.55474407  0.40988812  0.95763545  1
  N  N346  1  0.19249158  0.90841175  0.54139910  1
  N  N347  1  0.05814262  0.92514874  0.04432749  1
  N  N348  1  0.68930253  0.90652081  0.95341644  1
  N  N349  1  0.98889488  0.07545762  0.96442885  1
  N  N350  1  0.76534086  0.23228298  0.96714257  1
  N  N351  1  0.54908469  0.25555349  0.04120758  1
  N  N352  1  0.74280989  0.09177519  0.46314036  1
  N  N353  1  0.29950098  0.24119569  0.54431982  1
  N  N354  1  0.80926665  0.76437219  0.04172160  1
  N  N355  1  0.28732195  0.75957656  0.45839514  1
  N  N356  1  0.48083120  0.92888340  0.46403451  1
  N  N357  1  0.03160929  0.40723851  0.54045199  1
  N  N358  1  0.80550654  0.23968252  0.54473262  1
  N  N359  1  0.20741831  0.42717609  0.45861581  1
  N  N360  1  0.05093324  0.05772856  0.58822570  1
  N  N361  1  0.06173517  0.38848388  0.59476655  1
  N  N362  1  0.06069959  0.72221109  0.59448892  1
  N  N363  1  0.55397662  0.05418235  0.59201701  1
  N  N364  1  0.55794043  0.38956471  0.59317017  1
  N  N365  1  0.56201847  0.72272674  0.60255258  1
  N  N366  1  0.44068102  0.27750559  0.09466203  1
  N  N367  1  0.42796328  0.60819036  0.09124241  1
  N  N368  1  0.44002743  0.94366394  0.09171105  1
  N  N369  1  0.94517442  0.27801910  0.09219517  1
  N  N370  1  0.92600961  0.61205804  0.10493371  1
  N  N371  1  0.94413972  0.94358769  0.09001855  1
  N  N372  1  0.43887884  0.05870884  0.90561070  1
  N  N373  1  0.44200323  0.39334910  0.90968508  1
  N  N374  1  0.43153131  0.72038122  0.89952135  1
  N  N375  1  0.94806370  0.05603706  0.91255450  1
  N  N376  1  0.94466128  0.39335288  0.91607342  1
  N  N377  1  0.92532586  0.72242762  0.89655134  1
  N  N378  1  0.05446524  0.27245968  0.41355618  1
  N  N379  1  0.07358879  0.61172718  0.39905192  1
  N  N380  1  0.07583454  0.94434406  0.39617792  1
  N  N381  1  0.55683048  0.27886986  0.39747652  1
  N  N382  1  0.57421869  0.61273808  0.39277619  1
  N  N383  1  0.57338334  0.94468240  0.39733397  1
  N  N384  1  0.31623725  0.22330459  0.60271942  1
  N  N385  1  0.30219835  0.55374883  0.58635971  1
  N  N386  1  0.30499663  0.89307403  0.58948282  1
  N  N387  1  0.81675848  0.22269325  0.60338044  1
  N  N388  1  0.81029016  0.55620390  0.59956889  1
  N  N389  1  0.80105958  0.88785350  0.58824462  1
  N  N390  1  0.18107302  0.11098663  0.09825739  1
  N  N391  1  0.17976831  0.44482935  0.09957364  1
  N  N392  1  0.20038012  0.77667192  0.08849394  1
  N  N393  1  0.67508991  0.10995275  0.10011472  1
  N  N394  1  0.68230128  0.44562094  0.09643916  1
  N  N395  1  0.69997966  0.77458120  0.09200116  1
  N  N396  1  0.18476544  0.22473556  0.90557942  1
  N  N397  1  0.19932652  0.55612551  0.91067644  1
  N  N398  1  0.18683611  0.89473825  0.91289994  1
  N  N399  1  0.67604871  0.21843396  0.89759585  1
  N  N400  1  0.69416111  0.55716430  0.90204095  1
  N  N401  1  0.67692694  0.88681206  0.89488235  1
  N  N402  1  0.32483122  0.11089768  0.39265738  1
  N  N403  1  0.31451547  0.44164909  0.40636282  1
  N  N404  1  0.31389491  0.77850617  0.40175872  1
  N  N405  1  0.82733713  0.11424432  0.39504874  1
  N  N406  1  0.81902724  0.44684552  0.39499333  1
  N  N407  1  0.82106187  0.77758333  0.39674709  1
  N  N408  1  0.42933603  0.27709161  0.40527304  1
  N  N409  1  0.44771572  0.60913466  0.40659013  1
  N  N410  1  0.44748092  0.94201888  0.40795625  1
  N  N411  1  0.92652485  0.27987278  0.39703584  1
  N  N412  1  0.94587765  0.60638283  0.41692783  1
  N  N413  1  0.94812614  0.94000109  0.40989941  1
  N  N414  1  0.07531851  0.05494379  0.89551337  1
  N  N415  1  0.07230347  0.38790068  0.89780227  1
  N  N416  1  0.05163978  0.72412484  0.91130514  1
  N  N417  1  0.56724980  0.05734611  0.90311700  1
  N  N418  1  0.56911782  0.38958072  0.89756048  1
  N  N419  1  0.55906455  0.72441918  0.90984213  1
  N  N420  1  0.07149828  0.28127821  0.10695110  1
  N  N421  1  0.05328498  0.60620865  0.09002562  1
  N  N422  1  0.07040136  0.94276046  0.10273671  1
  N  N423  1  0.56856372  0.27499072  0.09944381  1
  N  N424  1  0.55806755  0.61053192  0.09406338  1
  N  N425  1  0.56696296  0.94412965  0.09582000  1
  N  N426  1  0.42637326  0.05313440  0.60572479  1
  N  N427  1  0.42839175  0.38915766  0.60240382  1
  N  N428  1  0.43422908  0.72487078  0.59741508  1
  N  N429  1  0.92445580  0.05748350  0.60233038  1
  N  N430  1  0.93486184  0.38781284  0.59838313  1
  N  N431  1  0.93096363  0.72014640  0.60052850  1
  N  N432  1  0.19777143  0.11317482  0.41120144  1
  N  N433  1  0.18844336  0.44458009  0.39966021  1
  N  N434  1  0.18738195  0.77603149  0.39877362  1
  N  N435  1  0.70239500  0.11000498  0.41260212  1
  N  N436  1  0.68957294  0.44401865  0.40575888  1
  N  N437  1  0.69168395  0.77607027  0.40741884  1
  N  N438  1  0.31438777  0.22047528  0.89931336  1
  N  N439  1  0.32879021  0.55418993  0.90114610  1
  N  N440  1  0.31333960  0.88907621  0.89720247  1
  N  N441  1  0.80200654  0.22724282  0.91134910  1
  N  N442  1  0.82213169  0.55558401  0.90251774  1
  N  N443  1  0.80397975  0.89188174  0.91041870  1
  N  N444  1  0.30888054  0.11059338  0.09409025  1
  N  N445  1  0.30853454  0.44218330  0.08634766  1
  N  N446  1  0.32837595  0.77989249  0.10640147  1
  N  N447  1  0.80510847  0.11000629  0.09405275  1
  N  N448  1  0.81034452  0.44288693  0.09533666  1
  N  N449  1  0.82582158  0.77978045  0.10175662  1
  N  N450  1  0.18838907  0.22503741  0.59715204  1
  N  N451  1  0.17494031  0.55538843  0.60349652  1
  N  N452  1  0.17781216  0.88836392  0.60141354  1
  N  N453  1  0.69084194  0.22535696  0.58982901  1
  N  N454  1  0.68234744  0.55650088  0.59689015  1
  N  N455  1  0.67459191  0.88844084  0.60248569  1
  Cl  Cl456  1  0.23283792  0.06015775  0.60069736  1
  Cl  Cl457  1  0.24324625  0.38694363  0.62166862  1
  Cl  Cl458  1  0.24877475  0.71609742  0.61965883  1
  Cl  Cl459  1  0.73718493  0.06025221  0.60180029  1
  Cl  Cl460  1  0.74686416  0.38501915  0.61449350  1
  Cl  Cl461  1  0.74651592  0.72317111  0.61998341  1
  Cl  Cl462  1  0.25714066  0.28111245  0.12370540  1
  Cl  Cl463  1  0.23775778  0.60870892  0.11708030  1
  Cl  Cl464  1  0.25650129  0.94643139  0.11884263  1
  Cl  Cl465  1  0.75826880  0.27625107  0.10567022  1
  Cl  Cl466  1  0.74409414  0.61477683  0.12673217  1
  Cl  Cl467  1  0.75817728  0.94425333  0.11117564  1
  Cl  Cl468  1  0.25586734  0.05039851  0.87243483  1
  Cl  Cl469  1  0.25936573  0.38748467  0.88517951  1
  Cl  Cl470  1  0.23467853  0.72590261  0.88575816  1
  Cl  Cl471  1  0.76118912  0.05676158  0.88611627  1
  Cl  Cl472  1  0.75611746  0.38301172  0.88288803  1
  Cl  Cl473  1  0.74259667  0.71956201  0.88398234  1
  Cl  Cl474  1  0.23767042  0.27397766  0.39081112  1
  Cl  Cl475  1  0.26552701  0.60510776  0.39158392  1
  Cl  Cl476  1  0.26137204  0.94832618  0.38729156  1
  Cl  Cl477  1  0.73914585  0.27539527  0.38094141  1
  Cl  Cl478  1  0.76226948  0.61356606  0.38685394  1
  Cl  Cl479  1  0.76145013  0.93967618  0.39135046  1
  Cl  Cl480  1  0.00363622  0.21982914  0.62501939  1
  Cl  Cl481  1  -0.00598737  0.54985045  0.62862349  1
  Cl  Cl482  1  -0.01533993  0.89487909  0.61479835  1
  Cl  Cl483  1  0.50681039  0.21975456  0.60930118  1
  Cl  Cl484  1  0.48777137  0.55627432  0.60732102  1
  Cl  Cl485  1  0.49144858  0.88570623  0.61881634  1
  Cl  Cl486  1  -0.00795739  0.10718008  0.11161905  1
  Cl  Cl487  1  -0.00577537  0.45074350  0.12232015  1
  Cl  Cl488  1  0.01485534  0.77027511  0.10317018  1
  Cl  Cl489  1  0.49186429  0.11287201  0.12748181  1
  Cl  Cl490  1  0.49565439  0.44777618  0.11838905  1
  Cl  Cl491  1  0.51629178  0.77649211  0.11789128  1
  Cl  Cl492  1  -0.01383419  0.22035629  0.89406495  1
  Cl  Cl493  1  0.01045607  0.55667650  0.89756588  1
  Cl  Cl494  1  -0.00877647  0.89285790  0.89488476  1
  Cl  Cl495  1  0.49578558  0.21817787  0.87633643  1
  Cl  Cl496  1  0.51051696  0.55208066  0.87542774  1
  Cl  Cl497  1  0.49559175  0.88666353  0.88582612  1
  Cl  Cl498  1  0.01586698  0.10238571  0.39315524  1
  Cl  Cl499  1  0.00631609  0.44193732  0.38845310  1
  Cl  Cl500  1  0.00418022  0.78071288  0.37584791  1
  Cl  Cl501  1  0.51985884  0.10376723  0.39849056  1
  Cl  Cl502  1  0.50119003  0.44484236  0.38652748  1
  Cl  Cl503  1  0.49929091  0.77884427  0.38520124  1
  Cl  Cl504  1  0.35906655  0.14683219  0.74260224  1
  Cl  Cl505  1  0.36046021  0.48006935  0.74742440  1
  Cl  Cl506  1  0.35590050  0.81554002  0.75625406  1
  Cl  Cl507  1  0.86134420  0.14740060  0.74176376  1
  Cl  Cl508  1  0.85929720  0.48138063  0.74944053  1
  Cl  Cl509  1  0.85734249  0.81429414  0.75138130  1
  Cl  Cl510  1  0.14291983  0.18436634  0.24621575  1
  Cl  Cl511  1  0.13649268  0.52117796  0.25449504  1
  Cl  Cl512  1  0.14106991  0.85490115  0.24703483  1
  Cl  Cl513  1  0.63925184  0.18741793  0.24253907  1
  Cl  Cl514  1  0.64143348  0.52092216  0.25349206  1
  Cl  Cl515  1  0.64351262  0.85310978  0.25103137  1
  Cl  Cl516  1  0.13797624  0.14635402  0.75259302  1
  Cl  Cl517  1  0.13933651  0.48196652  0.75047368  1
  Cl  Cl518  1  0.13317350  0.81537821  0.74328185  1
  Cl  Cl519  1  0.64544843  0.14830699  0.75132020  1
  Cl  Cl520  1  0.63908644  0.48172919  0.74869213  1
  Cl  Cl521  1  0.63742800  0.81579987  0.74828190  1
  Cl  Cl522  1  0.36505365  0.18537212  0.25877360  1
  Cl  Cl523  1  0.35699321  0.51925574  0.24598258  1
  Cl  Cl524  1  0.36142399  0.85392910  0.24430494  1
  Cl  Cl525  1  0.86094315  0.18643284  0.25540757  1
  Cl  Cl526  1  0.86505859  0.52036175  0.25111473  1
  Cl  Cl527  1  0.86475019  0.85492087  0.25069026  1
  Cl  Cl528  1  0.11042481  0.31434318  0.75955812  1
  Cl  Cl529  1  0.10568274  0.64905966  0.75165357  1
  Cl  Cl530  1  0.10741747  0.98149086  0.74989490  1
  Cl  Cl531  1  0.61192098  0.31241803  0.75668150  1
  Cl  Cl532  1  0.60426031  0.65092173  0.74565840  1
  Cl  Cl533  1  0.61053876  0.97986876  0.75037240  1
  Cl  Cl534  1  0.39506760  0.01915239  0.25548632  1
  Cl  Cl535  1  0.39103479  0.35247862  0.24889195  1
  Cl  Cl536  1  0.39072018  0.68663249  0.24433148  1
  Cl  Cl537  1  0.89043022  0.02157134  0.25817123  1
  Cl  Cl538  1  0.88835696  0.35291372  0.25871317  1
  Cl  Cl539  1  0.88806562  0.68957417  0.24408436  1
  Cl  Cl540  1  0.39057553  0.31207731  0.74335779  1
  Cl  Cl541  1  0.38370673  0.64587754  0.76061375  1
  Cl  Cl542  1  0.38830203  0.98216131  0.74543843  1
  Cl  Cl543  1  0.88998835  0.31525057  0.74593412  1
  Cl  Cl544  1  0.88657236  0.64742223  0.75789504  1
  Cl  Cl545  1  0.88661139  0.98341791  0.74470569  1
  Cl  Cl546  1  0.10933925  0.01952704  0.24775686  1
  Cl  Cl547  1  0.11009681  0.34969033  0.24710211  1
  Cl  Cl548  1  0.10729937  0.68467968  0.25492668  1
  Cl  Cl549  1  0.61730867  0.01951617  0.24664297  1
  Cl  Cl550  1  0.61072035  0.35468333  0.25277210  1
  Cl  Cl551  1  0.61266948  0.68555802  0.25641069  1
