# generated using pymatgen
data_H8PbC4(N3Cl2)2
_symmetry_space_group_name_H-M   'P 1'
_cell_length_a   16.62170970
_cell_length_b   22.50140573
_cell_length_c   21.58879025
_cell_angle_alpha   90.00021688
_cell_angle_beta   89.99579783
_cell_angle_gamma   90.00279547
_symmetry_Int_Tables_number   1
_chemical_formula_structural   H8PbC4(N3Cl2)2
_chemical_formula_sum   'H192 Pb24 C96 N144 Cl96'
_cell_volume   8074.46300065
_cell_formula_units_Z   24
loop_
 _symmetry_equiv_pos_site_id
 _symmetry_equiv_pos_as_xyz
  1  'x, y, z'
loop_
 _atom_site_type_symbol
 _atom_site_label
 _atom_site_symmetry_multiplicity
 _atom_site_fract_x
 _atom_site_fract_y
 _atom_site_fract_z
 _atom_site_occupancy
  H  H0  1  -0.00661518  0.03224159  0.68288317  1
  H  H1  1  0.00435934  0.36594749  0.68005435  1
  H  H2  1  -0.00815181  0.69851088  0.68034873  1
  H  H3  1  0.49539697  0.03197217  0.68036820  1
  H  H4  1  0.49301579  0.36600365  0.68206302  1
  H  H5  1  0.51123030  0.69904227  0.68293538  1
  H  H6  1  -0.00034375  0.30108885  0.18176537  1
  H  H7  1  -0.00309374  0.63624424  0.18061839  1
  H  H8  1  0.00085802  0.96661608  0.17981237  1
  H  H9  1  0.49700473  0.30059121  0.18023666  1
  H  H10  1  0.50621294  0.63567834  0.18278916  1
  H  H11  1  0.50278753  0.96652081  0.18010474  1
  H  H12  1  0.00134063  0.03207348  0.81674186  1
  H  H13  1  -0.00136834  0.36616162  0.82027208  1
  H  H14  1  -0.00119015  0.69883787  0.81960534  1
  H  H15  1  0.49794883  0.03140342  0.81952164  1
  H  H16  1  0.50288922  0.36610656  0.82221678  1
  H  H17  1  0.49911158  0.69906867  0.82177286  1
  H  H18  1  -0.00292948  0.30192147  0.32015905  1
  H  H19  1  -0.00137909  0.63408224  0.31805288  1
  H  H20  1  -0.00008875  0.96692631  0.31822165  1
  H  H21  1  0.49596049  0.30076316  0.31888036  1
  H  H22  1  0.50474835  0.63398998  0.31834615  1
  H  H23  1  0.50283883  0.96883255  0.32017553  1
  H  H24  1  0.24814208  0.19865874  0.67948367  1
  H  H25  1  0.24995391  0.53165814  0.68353260  1
  H  H26  1  0.25416365  0.86584186  0.68274120  1
  H  H27  1  0.75326830  0.19882010  0.68101045  1
  H  H28  1  0.74169095  0.53195744  0.68196681  1
  H  H29  1  0.74322275  0.86657107  0.68130580  1
  H  H30  1  0.24311132  0.13213655  0.18168472  1
  H  H31  1  0.24413560  0.46718626  0.17938225  1
  H  H32  1  0.25019243  0.80124000  0.17774175  1
  H  H33  1  0.75911501  0.13370991  0.17977006  1
  H  H34  1  0.75729976  0.46750264  0.18039993  1
  H  H35  1  0.75459781  0.80049257  0.18040195  1
  H  H36  1  0.25369446  0.19889279  0.81952387  1
  H  H37  1  0.25143799  0.53116216  0.81752035  1
  H  H38  1  0.24381624  0.86560694  0.82001029  1
  H  H39  1  0.75132200  0.19868453  0.82053251  1
  H  H40  1  0.74263526  0.53290904  0.81780600  1
  H  H41  1  0.75071589  0.86529306  0.81950006  1
  H  H42  1  0.24960590  0.13505608  0.31845854  1
  H  H43  1  0.25333854  0.46749613  0.32063211  1
  H  H44  1  0.25258332  0.80100752  0.31785328  1
  H  H45  1  0.75444548  0.13370517  0.32096588  1
  H  H46  1  0.74828607  0.46906779  0.31689833  1
  H  H47  1  0.74986113  0.80139889  0.31978225  1
  H  H48  1  0.12837624  0.05261376  0.62061183  1
  H  H49  1  0.12874666  0.38584151  0.60839135  1
  H  H50  1  0.12801925  0.71851963  0.62059971  1
  H  H51  1  0.62797660  0.05280451  0.61454990  1
  H  H52  1  0.63037276  0.38421795  0.62497437  1
  H  H53  1  0.62259686  0.72376539  0.60171602  1
  H  H54  1  0.38225672  0.27612748  0.10138848  1
  H  H55  1  0.37258419  0.61544130  0.11849595  1
  H  H56  1  0.37556933  0.94742631  0.11372181  1
  H  H57  1  0.88095492  0.27750552  0.10611518  1
  H  H58  1  0.87177792  0.61262033  0.10931232  1
  H  H59  1  0.87495177  0.94633174  0.10874867  1
  H  H60  1  0.37676995  0.05422732  0.89501903  1
  H  H61  1  0.37778802  0.38848863  0.89178515  1
  H  H62  1  0.37743974  0.72573542  0.89343016  1
  H  H63  1  0.87533290  0.05285357  0.88458860  1
  H  H64  1  0.88041578  0.38865173  0.89710747  1
  H  H65  1  0.88115811  0.72267630  0.89582960  1
  H  H66  1  0.13039551  0.28220687  0.38322880  1
  H  H67  1  0.12304318  0.61204441  0.38782511  1
  H  H68  1  0.12241646  0.94591825  0.39029080  1
  H  H69  1  0.62643474  0.27988908  0.38545590  1
  H  H70  1  0.62156706  0.61155336  0.39620151  1
  H  H71  1  0.62218756  0.94478583  0.39589627  1
  H  H72  1  0.37260955  0.22127749  0.60925888  1
  H  H73  1  0.37570043  0.55340695  0.61168220  1
  H  H74  1  0.37799304  0.88764850  0.61133597  1
  H  H75  1  0.86876271  0.22490961  0.60255505  1
  H  H76  1  0.87968959  0.54985260  0.62573355  1
  H  H77  1  0.87573670  0.88679591  0.61527269  1
  H  H78  1  0.12998875  0.11111221  0.10374923  1
  H  H79  1  0.12888443  0.44345309  0.09957623  1
  H  H80  1  0.12296584  0.78163170  0.11116459  1
  H  H81  1  0.62209670  0.11555888  0.12219512  1
  H  H82  1  0.62092887  0.44670018  0.12163241  1
  H  H83  1  0.62069639  0.78309451  0.11934413  1
  H  H84  1  0.12039096  0.22012921  0.88252583  1
  H  H85  1  0.12693829  0.55159356  0.88750874  1
  H  H86  1  0.12632654  0.88768152  0.89664850  1
  H  H87  1  0.62052790  0.22055617  0.88529462  1
  H  H88  1  0.63038890  0.55645998  0.89747205  1
  H  H89  1  0.62617376  0.88739901  0.89229653  1
  H  H90  1  0.37378568  0.11356848  0.39074255  1
  H  H91  1  0.36950027  0.44237005  0.39836975  1
  H  H92  1  0.37169319  0.77864881  0.39306307  1
  H  H93  1  0.86825925  0.10706116  0.39890301  1
  H  H94  1  0.87113326  0.44669673  0.38977825  1
  H  H95  1  0.87286384  0.77999825  0.39171808  1
  H  H96  1  0.37795019  0.27862100  0.39491530  1
  H  H97  1  0.37231808  0.61425424  0.38104794  1
  H  H98  1  0.37350368  0.94767223  0.38581165  1
  H  H99  1  0.88259565  0.27590142  0.40044962  1
  H  H100  1  0.87397022  0.61372422  0.38631529  1
  H  H101  1  0.87251167  0.94696612  0.38783925  1
  H  H102  1  0.12514106  0.05172790  0.88747386  1
  H  H103  1  0.12923522  0.38652029  0.88477724  1
  H  H104  1  0.12921300  0.72084596  0.88629999  1
  H  H105  1  0.62570135  0.05342037  0.88729930  1
  H  H106  1  0.62683631  0.38754734  0.89318833  1
  H  H107  1  0.62560292  0.71875295  0.89125349  1
  H  H108  1  0.12998286  0.28067869  0.11412143  1
  H  H109  1  0.12031849  0.61393625  0.10836403  1
  H  H110  1  0.12425208  0.94449214  0.10825251  1
  H  H111  1  0.63066863  0.28034860  0.11813647  1
  H  H112  1  0.62100084  0.61143173  0.10499031  1
  H  H113  1  0.62498110  0.94523791  0.10718300  1
  H  H114  1  0.38006248  0.05745588  0.60097175  1
  H  H115  1  0.38269580  0.38727576  0.60127587  1
  H  H116  1  0.37508260  0.71813256  0.62217352  1
  H  H117  1  0.88027398  0.05661658  0.60360943  1
  H  H118  1  0.87946848  0.38769400  0.61270808  1
  H  H119  1  0.87991296  0.72257284  0.60005219  1
  H  H120  1  0.12463037  0.11337511  0.38915865  1
  H  H121  1  0.12081109  0.44753231  0.38352003  1
  H  H122  1  0.12302583  0.77908392  0.38511495  1
  H  H123  1  0.62061307  0.11708380  0.38402300  1
  H  H124  1  0.62212832  0.44581206  0.38635889  1
  H  H125  1  0.62451066  0.77978620  0.38933907  1
  H  H126  1  0.36780968  0.22384827  0.90006190  1
  H  H127  1  0.37646442  0.55241751  0.88637681  1
  H  H128  1  0.37504779  0.88509348  0.88630416  1
  H  H129  1  0.86937681  0.22384371  0.89631288  1
  H  H130  1  0.87816875  0.55105801  0.87949590  1
  H  H131  1  0.87513179  0.88738502  0.89263355  1
  H  H132  1  0.37789664  0.11577158  0.12114438  1
  H  H133  1  0.37634949  0.44643851  0.11744845  1
  H  H134  1  0.37156569  0.77990995  0.10676757  1
  H  H135  1  0.86905156  0.10735838  0.09768980  1
  H  H136  1  0.86882617  0.44330678  0.09977057  1
  H  H137  1  0.86895315  0.77948044  0.10305207  1
  H  H138  1  0.12367932  0.22263576  0.60826446  1
  H  H139  1  0.12647022  0.55270897  0.61181745  1
  H  H140  1  0.12895203  0.88756523  0.61111706  1
  H  H141  1  0.61990846  0.21951066  0.62013040  1
  H  H142  1  0.63237881  0.55503988  0.60112881  1
  H  H143  1  0.62773523  0.88993253  0.60174975  1
  H  H144  1  0.92279548  0.41813196  0.50031926  1
  H  H145  1  0.66485972  0.41727052  0.49619459  1
  H  H146  1  0.95151561  0.25307279  0.50301465  1
  H  H147  1  0.67696028  0.77368552  0.49708380  1
  H  H148  1  0.81744461  0.73995418  0.49089836  1
  H  H149  1  0.17470970  0.58055060  0.50276258  1
  H  H150  1  0.92113456  0.58540376  0.00501874  1
  H  H151  1  0.91868958  0.07430340  0.99892988  1
  H  H152  1  0.09049163  0.74910311  0.99085460  1
  H  H153  1  0.80368102  0.41745503  -0.00707954  1
  H  H154  1  0.94146575  0.41630056  1.00127353  1
  H  H155  1  0.07427097  0.91947013  0.50052554  1
  H  H156  1  0.56084229  0.58094220  0.49839094  1
  H  H157  1  0.33382367  0.58175700  0.99723676  1
  H  H158  1  0.19215266  0.08655230  -0.00682770  1
  H  H159  1  0.69921735  0.58101857  0.49338640  1
  H  H160  1  0.17301518  0.08641644  0.49875137  1
  H  H161  1  0.29948089  0.24812664  1.00220810  1
  H  H162  1  0.91373431  0.58224125  0.49811762  1
  H  H163  1  0.31715299  0.75115518  0.50055020  1
  H  H164  1  0.40527405  0.58663791  0.49350054  1
  H  H165  1  0.58422912  0.08102040  0.99782105  1
  H  H166  1  0.42301086  0.41640874  0.99731208  1
  H  H167  1  0.64683425  0.41936569  0.01353817  1
  H  H168  1  0.65364465  0.07896976  0.48729883  1
  H  H169  1  0.41452470  0.91874934  0.00097659  1
  H  H170  1  0.91613636  0.91737456  0.49266835  1
  H  H171  1  0.09908173  0.74565709  0.51235890  1
  H  H172  1  0.55380769  0.75046699  0.49598512  1
  H  H173  1  0.65056989  0.24881093  0.50780524  1
  H  H174  1  0.80783832  0.24933998  1.00158858  1
  H  H175  1  0.42765387  0.74393681  0.99754092  1
  H  H176  1  0.33046244  0.91671197  0.50245809  1
  H  H177  1  0.55828461  0.58531603  -0.00257795  1
  H  H178  1  0.58430024  0.75413524  0.99355781  1
  H  H179  1  0.81063494  0.75312852  -0.00594198  1
  H  H180  1  0.07786700  0.07445996  1.00038856  1
  H  H181  1  0.94574386  0.08184271  0.49645420  1
  H  H182  1  0.94039432  0.25045806  -0.00236316  1
  H  H183  1  0.79725740  0.08231742  -0.00423957  1
  H  H184  1  0.30558813  0.41365843  0.50143366  1
  H  H185  1  0.80084858  0.09175179  0.50329776  1
  H  H186  1  0.44717541  0.24919465  -0.00168956  1
  H  H187  1  0.80613884  0.24858933  0.49896470  1
  H  H188  1  0.94447858  0.74652873  0.49233004  1
  H  H189  1  0.17069844  0.58016838  0.99790605  1
  H  H190  1  0.69657815  0.58421422  1.00396206  1
  H  H191  1  0.44796716  0.41334061  0.49335822  1
  Pb  Pb192  1  0.25115431  0.04518299  0.74973317  1
  Pb  Pb193  1  0.25209035  0.37927455  0.74392620  1
  Pb  Pb194  1  0.25160580  0.71246735  0.75230547  1
  Pb  Pb195  1  0.74771014  0.04834696  0.74831335  1
  Pb  Pb196  1  0.75239947  0.37932638  0.75576743  1
  Pb  Pb197  1  0.75339921  0.71621954  0.74495098  1
  Pb  Pb198  1  0.25422778  0.28487194  0.24461491  1
  Pb  Pb199  1  0.24922952  0.62190190  0.24846537  1
  Pb  Pb200  1  0.25125408  0.95387617  0.25115191  1
  Pb  Pb201  1  0.75452536  0.28559367  0.25188403  1
  Pb  Pb202  1  0.74975144  0.61863562  0.24852225  1
  Pb  Pb203  1  0.74995463  0.95432532  0.25026727  1
  Pb  Pb204  1  0.00022693  0.21287231  0.74689719  1
  Pb  Pb205  1  0.00309242  0.54610205  0.75272219  1
  Pb  Pb206  1  0.00204841  0.88065943  0.74744920  1
  Pb  Pb207  1  0.49566881  0.21459518  0.75687194  1
  Pb  Pb208  1  0.50437175  0.54773013  0.74730380  1
  Pb  Pb209  1  0.49886938  0.88030347  0.74994946  1
  Pb  Pb210  1  0.00261805  0.11777284  0.24824302  1
  Pb  Pb211  1  0.00424475  0.45225431  0.24312306  1
  Pb  Pb212  1  -0.00112701  0.78819771  0.24978438  1
  Pb  Pb213  1  0.50229466  0.11994791  0.25139498  1
  Pb  Pb214  1  0.49744429  0.45251701  0.25120396  1
  Pb  Pb215  1  0.49902803  0.78854660  0.25013234  1
  C  C216  1  0.00106969  0.04696006  0.63538720  1
  C  C217  1  0.00370218  0.37996704  0.63210698  1
  C  C218  1  0.00052279  0.71338894  0.63282945  1
  C  C219  1  0.50134960  0.04655922  0.63269681  1
  C  C220  1  0.50188728  0.37941032  0.63435564  1
  C  C221  1  0.50277817  0.71330614  0.63533317  1
  C  C222  1  0.00383171  0.28659237  0.13394821  1
  C  C223  1  -0.00409102  0.62094537  0.13298772  1
  C  C224  1  -0.00026295  0.95229594  0.13204962  1
  C  C225  1  0.50323068  0.28645868  0.13256002  1
  C  C226  1  0.49960877  0.62062328  0.13531252  1
  C  C227  1  0.50049327  0.95256713  0.13216205  1
  C  C228  1  0.00055302  0.04603563  0.86486711  1
  C  C229  1  0.00242902  0.38024928  0.86803028  1
  C  C230  1  0.00344164  0.71378642  0.86721682  1
  C  C231  1  0.49999763  0.04640477  0.86720605  1
  C  C232  1  0.50219740  0.38101671  0.86994784  1
  C  C233  1  0.50073470  0.71422878  0.86960152  1
  C  C234  1  0.00285852  0.28729403  0.36779318  1
  C  C235  1  -0.00193930  0.61986964  0.36601915  1
  C  C236  1  -0.00214938  0.95244427  0.36625245  1
  C  C237  1  0.50058235  0.28674450  0.36658215  1
  C  C238  1  0.49971958  0.61910686  0.36614474  1
  C  C239  1  0.49972622  0.95373610  0.36758024  1
  C  C240  1  0.24784642  0.21384949  0.63202018  1
  C  C241  1  0.25100381  0.54596208  0.63555026  1
  C  C242  1  0.25348501  0.88038116  0.63490306  1
  C  C243  1  0.74760164  0.21361227  0.63323198  1
  C  C244  1  0.75116122  0.54586719  0.63450373  1
  C  C245  1  0.74905597  0.88089226  0.63348796  1
  C  C246  1  0.25013292  0.11940372  0.13366387  1
  C  C247  1  0.24951372  0.45266004  0.13187117  1
  C  C248  1  0.24819973  0.78715659  0.12989711  1
  C  C249  1  0.75049378  0.11969593  0.13212024  1
  C  C250  1  0.74831661  0.45228845  0.13305987  1
  C  C251  1  0.74825561  0.78750351  0.13239650  1
  C  C252  1  0.24754734  0.21342100  0.86719319  1
  C  C253  1  0.25166108  0.54572375  0.86547992  1
  C  C254  1  0.24871852  0.87932924  0.86781816  1
  C  C255  1  0.74732737  0.21354691  0.86811886  1
  C  C256  1  0.75082699  0.54704770  0.86544303  1
  C  C257  1  0.75077581  0.87992141  0.86738377  1
  C  C258  1  0.24929114  0.12032700  0.36619311  1
  C  C259  1  0.24815851  0.45277583  0.36819567  1
  C  C260  1  0.24882788  0.78611039  0.36560036  1
  C  C261  1  0.74745206  0.11931904  0.36882015  1
  C  C262  1  0.74707745  0.45379563  0.36452732  1
  C  C263  1  0.74899407  0.78692503  0.36781457  1
  C  C264  1  0.97750099  0.07223538  0.53948853  1
  C  C265  1  0.77255978  0.42667684  0.03627060  1
  C  C266  1  0.55737758  0.25988025  0.04252246  1
  C  C267  1  0.97449052  0.26055579  0.03936074  1
  C  C268  1  0.77507300  0.76310911  0.03502674  1
  C  C269  1  0.05305327  0.40666078  0.95928522  1
  C  C270  1  0.03594989  0.92608565  0.03891208  1
  C  C271  1  0.03628205  0.92837155  0.46065337  1
  C  C272  1  0.19509122  0.42538829  0.45837210  1
  C  C273  1  0.21214201  0.09578624  0.45954795  1
  C  C274  1  0.30510711  0.09759227  0.04389690  1
  C  C275  1  0.22451484  0.09596854  0.03580193  1
  C  C276  1  0.03990261  0.06756432  0.96008156  1
  C  C277  1  0.45528385  0.92579824  0.45837006  1
  C  C278  1  0.20340184  0.76169370  0.03796777  1
  C  C279  1  0.52371677  0.73978853  0.53938260  1
  C  C280  1  0.95709735  0.59331920  0.46023850  1
  C  C281  1  0.45665742  0.92803437  0.03838558  1
  C  C282  1  0.69016625  0.09352846  0.04416956  1
  C  C283  1  0.44852180  0.59609629  0.45697968  1
  C  C284  1  0.73082279  0.57103099  0.53638633  1
  C  C285  1  0.46995868  0.25982403  0.46125530  1
  C  C286  1  0.69460752  0.23961857  0.54387179  1
  C  C287  1  0.21100130  0.57058112  0.95956340  1
  C  C288  1  0.28008353  0.76086052  0.46021259  1
  C  C289  1  0.54165734  0.07142574  0.95955891  1
  C  C290  1  0.53827389  0.92710454  0.03781587  1
  C  C291  1  0.96293594  0.40662256  0.53818408  1
  C  C292  1  0.04459192  0.40527557  0.53845353  1
  C  C293  1  0.95790582  0.06764044  0.95921617  1
  C  C294  1  0.69369360  0.76518325  0.04204981  1
  C  C295  1  0.54342298  0.40759791  0.96404165  1
  C  C296  1  0.03876262  0.59324082  0.45922566  1
  C  C297  1  0.28548474  0.24148211  0.53960015  1
  C  C298  1  0.69639582  0.24056596  0.95932246  1
  C  C299  1  0.52535961  0.59496746  0.03990983  1
  C  C300  1  0.29889790  0.42625713  0.04182145  1
  C  C301  1  0.56129036  0.40270375  0.54591896  1
  C  C302  1  0.72837713  0.57305987  0.96129726  1
  C  C303  1  0.97533361  0.73800448  0.53591085  1
  C  C304  1  0.29322354  0.57098666  0.95929360  1
  C  C305  1  0.21902144  0.90497098  0.96284851  1
  C  C306  1  0.81166533  0.56914530  0.54657584  1
  C  C307  1  0.21442750  0.57080809  0.54207370  1
  C  C308  1  0.28497416  0.76075836  0.03630764  1
  C  C309  1  0.70782358  0.42789081  0.45738633  1
  C  C310  1  0.48025411  0.40387280  0.53619300  1
  C  C311  1  0.29019385  0.90625951  0.54163880  1
  N  N312  1  0.95858233  0.92670323  0.03772135  1
  N  N313  1  0.78841415  0.90494455  0.96172953  1
  N  N314  1  0.04748571  0.73947611  0.95688878  1
  N  N315  1  0.76866953  0.09158385  0.03670152  1
  N  N316  1  0.54264868  0.73455612  0.96245516  1
  N  N317  1  0.44487917  0.73804209  0.54616721  1
  N  N318  1  0.46401063  0.40746834  0.96250757  1
  N  N319  1  0.05419242  0.73774441  0.54442497  1
  N  N320  1  0.47358384  0.07380248  0.53701652  1
  N  N321  1  0.77531041  0.24094768  0.96222865  1
  N  N322  1  0.46231999  0.07222699  0.96229646  1
  N  N323  1  0.80736586  0.57116345  0.95542629  1
  N  N324  1  0.29639542  0.90468410  0.96051563  1
  N  N325  1  0.46479306  0.74849545  0.95952600  1
  N  N326  1  0.05360490  0.26119560  0.04212913  1
  N  N327  1  0.77394982  0.08603477  0.46084839  1
  N  N328  1  0.69362342  0.42701855  0.04516666  1
  N  N329  1  0.78730426  0.42807090  0.45902731  1
  N  N330  1  0.47864207  0.25913683  0.03791415  1
  N  N331  1  0.29137522  0.09490564  0.46026833  1
  N  N332  1  0.20065819  0.76053598  0.45809002  1
  N  N333  1  0.29386326  0.57096522  0.54154134  1
  N  N334  1  0.53285782  0.92411639  0.46272512  1
  N  N335  1  0.95651094  0.92898726  0.45870614  1
  N  N336  1  0.71236894  0.90545242  0.96136961  1
  N  N337  1  0.72089898  0.90577510  0.53714875  1
  N  N338  1  0.97426036  0.40673573  0.96240192  1
  N  N339  1  0.27386629  0.42433874  0.46227716  1
  N  N340  1  0.78744155  0.76836901  0.46184685  1
  N  N341  1  0.98003687  0.26133284  0.46180451  1
  N  N342  1  0.52798911  0.59611726  0.46150758  1
  N  N343  1  0.69582338  0.09786788  0.45809008  1
  N  N344  1  0.77396290  0.24173432  0.53897725  1
  N  N345  1  0.54975118  0.07105649  0.54126998  1
  N  N346  1  0.22164257  0.42520077  0.03482952  1
  N  N347  1  0.27066730  0.23945317  0.96122701  1
  N  N348  1  0.44632057  0.59597259  0.04456774  1
  N  N349  1  0.21063933  0.90606223  0.54099867  1
  N  N350  1  0.20815208  0.24218843  0.53801223  1
  N  N351  1  0.05762721  0.26317073  0.45729250  1
  N  N352  1  0.79751655  0.90484773  0.54175981  1
  N  N353  1  0.19310734  0.23803967  0.95680805  1
  N  N354  1  0.70743430  0.75896487  0.45873703  1
  N  N355  1  0.95922090  0.59479036  0.04144767  1
  N  N356  1  0.54745715  0.26063634  0.45937599  1
  N  N357  1  0.03761913  0.59536816  0.03951466  1
  N  N358  1  0.96928376  0.74040901  0.96217993  1
  N  N359  1  0.05652529  0.07126877  0.54514613  1
  N  N360  1  0.06927846  0.05567651  0.60507070  1
  N  N361  1  0.06880342  0.38932231  0.59525943  1
  N  N362  1  0.06938828  0.72266079  0.60400351  1
  N  N363  1  0.56833863  0.05428308  0.60066019  1
  N  N364  1  0.57339421  0.38811607  0.60541797  1
  N  N365  1  0.56088130  0.72453015  0.59369210  1
  N  N366  1  0.44415333  0.27648092  0.09289029  1
  N  N367  1  0.43208778  0.61185945  0.10420540  1
  N  N368  1  0.43449405  0.94390250  0.09823931  1
  N  N369  1  0.94221267  0.27580709  0.09543208  1
  N  N370  1  0.93245659  0.61068486  0.09773842  1
  N  N371  1  0.93574731  0.94303042  0.09715314  1
  N  N372  1  0.43824878  0.05663684  0.90458237  1
  N  N373  1  0.43828437  0.39104857  0.90447240  1
  N  N374  1  0.43805683  0.72482938  0.90566489  1
  N  N375  1  0.93474843  0.05456861  0.89963181  1
  N  N376  1  0.94178769  0.38987642  0.90636778  1
  N  N377  1  0.94235821  0.72461367  0.90565660  1
  N  N378  1  0.07140376  0.27827591  0.39834943  1
  N  N379  1  0.06317596  0.60918237  0.40231652  1
  N  N380  1  0.06212080  0.94314164  0.40326834  1
  N  N381  1  0.56677952  0.27793111  0.39905759  1
  N  N382  1  0.55958549  0.60822843  0.40482937  1
  N  N383  1  0.56061745  0.94191382  0.40486981  1
  N  N384  1  0.31272162  0.22448628  0.59612994  1
  N  N385  1  0.31497646  0.55538639  0.60029710  1
  N  N386  1  0.31770604  0.89066039  0.59896278  1
  N  N387  1  0.80671315  0.22342966  0.59353318  1
  N  N388  1  0.82301511  0.55417109  0.60600116  1
  N  N389  1  0.81592642  0.88965209  0.60158813  1
  N  N390  1  0.19080881  0.10965002  0.09314806  1
  N  N391  1  0.19064585  0.44208251  0.09228492  1
  N  N392  1  0.18189376  0.77762169  0.09546375  1
  N  N393  1  0.67909625  0.11036570  0.10335434  1
  N  N394  1  0.67928293  0.44276808  0.10466978  1
  N  N395  1  0.67841148  0.77950247  0.10124775  1
  N  N396  1  0.17916024  0.22277985  0.89783222  1
  N  N397  1  0.18679012  0.55513455  0.90100092  1
  N  N398  1  0.18726234  0.88995231  0.90718353  1
  N  N399  1  0.67892638  0.22401813  0.90089646  1
  N  N400  1  0.69224397  0.55824034  0.90652688  1
  N  N401  1  0.68727235  0.89000278  0.90305658  1
  N  N402  1  0.31274290  0.11022076  0.40181082  1
  N  N403  1  0.30779209  0.44171474  0.40706878  1
  N  N404  1  0.31087868  0.77616646  0.40388734  1
  N  N405  1  0.80651072  0.10960771  0.40880262  1
  N  N406  1  0.80989113  0.44421850  0.40084545  1
  N  N407  1  0.81224994  0.77353226  0.40236348  1
  N  N408  1  0.43890773  0.27578167  0.40568097  1
  N  N409  1  0.43076410  0.61091557  0.39794760  1
  N  N410  1  0.43250234  0.94345331  0.40084966  1
  N  N411  1  0.94463595  0.27728623  0.40819096  1
  N  N412  1  0.93314474  0.61028280  0.40090222  1
  N  N413  1  0.93306373  0.94256904  0.40016154  1
  N  N414  1  0.06518536  0.05445452  0.90107628  1
  N  N415  1  0.07082807  0.39038180  0.90098536  1
  N  N416  1  0.06936402  0.72312419  0.89985926  1
  N  N417  1  0.56606289  0.05603059  0.90125760  1
  N  N418  1  0.56706082  0.39138677  0.90644579  1
  N  N419  1  0.56556735  0.72365530  0.90375606  1
  N  N420  1  0.07013698  0.27742337  0.10113294  1
  N  N421  1  0.05954682  0.61106675  0.09698537  1
  N  N422  1  0.06405460  0.94158563  0.09561279  1
  N  N423  1  0.57281275  0.27666019  0.10117527  1
  N  N424  1  0.55960057  0.60973198  0.09534415  1
  N  N425  1  0.56459945  0.94176802  0.09444050  1
  N  N426  1  0.44211664  0.05847103  0.59341458  1
  N  N427  1  0.44441825  0.38930195  0.59256956  1
  N  N428  1  0.43389227  0.72182253  0.60594632  1
  N  N429  1  0.94203636  0.05763278  0.59454628  1
  N  N430  1  0.93872977  0.39072972  0.59762608  1
  N  N431  1  0.94151597  0.72340303  0.59096532  1
  N  N432  1  0.18456826  0.11096102  0.40197238  1
  N  N433  1  0.17894801  0.44300372  0.40013151  1
  N  N434  1  0.18293528  0.77635970  0.39840727  1
  N  N435  1  0.67928889  0.10942640  0.39859303  1
  N  N436  1  0.68200645  0.44337708  0.39948177  1
  N  N437  1  0.68452187  0.78176238  0.40328690  1
  N  N438  1  0.30580977  0.22312005  0.90764999  1
  N  N439  1  0.31701203  0.55562562  0.90048246  1
  N  N440  1  0.31512591  0.88827765  0.89994868  1
  N  N441  1  0.80791169  0.22316898  0.90652757  1
  N  N442  1  0.81929019  0.55527098  0.89529633  1
  N  N443  1  0.81399525  0.88936916  0.90338325  1
  N  N444  1  0.32028315  0.11141963  0.10286653  1
  N  N445  1  0.31820890  0.44269614  0.10061953  1
  N  N446  1  0.31165711  0.77649769  0.09268627  1
  N  N447  1  0.80704232  0.10964110  0.09044248  1
  N  N448  1  0.80690544  0.44178125  0.09103338  1
  N  N449  1  0.80790388  0.77719148  0.09257138  1
  N  N450  1  0.18434417  0.22473404  0.59699491  1
  N  N451  1  0.18692337  0.55570378  0.59935646  1
  N  N452  1  0.18964331  0.89005321  0.59959621  1
  N  N453  1  0.67808402  0.22323072  0.60262111  1
  N  N454  1  0.69410411  0.55653030  0.59256191  1
  N  N455  1  0.68971817  0.89131772  0.59386847  1
  Cl  Cl456  1  0.25622693  0.05460913  0.61709676  1
  Cl  Cl457  1  0.25802657  0.38878180  0.60646943  1
  Cl  Cl458  1  0.25074060  0.71856469  0.61936391  1
  Cl  Cl459  1  0.75587466  0.06134264  0.60620223  1
  Cl  Cl460  1  0.75440464  0.38397476  0.62489054  1
  Cl  Cl461  1  0.75217420  0.72578168  0.60178617  1
  Cl  Cl462  1  0.26097224  0.27613213  0.10653595  1
  Cl  Cl463  1  0.24461520  0.61459956  0.11516413  1
  Cl  Cl464  1  0.24761554  0.94822987  0.12074573  1
  Cl  Cl465  1  0.75888817  0.27692388  0.11074666  1
  Cl  Cl466  1  0.74684411  0.61121244  0.11282365  1
  Cl  Cl467  1  0.75003620  0.95222572  0.11928938  1
  Cl  Cl468  1  0.25095243  0.05245082  0.88365865  1
  Cl  Cl469  1  0.25573174  0.38427099  0.87551994  1
  Cl  Cl470  1  0.25361449  0.72301101  0.88459475  1
  Cl  Cl471  1  0.75188339  0.05899687  0.88588298  1
  Cl  Cl472  1  0.75458869  0.38666938  0.89273112  1
  Cl  Cl473  1  0.75265979  0.71893350  0.87948713  1
  Cl  Cl474  1  0.25503562  0.28543003  0.37612755  1
  Cl  Cl475  1  0.24713414  0.61246717  0.38051863  1
  Cl  Cl476  1  0.24854914  0.94652013  0.38346337  1
  Cl  Cl477  1  0.76015227  0.27232493  0.39484013  1
  Cl  Cl478  1  0.74331182  0.61594893  0.38334637  1
  Cl  Cl479  1  0.74885994  0.94943546  0.38329065  1
  Cl  Cl480  1  -0.00918201  0.22549191  0.60741360  1
  Cl  Cl481  1  0.00446674  0.55237990  0.62120525  1
  Cl  Cl482  1  0.00068444  0.88706819  0.61011678  1
  Cl  Cl483  1  0.49592843  0.21994535  0.62627741  1
  Cl  Cl484  1  0.50533061  0.55643417  0.60686216  1
  Cl  Cl485  1  0.50424899  0.88458766  0.61840229  1
  Cl  Cl486  1  -0.00455357  0.10955905  0.11356198  1
  Cl  Cl487  1  -0.00609612  0.44314363  0.10450513  1
  Cl  Cl488  1  -0.00254071  0.78068597  0.11862684  1
  Cl  Cl489  1  0.50147624  0.11855162  0.11915869  1
  Cl  Cl490  1  0.49854077  0.44426627  0.11472425  1
  Cl  Cl491  1  0.49594380  0.77832506  0.11419090  1
  Cl  Cl492  1  -0.00825536  0.22301502  0.88103879  1
  Cl  Cl493  1  0.00176731  0.55048171  0.88650878  1
  Cl  Cl494  1  0.00009593  0.88516804  0.87883041  1
  Cl  Cl495  1  0.48951518  0.22706140  0.89572147  1
  Cl  Cl496  1  0.50739381  0.55262393  0.88178426  1
  Cl  Cl497  1  0.50205377  0.88495932  0.88508849  1
  Cl  Cl498  1  -0.00993120  0.11063776  0.38484076  1
  Cl  Cl499  1  -0.00512898  0.44781409  0.37646584  1
  Cl  Cl500  1  -0.00469273  0.77901876  0.38940869  1
  Cl  Cl501  1  0.49773626  0.11840993  0.38179937  1
  Cl  Cl502  1  0.49333824  0.44663033  0.38489767  1
  Cl  Cl503  1  0.50125370  0.77777976  0.38457658  1
  Cl  Cl504  1  0.36252713  0.14557201  0.75179076  1
  Cl  Cl505  1  0.36279858  0.47784598  0.74849496  1
  Cl  Cl506  1  0.36523848  0.81007041  0.75164229  1
  Cl  Cl507  1  0.86339876  0.14486706  0.74995820  1
  Cl  Cl508  1  0.86343628  0.47883861  0.75203215  1
  Cl  Cl509  1  0.86246232  0.80878796  0.74654069  1
  Cl  Cl510  1  0.13684993  0.19024380  0.25023847  1
  Cl  Cl511  1  0.13676368  0.52132255  0.25126376  1
  Cl  Cl512  1  0.13652879  0.85485374  0.25259126  1
  Cl  Cl513  1  0.63508529  0.18966649  0.25091334  1
  Cl  Cl514  1  0.63549365  0.52288576  0.24661013  1
  Cl  Cl515  1  0.63716129  0.85420586  0.24827117  1
  Cl  Cl516  1  0.13596625  0.14418413  0.75061112  1
  Cl  Cl517  1  0.13723193  0.47594427  0.75105477  1
  Cl  Cl518  1  0.13704792  0.81066647  0.74607928  1
  Cl  Cl519  1  0.64199668  0.14403005  0.74960049  1
  Cl  Cl520  1  0.63888530  0.47842144  0.74892889  1
  Cl  Cl521  1  0.64115628  0.80849253  0.75069166  1
  Cl  Cl522  1  0.36103126  0.19071024  0.24670116  1
  Cl  Cl523  1  0.36335577  0.52262766  0.24739236  1
  Cl  Cl524  1  0.36045311  0.85559305  0.24915761  1
  Cl  Cl525  1  0.85527692  0.18877342  0.25099024  1
  Cl  Cl526  1  0.85577304  0.52213814  0.24857136  1
  Cl  Cl527  1  0.86251429  0.85549515  0.25407900  1
  Cl  Cl528  1  0.11264642  0.31047906  0.75103682  1
  Cl  Cl529  1  0.11352678  0.64457282  0.75045611  1
  Cl  Cl530  1  0.11362553  0.97709036  0.74577632  1
  Cl  Cl531  1  0.61461282  0.31142864  0.75171237  1
  Cl  Cl532  1  0.60848166  0.64415051  0.75107774  1
  Cl  Cl533  1  0.61455869  0.97912138  0.74971422  1
  Cl  Cl534  1  0.38577177  0.02287206  0.25020089  1
  Cl  Cl535  1  0.39027883  0.35586828  0.24820842  1
  Cl  Cl536  1  0.38682914  0.68762175  0.25035621  1
  Cl  Cl537  1  0.88571306  0.02192180  0.25219301  1
  Cl  Cl538  1  0.88495720  0.35520785  0.24965933  1
  Cl  Cl539  1  0.88535794  0.68820137  0.25142984  1
  Cl  Cl540  1  0.39100731  0.31143327  0.75294488  1
  Cl  Cl541  1  0.38723491  0.64439545  0.74925151  1
  Cl  Cl542  1  0.38894067  0.97692010  0.75183610  1
  Cl  Cl543  1  0.88680935  0.31141118  0.74981169  1
  Cl  Cl544  1  0.89070758  0.64466481  0.75036811  1
  Cl  Cl545  1  0.88889180  0.97815174  0.74827020  1
  Cl  Cl546  1  0.10938577  0.02387009  0.25178102  1
  Cl  Cl547  1  0.10849151  0.35688868  0.24880694  1
  Cl  Cl548  1  0.11120136  0.68811595  0.25171639  1
  Cl  Cl549  1  0.61123326  0.02441304  0.25048364  1
  Cl  Cl550  1  0.61484197  0.35631095  0.24829541  1
  Cl  Cl551  1  0.61069872  0.68904302  0.25101795  1
