# generated using pymatgen
data_H8PbC4(N3Cl2)2
_symmetry_space_group_name_H-M   'P 1'
_cell_length_a   16.62860764
_cell_length_b   22.51214616
_cell_length_c   21.59053161
_cell_angle_alpha   90.00016811
_cell_angle_beta   90.00958132
_cell_angle_gamma   89.99512676
_symmetry_Int_Tables_number   1
_chemical_formula_structural   H8PbC4(N3Cl2)2
_chemical_formula_sum   'H192 Pb24 C96 N144 Cl96'
_cell_volume   8082.32135151
_cell_formula_units_Z   24
loop_
 _symmetry_equiv_pos_site_id
 _symmetry_equiv_pos_as_xyz
  1  'x, y, z'
loop_
 _atom_site_type_symbol
 _atom_site_label
 _atom_site_symmetry_multiplicity
 _atom_site_fract_x
 _atom_site_fract_y
 _atom_site_fract_z
 _atom_site_occupancy
  H  H0  1  0.01301965  0.03372343  0.67919412  1
  H  H1  1  0.00770566  0.36460249  0.68038349  1
  H  H2  1  -0.00856861  0.69284719  0.67747899  1
  H  H3  1  0.48209215  0.03184420  0.67417524  1
  H  H4  1  0.50421272  0.36033801  0.68407760  1
  H  H5  1  0.51515623  0.69626041  0.67431522  1
  H  H6  1  -0.00904866  0.30061293  0.17579168  1
  H  H7  1  0.01832169  0.63536082  0.17227028  1
  H  H8  1  0.00896664  0.96939914  0.18058379  1
  H  H9  1  0.50478570  0.30682816  0.18244470  1
  H  H10  1  0.48812473  0.63532844  0.17779634  1
  H  H11  1  0.49318359  0.97013746  0.18303490  1
  H  H12  1  0.00543336  0.02982605  0.81920548  1
  H  H13  1  0.01233868  0.36350030  0.82099437  1
  H  H14  1  -0.01138350  0.69445110  0.82110302  1
  H  H15  1  0.49017420  0.03221508  0.81927539  1
  H  H16  1  0.49023259  0.36818071  0.82280998  1
  H  H17  1  0.50326807  0.69587600  0.81794679  1
  H  H18  1  -0.00393809  0.30188175  0.31870906  1
  H  H19  1  -0.00692700  0.63485451  0.32095763  1
  H  H20  1  0.00298454  0.97040192  0.31969552  1
  H  H21  1  0.51481934  0.30298168  0.32007119  1
  H  H22  1  0.49307600  0.63933965  0.31964993  1
  H  H23  1  0.49681716  0.97282858  0.32225788  1
  H  H24  1  0.23473356  0.19858482  0.67456269  1
  H  H25  1  0.23922718  0.53196326  0.67961368  1
  H  H26  1  0.23628811  0.86304533  0.68030640  1
  H  H27  1  0.76115275  0.19328970  0.67727535  1
  H  H28  1  0.76404490  0.53329000  0.67423086  1
  H  H29  1  0.76512703  0.86377360  0.67652804  1
  H  H30  1  0.23883061  0.13585569  0.17856747  1
  H  H31  1  0.23981027  0.47072913  0.18043946  1
  H  H32  1  0.25397037  0.80273093  0.18072585  1
  H  H33  1  0.76076812  0.13589807  0.17513557  1
  H  H34  1  0.76231219  0.47069074  0.17537871  1
  H  H35  1  0.74451097  0.80262000  0.17796597  1
  H  H36  1  0.26631012  0.19848808  0.82351652  1
  H  H37  1  0.25390918  0.53167787  0.82563494  1
  H  H38  1  0.25850500  0.86473825  0.81896046  1
  H  H39  1  0.73400596  0.19592511  0.82382756  1
  H  H40  1  0.74324573  0.52947618  0.81969512  1
  H  H41  1  0.73926687  0.86232464  0.82338010  1
  H  H42  1  0.24200076  0.13966381  0.32337876  1
  H  H43  1  0.24838646  0.47317778  0.32205233  1
  H  H44  1  0.24042132  0.80157510  0.32668715  1
  H  H45  1  0.76658600  0.13821652  0.32375322  1
  H  H46  1  0.74648944  0.46911567  0.32073220  1
  H  H47  1  0.76070708  0.80157202  0.32219715  1
  H  H48  1  0.11976993  0.06213362  0.59431067  1
  H  H49  1  0.11656857  0.38949999  0.59770001  1
  H  H50  1  0.12736150  0.71833105  0.62125373  1
  H  H51  1  0.62185953  0.04789010  0.62408862  1
  H  H52  1  0.61575542  0.38783285  0.60403692  1
  H  H53  1  0.62187931  0.72767735  0.59225200  1
  H  H54  1  0.37729074  0.28226229  0.11618710  1
  H  H55  1  0.37242239  0.60913169  0.09902183  1
  H  H56  1  0.37077581  0.94673872  0.11157765  1
  H  H57  1  0.87952836  0.27327904  0.09484856  1
  H  H58  1  0.87544395  0.62025728  0.12670145  1
  H  H59  1  0.87175285  0.94923289  0.12192526  1
  H  H60  1  0.37104299  0.05709210  0.89370504  1
  H  H61  1  0.37627167  0.39063325  0.90000621  1
  H  H62  1  0.36950216  0.71620032  0.88169249  1
  H  H63  1  0.87060406  0.05131611  0.88106540  1
  H  H64  1  0.87352575  0.38132005  0.87534371  1
  H  H65  1  0.87268372  0.72403388  0.89896283  1
  H  H66  1  0.12969773  0.28137596  0.37984166  1
  H  H67  1  0.12827002  0.61597920  0.38233745  1
  H  H68  1  0.12652383  0.94408857  0.38893171  1
  H  H69  1  0.62502108  0.27420246  0.40316294  1
  H  H70  1  0.62645137  0.61643872  0.38254624  1
  H  H71  1  0.62697098  0.94855916  0.38682436  1
  H  H72  1  0.37508196  0.21360385  0.62464195  1
  H  H73  1  0.36876974  0.55344911  0.61456057  1
  H  H74  1  0.37435048  0.88434320  0.62329429  1
  H  H75  1  0.86957486  0.22221140  0.59391925  1
  H  H76  1  0.86638892  0.56015333  0.58860164  1
  H  H77  1  0.86467655  0.89268785  0.58821519  1
  H  H78  1  0.13167935  0.10618875  0.09553670  1
  H  H79  1  0.13412603  0.44675405  0.09616456  1
  H  H80  1  0.12668553  0.77687317  0.11448724  1
  H  H81  1  0.62706079  0.11503985  0.11383253  1
  H  H82  1  0.62514895  0.44977869  0.11944250  1
  H  H83  1  0.63358370  0.77439477  0.09600540  1
  H  H84  1  0.12201181  0.21673422  0.86909593  1
  H  H85  1  0.12752998  0.55346632  0.89152807  1
  H  H86  1  0.12963863  0.88722361  0.88401695  1
  H  H87  1  0.63023738  0.22581703  0.91003730  1
  H  H88  1  0.62645012  0.55364194  0.89662130  1
  H  H89  1  0.63455427  0.89285538  0.90744619  1
  H  H90  1  0.37897051  0.11571868  0.37943512  1
  H  H91  1  0.38209535  0.45086907  0.38188585  1
  H  H92  1  0.37530326  0.78056491  0.38618995  1
  H  H93  1  0.87720422  0.10754281  0.40379393  1
  H  H94  1  0.88413191  0.45076702  0.37574482  1
  H  H95  1  0.86759550  0.77272664  0.40692490  1
  H  H96  1  0.37858436  0.28095318  0.37973354  1
  H  H97  1  0.37792415  0.61305206  0.39738440  1
  H  H98  1  0.37875354  0.94632333  0.39844720  1
  H  H99  1  0.88104819  0.27692104  0.39470451  1
  H  H100  1  0.88058489  0.60783422  0.40004805  1
  H  H101  1  0.87864047  0.95001023  0.39069695  1
  H  H102  1  0.11846385  0.05732759  0.89792995  1
  H  H103  1  0.11972582  0.39300617  0.90398253  1
  H  H104  1  0.12013366  0.71489472  0.88667526  1
  H  H105  1  0.61982182  0.05287588  0.88693656  1
  H  H106  1  0.62360596  0.38590630  0.88332847  1
  H  H107  1  0.61771894  0.72200390  0.89602266  1
  H  H108  1  0.12580150  0.27941110  0.11487690  1
  H  H109  1  0.11707109  0.60655608  0.08499203  1
  H  H110  1  0.11832574  0.94056888  0.09947354  1
  H  H111  1  0.62653141  0.27907210  0.10967786  1
  H  H112  1  0.62049171  0.61318983  0.11636387  1
  H  H113  1  0.62045252  0.94580788  0.11429038  1
  H  H114  1  0.37806502  0.06070891  0.58966709  1
  H  H115  1  0.36848208  0.38369044  0.62449290  1
  H  H116  1  0.37646227  0.71599319  0.61901682  1
  H  H117  1  0.87419451  0.04834149  0.62147228  1
  H  H118  1  0.86954145  0.38605882  0.62296030  1
  H  H119  1  0.88025471  0.72167705  0.59696511  1
  H  H120  1  0.13200574  0.11179462  0.40505634  1
  H  H121  1  0.13401176  0.44190829  0.39885139  1
  H  H122  1  0.12830643  0.77231833  0.40510485  1
  H  H123  1  0.63008642  0.11628640  0.38156445  1
  H  H124  1  0.63726612  0.44447476  0.40232181  1
  H  H125  1  0.62194714  0.78275573  0.37911379  1
  H  H126  1  0.36352372  0.22973661  0.91211074  1
  H  H127  1  0.37646870  0.55269463  0.89604667  1
  H  H128  1  0.37678557  0.88643484  0.89502605  1
  H  H129  1  0.87418174  0.21710705  0.87641679  1
  H  H130  1  0.87523607  0.55294096  0.88366124  1
  H  H131  1  0.87898952  0.88466563  0.87455563  1
  H  H132  1  0.37771613  0.11688848  0.12462079  1
  H  H133  1  0.37954408  0.45395755  0.12851548  1
  H  H134  1  0.37549104  0.77755269  0.10656607  1
  H  H135  1  0.87461284  0.10728254  0.09816507  1
  H  H136  1  0.87126000  0.44124516  0.09521263  1
  H  H137  1  0.88032022  0.78140347  0.11886032  1
  H  H138  1  0.13105451  0.22724011  0.58940873  1
  H  H139  1  0.11951563  0.55572432  0.60710101  1
  H  H140  1  0.12764046  0.89080261  0.59795477  1
  H  H141  1  0.62383430  0.21567337  0.62106396  1
  H  H142  1  0.62302747  0.54975554  0.62611899  1
  H  H143  1  0.62191216  0.88310223  0.62929152  1
  H  H144  1  0.71143817  0.25046671  1.00788517  1
  H  H145  1  0.55413624  0.74884896  1.00256407  1
  H  H146  1  0.57110344  0.26337219  0.00266064  1
  H  H147  1  0.04518674  0.41667074  0.49314454  1
  H  H148  1  0.27937608  0.25318610  1.00885475  1
  H  H149  1  0.60821293  0.08040424  0.50900027  1
  H  H150  1  0.18025846  0.93428834  0.98085609  1
  H  H151  1  0.31206688  0.88208004  0.99905699  1
  H  H152  1  0.54802855  0.41662290  0.49905102  1
  H  H153  1  0.89197769  0.41213825  0.98826803  1
  H  H154  1  0.71144587  0.91746796  1.00702539  1
  H  H155  1  0.66065803  0.08301896  0.00720761  1
  H  H156  1  0.64703509  0.41775189  0.01094320  1
  H  H157  1  0.86370406  0.42340842  0.48996609  1
  H  H158  1  0.88232138  0.58868842  1.01150705  1
  H  H159  1  0.42104781  0.92890366  -0.00108335  1
  H  H160  1  0.19977284  0.92194515  0.49524140  1
  H  H161  1  0.35261840  0.41632109  0.49243754  1
  H  H162  1  0.04269810  0.08813735  0.49539950  1
  H  H163  1  0.05221592  0.08564343  1.00381485  1
  H  H164  1  0.94023506  0.24875664  0.50413314  1
  H  H165  1  0.58898370  0.91814444  0.49742520  1
  H  H166  1  0.09481205  0.25269701  0.00561049  1
  H  H167  1  0.79380576  0.24829127  0.49450591  1
  H  H168  1  0.20417189  0.08676120  0.50664368  1
  H  H169  1  0.35962615  0.08460487  0.01202071  1
  H  H170  1  0.20483615  0.08467011  -0.00559014  1
  H  H171  1  0.57327636  0.93022879  0.00543221  1
  H  H172  1  0.79053762  0.74320784  0.50470915  1
  H  H173  1  0.04712057  0.90996849  -0.00429330  1
  H  H174  1  0.19822428  0.41715092  0.50221949  1
  H  H175  1  0.04730100  0.42518347  1.00162087  1
  H  H176  1  0.06690786  0.89284835  0.48104625  1
  H  H177  1  0.43983251  0.58301436  0.50314966  1
  H  H178  1  0.41877160  0.25472751  0.00457388  1
  H  H179  1  0.70610749  0.74716809  -0.00383374  1
  H  H180  1  0.17087540  0.74294035  0.00580777  1
  H  H181  1  0.78182653  0.91719491  0.49110277  1
  H  H182  1  0.36714320  0.42535395  0.01458421  1
  H  H183  1  0.95128089  0.74959355  0.49581848  1
  H  H184  1  0.93636272  0.94635771  0.49743129  1
  H  H185  1  0.70430427  0.41749682  0.50845974  1
  H  H186  1  0.34403690  0.75031547  0.49447281  1
  H  H187  1  0.17057949  0.58685613  0.49781909  1
  H  H188  1  0.68469688  0.58427399  1.00267348  1
  H  H189  1  0.63438860  0.58145300  0.51094216  1
  H  H190  1  0.20536440  0.42262595  -0.00925940  1
  H  H191  1  0.36184943  0.24513964  0.50927676  1
  Pb  Pb192  1  0.24653561  0.05360420  0.74597137  1
  Pb  Pb193  1  0.24198066  0.38292560  0.74937936  1
  Pb  Pb194  1  0.24882122  0.71251838  0.74931115  1
  Pb  Pb195  1  0.74765899  0.04450144  0.75572293  1
  Pb  Pb196  1  0.74591250  0.38172008  0.75013279  1
  Pb  Pb197  1  0.74389363  0.71790471  0.74761034  1
  Pb  Pb198  1  0.25299555  0.28674604  0.24256059  1
  Pb  Pb199  1  0.25077864  0.61965414  0.24499551  1
  Pb  Pb200  1  0.24654552  0.94975490  0.24745553  1
  Pb  Pb201  1  0.75184764  0.28589121  0.25250169  1
  Pb  Pb202  1  0.75106750  0.61857343  0.25204546  1
  Pb  Pb203  1  0.74798345  0.95143325  0.25172938  1
  Pb  Pb204  1  -0.00726906  0.21397394  0.73883685  1
  Pb  Pb205  1  -0.00594492  0.54946205  0.74241432  1
  Pb  Pb206  1  0.00089021  0.88043629  0.73930077  1
  Pb  Pb207  1  0.50242424  0.21523719  0.76789559  1
  Pb  Pb208  1  0.49752990  0.54666811  0.75284337  1
  Pb  Pb209  1  0.49524599  0.88212961  0.76357153  1
  Pb  Pb210  1  0.00147784  0.11957042  0.25091229  1
  Pb  Pb211  1  0.00374152  0.45241790  0.24193370  1
  Pb  Pb212  1  -0.00304711  0.78315711  0.26098436  1
  Pb  Pb213  1  0.50196958  0.11966912  0.24768452  1
  Pb  Pb214  1  0.50387289  0.45398333  0.25876176  1
  Pb  Pb215  1  0.49880278  0.78434223  0.24212427  1
  C  C216  1  0.00272049  0.04780284  0.63174896  1
  C  C217  1  -0.00254874  0.37969060  0.63327822  1
  C  C218  1  -0.00054983  0.70958402  0.63094484  1
  C  C219  1  0.49486601  0.04678119  0.62752667  1
  C  C220  1  0.49578423  0.37673227  0.63722832  1
  C  C221  1  0.50423151  0.71273568  0.62811483  1
  C  C222  1  -0.00069987  0.28525340  0.12862888  1
  C  C223  1  0.00243343  0.62053775  0.12611370  1
  C  C224  1  -0.00058739  0.95404092  0.13349451  1
  C  C225  1  0.50339442  0.29094697  0.13490732  1
  C  C226  1  0.49344689  0.61962046  0.13065012  1
  C  C227  1  0.49547129  0.95516697  0.13519320  1
  C  C228  1  -0.00210304  0.04586381  0.86622239  1
  C  C229  1  0.00194884  0.37924032  0.86796440  1
  C  C230  1  -0.00645314  0.71015958  0.86844595  1
  C  C231  1  0.49402267  0.04762387  0.86655061  1
  C  C232  1  0.49689251  0.38157497  0.87070520  1
  C  C233  1  0.49659707  0.71128424  0.86526973  1
  C  C234  1  0.00203697  0.28692429  0.36614798  1
  C  C235  1  0.00098420  0.61972496  0.36805208  1
  C  C236  1  0.00264274  0.95475537  0.36727187  1
  C  C237  1  0.50659164  0.28709028  0.36708997  1
  C  C238  1  0.49939105  0.62300488  0.36672316  1
  C  C239  1  0.50093057  0.95623603  0.36923923  1
  C  C240  1  0.24783486  0.21326809  0.62788094  1
  C  C241  1  0.24215774  0.54687997  0.63196805  1
  C  C242  1  0.24615728  0.87929618  0.63362683  1
  C  C243  1  0.75211814  0.20952237  0.63051062  1
  C  C244  1  0.75007168  0.54780827  0.62761459  1
  C  C245  1  0.75082987  0.87876471  0.63002659  1
  C  C246  1  0.24927280  0.12034851  0.13146305  1
  C  C247  1  0.25163939  0.45685803  0.13306981  1
  C  C248  1  0.25227593  0.78591072  0.13368185  1
  C  C249  1  0.75376007  0.11973636  0.12818434  1
  C  C250  1  0.75238626  0.45397698  0.12884774  1
  C  C251  1  0.75234618  0.78707342  0.13080162  1
  C  C252  1  0.25089666  0.21375543  0.86977553  1
  C  C253  1  0.25260580  0.54655770  0.87350054  1
  C  C254  1  0.25509305  0.87919077  0.86686468  1
  C  C255  1  0.74561641  0.21172236  0.87043057  1
  C  C256  1  0.74848288  0.54561467  0.86689905  1
  C  C257  1  0.75075144  0.87828150  0.86981417  1
  C  C258  1  0.25076657  0.12396833  0.37027477  1
  C  C259  1  0.25467558  0.45648950  0.36909902  1
  C  C260  1  0.24845644  0.78571311  0.37365587  1
  C  C261  1  0.75779131  0.12104813  0.36991810  1
  C  C262  1  0.75638663  0.45484251  0.36818748  1
  C  C263  1  0.75057571  0.78605129  0.36914730  1
  C  C264  1  0.01797130  0.92388422  0.03844111  1
  C  C265  1  0.68478997  0.57303406  0.54213607  1
  C  C266  1  0.29018103  0.57418802  0.96559605  1
  C  C267  1  0.17981674  0.24066739  0.95184707  1
  C  C268  1  0.81522040  0.90859443  0.95426807  1
  C  C269  1  0.77506912  0.42158972  0.03275703  1
  C  C270  1  0.77884983  0.08692242  0.46346075  1
  C  C271  1  0.81604640  0.43185737  0.45635219  1
  C  C272  1  0.72016720  0.57428216  0.96109844  1
  C  C273  1  0.47341873  0.59418093  0.46121894  1
  C  C274  1  0.46880537  0.40716629  0.96646770  1
  C  C275  1  0.51725761  0.40507797  0.54202502  1
  C  C276  1  0.45663273  0.93173797  0.04094162  1
  C  C277  1  0.55830042  0.07251919  0.54102091  1
  C  C278  1  0.54224454  0.58957949  0.04211338  1
  C  C279  1  0.52148028  0.74635390  0.53364617  1
  C  C280  1  0.46203909  0.07579445  0.96084821  1
  C  C281  1  0.73516993  0.42889973  0.46564456  1
  C  C282  1  0.28970189  0.57394924  0.54093479  1
  C  C283  1  0.94047410  0.40384243  0.95451984  1
  C  C284  1  0.20981038  0.57451933  0.96418364  1
  C  C285  1  0.45820762  0.26349237  0.04369604  1
  C  C286  1  0.02082805  0.07452197  0.96111048  1
  C  C287  1  0.30834833  0.42626277  0.45667351  1
  C  C288  1  0.97731171  0.58848699  0.46233381  1
  C  C289  1  0.31092428  0.09264701  0.04598628  1
  C  C290  1  0.22110958  0.75325080  0.46881801  1
  C  C291  1  0.05765321  0.74278562  0.54509711  1
  C  C292  1  0.52141175  0.73870031  0.96015482  1
  C  C293  1  0.23150614  0.24279072  0.53106393  1
  C  C294  1  0.20826872  0.57528591  0.53709157  1
  C  C295  1  0.01349522  0.59154141  0.02881118  1
  C  C296  1  0.54527868  0.92818495  0.45989715  1
  C  C297  1  0.76471036  0.57651948  0.53069927  1
  C  C298  1  0.31180801  0.23776395  0.54128879  1
  C  C299  1  0.68118868  0.90614427  0.54721742  1
  C  C300  1  0.31004749  0.09297977  0.45664786  1
  C  C301  1  0.22861591  0.90942248  0.53852241  1
  C  C302  1  0.23464926  0.43187506  0.03470777  1
  C  C303  1  0.97429384  0.25971043  0.46267782  1
  C  C304  1  0.55056818  0.40541155  0.96083391  1
  C  C305  1  0.47805637  0.07659626  0.53088362  1
  C  C306  1  0.93407187  0.59615088  0.04164869  1
  C  C307  1  0.05541165  0.26122890  0.45585021  1
  C  C308  1  0.01616432  0.40637653  0.53719681  1
  C  C309  1  0.21145201  0.75618335  0.04292178  1
  C  C310  1  0.78306767  0.08716761  0.03342318  1
  C  C311  1  0.31539700  0.43386726  0.04625831  1
  N  N312  1  0.76559497  0.75672590  0.46315523  1
  N  N313  1  0.68857805  0.76058286  0.45527426  1
  N  N314  1  0.45231997  0.25812840  0.45475320  1
  N  N315  1  0.53789993  0.26192332  0.04253722  1
  N  N316  1  0.96552853  0.74118212  0.96289742  1
  N  N317  1  0.97934992  0.74237314  0.53763963  1
  N  N318  1  0.29026415  0.90458411  0.96111754  1
  N  N319  1  0.44479294  0.74171986  0.54085977  1
  N  N320  1  0.73750307  0.90952835  0.96459012  1
  N  N321  1  0.73376921  0.24372936  0.96379310  1
  N  N322  1  0.70448728  0.09059196  0.03969298  1
  N  N323  1  0.04165524  0.73772116  0.95913609  1
  N  N324  1  0.44249855  0.73804574  0.95520091  1
  N  N325  1  0.55213056  0.59496203  0.45606231  1
  N  N326  1  0.30687858  0.90794913  0.54692700  1
  N  N327  1  0.29953795  0.75744365  0.46175076  1
  N  N328  1  0.94071719  0.06888321  0.54429319  1
  N  N329  1  0.46523779  0.58786962  0.03550987  1
  N  N330  1  0.53994082  0.07467848  0.95967077  1
  N  N331  1  0.01779220  0.07338685  0.53658894  1
  N  N332  1  0.69693117  0.42530250  0.04217475  1
  N  N333  1  0.05452152  0.59136355  0.45771773  1
  N  N334  1  0.97270471  0.25721542  0.03295619  1
  N  N335  1  0.81058724  0.24078469  0.95406446  1
  N  N336  1  0.81059593  0.75994068  0.04354691  1
  N  N337  1  0.69168750  0.23916889  0.54510790  1
  N  N338  1  0.29064224  0.75801643  0.03938994  1
  N  N339  1  0.43863250  0.40366348  0.54887964  1
  N  N340  1  0.25679100  0.24489924  0.96500015  1
  N  N341  1  0.70203076  0.09012025  0.45737529  1
  N  N342  1  0.20740926  0.89914202  0.95888308  1
  N  N343  1  0.75831843  0.90906079  0.53452747  1
  N  N344  1  0.23176954  0.09279831  0.46434309  1
  N  N345  1  0.79915069  0.57502590  0.95654673  1
  N  N346  1  0.76900395  0.24147703  0.53767507  1
  N  N347  1  0.52766859  0.25661566  0.46272257  1
  N  N348  1  0.01921848  0.40752602  0.96338729  1
  N  N349  1  0.53625580  0.92930963  0.04331396  1
  N  N350  1  0.73313129  0.75755406  0.03747566  1
  N  N351  1  0.93808397  0.40614957  0.54614204  1
  N  N352  1  0.04345025  0.92984324  0.45975022  1
  N  N353  1  0.22918387  0.42255305  0.46137233  1
  N  N354  1  0.94198217  0.07324259  0.95531373  1
  N  N355  1  0.46632183  0.92673303  0.46385190  1
  N  N356  1  0.23212900  0.08867617  0.03702167  1
  N  N357  1  0.93948970  0.92701935  0.04578905  1
  N  N358  1  0.05022695  0.25955781  0.04074660  1
  N  N359  1  0.96101258  0.92714481  0.45865174  1
  N  N360  1  0.05731002  0.06107700  0.58943946  1
  N  N361  1  0.05417740  0.39016972  0.59039025  1
  N  N362  1  0.07013622  0.72322439  0.60309897  1
  N  N363  1  0.56716632  0.05413708  0.60211716  1
  N  N364  1  0.55376355  0.38904961  0.59596843  1
  N  N365  1  0.56022129  0.72870153  0.58582464  1
  N  N366  1  0.43657735  0.27970098  0.10142593  1
  N  N367  1  0.43437060  0.60726398  0.09173024  1
  N  N368  1  0.43089837  0.94548196  0.09844982  1
  N  N369  1  0.94130645  0.27276852  0.08798297  1
  N  N370  1  0.92871194  0.61379142  0.10308330  1
  N  N371  1  0.92975020  0.94562611  0.10502250  1
  N  N372  1  0.43175870  0.05959827  0.90465471  1
  N  N373  1  0.43693750  0.39247276  0.91112917  1
  N  N374  1  0.42889273  0.72045157  0.89622554  1
  N  N375  1  0.92957582  0.05549493  0.89620654  1
  N  N376  1  0.92983639  0.38576115  0.89545110  1
  N  N377  1  0.93428718  0.72436957  0.90673431  1
  N  N378  1  0.07166405  0.27730978  0.39748958  1
  N  N379  1  0.06934980  0.61107718  0.39778205  1
  N  N380  1  0.06586509  0.93775864  0.39983255  1
  N  N381  1  0.56298386  0.27520633  0.40869143  1
  N  N382  1  0.56702736  0.61286155  0.39709761  1
  N  N383  1  0.56800618  0.94576149  0.40173243  1
  N  N384  1  0.32031937  0.21978289  0.60248775  1
  N  N385  1  0.30969502  0.55700456  0.59830107  1
  N  N386  1  0.31602510  0.88933135  0.60612014  1
  N  N387  1  0.80757622  0.22127958  0.58836796  1
  N  N388  1  0.80409702  0.56123973  0.58223620  1
  N  N389  1  0.80239777  0.88954164  0.58483157  1
  N  N390  1  0.19409143  0.10887904  0.08891109  1
  N  N391  1  0.19607276  0.44595181  0.08938874  1
  N  N392  1  0.18637354  0.77345447  0.10033066  1
  N  N393  1  0.68586382  0.11085420  0.09810843  1
  N  N394  1  0.68283047  0.44510504  0.10119898  1
  N  N395  1  0.69576432  0.77519473  0.08962326  1
  N  N396  1  0.17603872  0.22273729  0.89228969  1
  N  N397  1  0.18621397  0.55767847  0.90793177  1
  N  N398  1  0.18937415  0.89337923  0.89780198  1
  N  N399  1  0.69237259  0.22366023  0.91423571  1
  N  N400  1  0.68779450  0.55669278  0.90615473  1
  N  N401  1  0.69647800  0.88894787  0.91319169  1
  N  N402  1  0.32188882  0.11139634  0.39810949  1
  N  N403  1  0.32442559  0.44577406  0.39890607  1
  N  N404  1  0.31692700  0.77829795  0.40340638  1
  N  N405  1  0.81565776  0.10564695  0.41086146  1
  N  N406  1  0.82787899  0.44753510  0.39589256  1
  N  N407  1  0.80525513  0.77227304  0.41127714  1
  N  N408  1  0.43749466  0.27651932  0.39560048  1
  N  N409  1  0.43953077  0.61090760  0.40646615  1
  N  N410  1  0.44026547  0.94432617  0.40715495  1
  N  N411  1  0.94193397  0.27575797  0.40552605  1
  N  N412  1  0.94213657  0.60561320  0.40856846  1
  N  N413  1  0.93907450  0.95142426  0.40386262  1
  N  N414  1  0.05682525  0.05817081  0.90671174  1
  N  N415  1  0.05710914  0.39374105  0.90944414  1
  N  N416  1  0.06029955  0.71802795  0.90082761  1
  N  N417  1  0.55952126  0.05747087  0.89931435  1
  N  N418  1  0.56601106  0.38991464  0.90171701  1
  N  N419  1  0.55625115  0.72314377  0.90524713  1
  N  N420  1  0.06754122  0.27732478  0.09851425  1
  N  N421  1  0.05490253  0.60621788  0.07969287  1
  N  N422  1  0.05648510  0.94066840  0.09181079  1
  N  N423  1  0.56567988  0.28273230  0.09778681  1
  N  N424  1  0.56218478  0.60859641  0.09966019  1
  N  N425  1  0.56005050  0.94741686  0.10059009  1
  N  N426  1  0.43969057  0.06100478  0.58301794  1
  N  N427  1  0.42684740  0.38609767  0.60836258  1
  N  N428  1  0.43407416  0.72051064  0.60094720  1
  N  N429  1  0.93182548  0.05319654  0.60366886  1
  N  N430  1  0.92767608  0.38969976  0.60593331  1
  N  N431  1  0.94236121  0.71985729  0.58960131  1
  N  N432  1  0.19413750  0.11425681  0.41215260  1
  N  N433  1  0.19594149  0.44446788  0.40848992  1
  N  N434  1  0.18916584  0.77069725  0.41432872  1
  N  N435  1  0.68856068  0.11138748  0.39808816  1
  N  N436  1  0.69912514  0.44325503  0.41017181  1
  N  N437  1  0.67969338  0.77857534  0.39671212  1
  N  N438  1  0.30163416  0.22534077  0.91531743  1
  N  N439  1  0.31699996  0.55712619  0.91035267  1
  N  N440  1  0.31632838  0.88259676  0.90573731  1
  N  N441  1  0.81738198  0.22236976  0.89537215  1
  N  N442  1  0.81539925  0.55713780  0.89775888  1
  N  N443  1  0.82363365  0.88981999  0.89554287  1
  N  N444  1  0.32137358  0.11053777  0.10509325  1
  N  N445  1  0.32399886  0.44912920  0.10737059  1
  N  N446  1  0.31441231  0.77581354  0.09665921  1
  N  N447  1  0.81393645  0.10509313  0.08803835  1
  N  N448  1  0.80984671  0.43922099  0.08672183  1
  N  N449  1  0.82206874  0.77745748  0.10215684  1
  N  N450  1  0.19290990  0.22792111  0.58330142  1
  N  N451  1  0.17972054  0.55823421  0.59487574  1
  N  N452  1  0.18939644  0.89233183  0.59147978  1
  N  N453  1  0.68171804  0.22064473  0.60352164  1
  N  N454  1  0.67718267  0.55540143  0.60332964  1
  N  N455  1  0.67636048  0.88861639  0.60667174  1
  Cl  Cl456  1  0.24167973  0.06381156  0.60262277  1
  Cl  Cl457  1  0.23605044  0.39260540  0.60781389  1
  Cl  Cl458  1  0.25203703  0.72209894  0.61566897  1
  Cl  Cl459  1  0.75126205  0.04619525  0.62599014  1
  Cl  Cl460  1  0.73901260  0.38647163  0.61588876  1
  Cl  Cl461  1  0.75684116  0.72714135  0.60466675  1
  Cl  Cl462  1  0.25370828  0.27305167  0.10428398  1
  Cl  Cl463  1  0.24331469  0.60953259  0.11139475  1
  Cl  Cl464  1  0.24438731  0.94042044  0.10664109  1
  Cl  Cl465  1  0.75008454  0.27319252  0.10767632  1
  Cl  Cl466  1  0.74197229  0.61265703  0.11847083  1
  Cl  Cl467  1  0.74129253  0.94181518  0.11151770  1
  Cl  Cl468  1  0.24341683  0.05705476  0.89360127  1
  Cl  Cl469  1  0.24220290  0.38772093  0.88519400  1
  Cl  Cl470  1  0.24323888  0.71881838  0.88162569  1
  Cl  Cl471  1  0.74308834  0.05114285  0.89169269  1
  Cl  Cl472  1  0.74804456  0.38858683  0.88288857  1
  Cl  Cl473  1  0.74294028  0.72644183  0.88958007  1
  Cl  Cl474  1  0.25425697  0.28354220  0.37295508  1
  Cl  Cl475  1  0.25515498  0.61571532  0.38024243  1
  Cl  Cl476  1  0.24949881  0.94928968  0.38351406  1
  Cl  Cl477  1  0.75339308  0.27084014  0.39062047  1
  Cl  Cl478  1  0.75658544  0.61348431  0.38505695  1
  Cl  Cl479  1  0.75775983  0.94080082  0.39251859  1
  Cl  Cl480  1  -0.00271249  0.22318511  0.60294030  1
  Cl  Cl481  1  -0.01221903  0.55681593  0.60905954  1
  Cl  Cl482  1  -0.00612806  0.89236739  0.59868939  1
  Cl  Cl483  1  0.50200616  0.21337035  0.63785481  1
  Cl  Cl484  1  0.49088966  0.55491181  0.61894689  1
  Cl  Cl485  1  0.49772039  0.88080716  0.63321133  1
  Cl  Cl486  1  0.00933319  0.10887070  0.11517896  1
  Cl  Cl487  1  0.00499303  0.44220589  0.10308376  1
  Cl  Cl488  1  0.00432638  0.78337457  0.13083946  1
  Cl  Cl489  1  0.50331682  0.11683190  0.11535671  1
  Cl  Cl490  1  0.50521153  0.44961720  0.12862378  1
  Cl  Cl491  1  0.50992174  0.77786424  0.10624751  1
  Cl  Cl492  1  -0.00188220  0.21827879  0.86982663  1
  Cl  Cl493  1  0.00051300  0.54723337  0.87594694  1
  Cl  Cl494  1  0.00832530  0.88674018  0.87398009  1
  Cl  Cl495  1  0.50181591  0.22881330  0.90568383  1
  Cl  Cl496  1  0.50415495  0.55055680  0.88132317  1
  Cl  Cl497  1  0.50796033  0.89774983  0.90098565  1
  Cl  Cl498  1  0.00905205  0.10696882  0.39637024  1
  Cl  Cl499  1  0.01485680  0.44100942  0.37825846  1
  Cl  Cl500  1  -0.00864910  0.77651192  0.40220318  1
  Cl  Cl501  1  0.50432956  0.11394427  0.37818833  1
  Cl  Cl502  1  0.51346053  0.44430379  0.39381131  1
  Cl  Cl503  1  0.49792785  0.78020869  0.37400188  1
  Cl  Cl504  1  0.35774390  0.14521178  0.75190130  1
  Cl  Cl505  1  0.36090365  0.47917941  0.74517588  1
  Cl  Cl506  1  0.35985413  0.81433720  0.75282640  1
  Cl  Cl507  1  0.86004403  0.14520542  0.75610452  1
  Cl  Cl508  1  0.85900860  0.48047454  0.74816741  1
  Cl  Cl509  1  0.86228288  0.81481619  0.75137805  1
  Cl  Cl510  1  0.14216649  0.18517683  0.24931526  1
  Cl  Cl511  1  0.14317618  0.51685929  0.25213625  1
  Cl  Cl512  1  0.14487835  0.85285296  0.25908497  1
  Cl  Cl513  1  0.63980173  0.18609850  0.24517422  1
  Cl  Cl514  1  0.64529377  0.51558102  0.25145625  1
  Cl  Cl515  1  0.64647673  0.85321906  0.25240271  1
  Cl  Cl516  1  0.14285699  0.14815614  0.75281993  1
  Cl  Cl517  1  0.14282997  0.48038119  0.75267833  1
  Cl  Cl518  1  0.13982766  0.81527730  0.75050995  1
  Cl  Cl519  1  0.64068963  0.14789178  0.75136306  1
  Cl  Cl520  1  0.63919500  0.48408595  0.74390479  1
  Cl  Cl521  1  0.64316713  0.81335119  0.74960737  1
  Cl  Cl522  1  0.36381506  0.18622742  0.24529412  1
  Cl  Cl523  1  0.36488032  0.51957134  0.25288242  1
  Cl  Cl524  1  0.36335218  0.85250335  0.24496012  1
  Cl  Cl525  1  0.86078442  0.18366336  0.24990142  1
  Cl  Cl526  1  0.86505604  0.51841415  0.24901468  1
  Cl  Cl527  1  0.86414949  0.85327760  0.25080071  1
  Cl  Cl528  1  0.10557247  0.31473472  0.74853765  1
  Cl  Cl529  1  0.11044537  0.64750863  0.74429171  1
  Cl  Cl530  1  0.11059775  0.98279433  0.74907799  1
  Cl  Cl531  1  0.60932076  0.31399788  0.75735778  1
  Cl  Cl532  1  0.61111676  0.64797228  0.74649288  1
  Cl  Cl533  1  0.60875348  0.98093579  0.74747865  1
  Cl  Cl534  1  0.39075009  0.02045637  0.24785386  1
  Cl  Cl535  1  0.38974120  0.35439100  0.25143264  1
  Cl  Cl536  1  0.39340828  0.68637161  0.24832801  1
  Cl  Cl537  1  0.89009794  0.01899413  0.24922488  1
  Cl  Cl538  1  0.89187085  0.35101861  0.24737899  1
  Cl  Cl539  1  0.88901380  0.68734264  0.24290326  1
  Cl  Cl540  1  0.38932363  0.31292121  0.75084324  1
  Cl  Cl541  1  0.38971419  0.64928210  0.74711785  1
  Cl  Cl542  1  0.38710433  0.98028279  0.75291010  1
  Cl  Cl543  1  0.88358790  0.31370291  0.74939768  1
  Cl  Cl544  1  0.89049320  0.64609330  0.75119180  1
  Cl  Cl545  1  0.88853869  0.98040673  0.74922770  1
  Cl  Cl546  1  0.11007613  0.01691073  0.25186156  1
  Cl  Cl547  1  0.11224090  0.34939272  0.24239582  1
  Cl  Cl548  1  0.10978051  0.68301461  0.25526312  1
  Cl  Cl549  1  0.61307823  0.01874904  0.24823932  1
  Cl  Cl550  1  0.61248940  0.35093205  0.24951122  1
  Cl  Cl551  1  0.61523622  0.68618425  0.25207011  1
