# generated using pymatgen
data_H8PbC4(N3Cl2)2
_symmetry_space_group_name_H-M   'P 1'
_cell_length_a   16.63118175
_cell_length_b   22.52431960
_cell_length_c   21.59895696
_cell_angle_alpha   90.00001002
_cell_angle_beta   90.00493339
_cell_angle_gamma   90.00490184
_symmetry_Int_Tables_number   1
_chemical_formula_structural   H8PbC4(N3Cl2)2
_chemical_formula_sum   'H192 Pb24 C96 N144 Cl96'
_cell_volume   8091.09995331
_cell_formula_units_Z   24
loop_
 _symmetry_equiv_pos_site_id
 _symmetry_equiv_pos_as_xyz
  1  'x, y, z'
loop_
 _atom_site_type_symbol
 _atom_site_label
 _atom_site_symmetry_multiplicity
 _atom_site_fract_x
 _atom_site_fract_y
 _atom_site_fract_z
 _atom_site_occupancy
  H  H0  1  -0.01272741  0.02538136  0.67476396  1
  H  H1  1  0.00227105  0.36482044  0.67173018  1
  H  H2  1  0.01302309  0.69902382  0.67801776  1
  H  H3  1  0.51619947  0.03793497  0.68618167  1
  H  H4  1  0.48662716  0.36565386  0.67499683  1
  H  H5  1  0.50047613  0.69386626  0.67835245  1
  H  H6  1  0.00974125  0.30407817  0.17544626  1
  H  H7  1  -0.00759421  0.63848483  0.18153767  1
  H  H8  1  0.00253339  0.97092290  0.18208315  1
  H  H9  1  0.50330999  0.30350696  0.17369780  1
  H  H10  1  0.48884290  0.63896904  0.17692985  1
  H  H11  1  0.50021164  0.97647232  0.17508304  1
  H  H12  1  -0.00890536  0.03127544  0.81831515  1
  H  H13  1  0.01808823  0.35947966  0.82461045  1
  H  H14  1  0.01747241  0.69554887  0.82295350  1
  H  H15  1  0.51809577  0.02419572  0.82584559  1
  H  H16  1  0.48218569  0.36235585  0.82482064  1
  H  H17  1  0.48638043  0.69215545  0.82613510  1
  H  H18  1  -0.01463607  0.31045298  0.32663091  1
  H  H19  1  -0.01579158  0.63583015  0.32391708  1
  H  H20  1  -0.00244425  0.97030952  0.32913246  1
  H  H21  1  0.50966067  0.30731883  0.31856489  1
  H  H22  1  0.51512654  0.63490365  0.32040866  1
  H  H23  1  0.49761026  0.97161842  0.31896457  1
  H  H24  1  0.25116780  0.19685097  0.67646366  1
  H  H25  1  0.24667450  0.51998583  0.67336449  1
  H  H26  1  0.27121808  0.86071729  0.67404419  1
  H  H27  1  0.74928458  0.19864647  0.68453748  1
  H  H28  1  0.74201148  0.52333281  0.68195187  1
  H  H29  1  0.72607980  0.85749216  0.67434528  1
  H  H30  1  0.25033148  0.13766274  0.17875853  1
  H  H31  1  0.24479434  0.46833112  0.18488023  1
  H  H32  1  0.25042878  0.80364117  0.17853950  1
  H  H33  1  0.75567585  0.14394330  0.17365616  1
  H  H34  1  0.75388853  0.47371668  0.17682195  1
  H  H35  1  0.74430026  0.80671549  0.17458967  1
  H  H36  1  0.24125582  0.19644846  0.82319489  1
  H  H37  1  0.25612575  0.53236666  0.82269014  1
  H  H38  1  0.24896227  0.85940837  0.82609247  1
  H  H39  1  0.75770523  0.19407425  0.82483756  1
  H  H40  1  0.75508015  0.52941820  0.82017704  1
  H  H41  1  0.75233846  0.86272236  0.82112356  1
  H  H42  1  0.26308623  0.14116761  0.32560778  1
  H  H43  1  0.24401797  0.47856494  0.32596271  1
  H  H44  1  0.26103269  0.80486012  0.32035158  1
  H  H45  1  0.73213351  0.12902099  0.31432290  1
  H  H46  1  0.75510773  0.46664858  0.31922530  1
  H  H47  1  0.74417621  0.80384990  0.32662771  1
  H  H48  1  0.12628344  0.05110623  0.62251743  1
  H  H49  1  0.13028148  0.38730142  0.60816759  1
  H  H50  1  0.11646935  0.72400321  0.59405994  1
  H  H51  1  0.63448849  0.05189541  0.60878490  1
  H  H52  1  0.62625123  0.38004133  0.62441367  1
  H  H53  1  0.62072348  0.72264463  0.60445627  1
  H  H54  1  0.36991243  0.28120906  0.11209476  1
  H  H55  1  0.37960966  0.60943506  0.09555713  1
  H  H56  1  0.38751735  0.94286337  0.09764251  1
  H  H57  1  0.87052745  0.28243543  0.12105566  1
  H  H58  1  0.88031694  0.61194274  0.10436610  1
  H  H59  1  0.88075179  0.94673291  0.11103016  1
  H  H60  1  0.38053142  0.04750097  0.88111764  1
  H  H61  1  0.38457021  0.39528038  0.91248355  1
  H  H62  1  0.38740799  0.72593108  0.91206605  1
  H  H63  1  0.88595051  0.05780698  0.90222905  1
  H  H64  1  0.87820812  0.38476416  0.87549287  1
  H  H65  1  0.88307006  0.71644916  0.88461303  1
  H  H66  1  0.12350075  0.28548728  0.38006349  1
  H  H67  1  0.12614282  0.62024828  0.37603957  1
  H  H68  1  0.12850778  0.94794334  0.39199065  1
  H  H69  1  0.62775598  0.28133734  0.39446032  1
  H  H70  1  0.62050088  0.60894590  0.40305076  1
  H  H71  1  0.62045064  0.94832881  0.39089639  1
  H  H72  1  0.37075165  0.22599470  0.60525379  1
  H  H73  1  0.37261669  0.55205644  0.60626882  1
  H  H74  1  0.36157152  0.89612823  0.58433774  1
  H  H75  1  0.86954990  0.22325270  0.60897567  1
  H  H76  1  0.87096042  0.54901491  0.61787841  1
  H  H77  1  0.87267727  0.87847681  0.63237688  1
  H  H78  1  0.11968140  0.11626113  0.11413343  1
  H  H79  1  0.12203645  0.44666829  0.11334036  1
  H  H80  1  0.11609653  0.78422211  0.11805019  1
  H  H81  1  0.61784047  0.11549724  0.12045065  1
  H  H82  1  0.62319700  0.44973582  0.11305461  1
  H  H83  1  0.61877646  0.77547888  0.10737145  1
  H  H84  1  0.13405704  0.22674576  0.90511521  1
  H  H85  1  0.12028034  0.55017317  0.87781652  1
  H  H86  1  0.12077577  0.88289225  0.89238602  1
  H  H87  1  0.63686266  0.22271132  0.89722490  1
  H  H88  1  0.62209326  0.54913311  0.87905518  1
  H  H89  1  0.61402098  0.88722070  0.87424538  1
  H  H90  1  0.36309311  0.10783265  0.41255030  1
  H  H91  1  0.37011671  0.44889846  0.39382325  1
  H  H92  1  0.37775523  0.77520379  0.39299951  1
  H  H93  1  0.86568199  0.11143185  0.37488287  1
  H  H94  1  0.86855203  0.44160423  0.39971401  1
  H  H95  1  0.88137456  0.78335839  0.38320834  1
  H  H96  1  0.37896459  0.28284084  0.38369481  1
  H  H97  1  0.37504491  0.61982686  0.37348051  1
  H  H98  1  0.37309865  0.94111293  0.38483665  1
  H  H99  1  0.87925885  0.27833827  0.40969780  1
  H  H100  1  0.88307789  0.60475365  0.41147114  1
  H  H101  1  0.88003700  0.94300822  0.40186811  1
  H  H102  1  0.13120098  0.04672429  0.87008595  1
  H  H103  1  0.12315735  0.38988840  0.90805475  1
  H  H104  1  0.13075280  0.72347367  0.90160550  1
  H  H105  1  0.62679864  0.06178183  0.90355550  1
  H  H106  1  0.62627024  0.38356555  0.86994910  1
  H  H107  1  0.62886092  0.71564469  0.87376268  1
  H  H108  1  0.11608217  0.27209503  0.09379860  1
  H  H109  1  0.12846164  0.62142938  0.12124252  1
  H  H110  1  0.12978573  0.94740942  0.11624532  1
  H  H111  1  0.61746397  0.27151199  0.09793887  1
  H  H112  1  0.62662169  0.61527789  0.12095153  1
  H  H113  1  0.63445482  0.95123854  0.11501764  1
  H  H114  1  0.38566482  0.05421340  0.61849347  1
  H  H115  1  0.38261955  0.39289782  0.59200010  1
  H  H116  1  0.37244739  0.72021368  0.61187901  1
  H  H117  1  0.88318729  0.05636129  0.59064465  1
  H  H118  1  0.88144110  0.38754931  0.60055972  1
  H  H119  1  0.87176335  0.71442956  0.62695335  1
  H  H120  1  0.12120932  0.11463700  0.37298989  1
  H  H121  1  0.12177029  0.44608632  0.39669733  1
  H  H122  1  0.12933964  0.78461151  0.38309913  1
  H  H123  1  0.61812551  0.11758477  0.39551651  1
  H  H124  1  0.62063041  0.44759267  0.38025548  1
  H  H125  1  0.63527842  0.77159817  0.40544541  1
  H  H126  1  0.37941249  0.21425462  0.88032462  1
  H  H127  1  0.36645530  0.55720033  0.90318699  1
  H  H128  1  0.36947169  0.89092091  0.89636242  1
  H  H129  1  0.88525341  0.22353744  0.89143433  1
  H  H130  1  0.86951565  0.55534750  0.89677595  1
  H  H131  1  0.85977576  0.88916506  0.90523766  1
  H  H132  1  0.36872918  0.11163482  0.10671302  1
  H  H133  1  0.37158130  0.45069468  0.11636577  1
  H  H134  1  0.36411541  0.77575916  0.10283665  1
  H  H135  1  0.86338047  0.10928966  0.09262293  1
  H  H136  1  0.87116416  0.44390844  0.10031242  1
  H  H137  1  0.86785166  0.77923153  0.10589445  1
  H  H138  1  0.12194943  0.22401841  0.61144796  1
  H  H139  1  0.12445693  0.55198584  0.60195152  1
  H  H140  1  0.12308946  0.87862189  0.63367370  1
  H  H141  1  0.62143658  0.22049291  0.61457930  1
  H  H142  1  0.62178227  0.55243013  0.60896205  1
  H  H143  1  0.63451182  0.89234760  0.58290814  1
  H  H144  1  0.31328193  0.91856701  1.00219807  1
  H  H145  1  0.96654903  0.57384182  0.50600616  1
  H  H146  1  0.55199879  0.25197107  -0.00510211  1
  H  H147  1  0.84046812  0.24973462  0.99655620  1
  H  H148  1  0.64993184  0.58020997  -0.00710404  1
  H  H149  1  0.96303996  0.08144745  0.49163612  1
  H  H150  1  0.27780843  0.07866828  0.50781930  1
  H  H151  1  0.85905031  0.74852450  0.49230993  1
  H  H152  1  0.60267667  0.92116310  0.00687829  1
  H  H153  1  0.83687210  0.09695553  0.49195397  1
  H  H154  1  0.56081526  0.74862716  0.50053386  1
  H  H155  1  0.27311079  0.92351554  0.48729857  1
  H  H156  1  0.93237811  0.91423105  0.51082835  1
  H  H157  1  0.56175476  0.93255035  0.49582842  1
  H  H158  1  0.67931807  0.57395311  0.50335218  1
  H  H159  1  0.33052477  0.42824098  0.00328612  1
  H  H160  1  0.04588488  0.41703487  1.00718536  1
  H  H161  1  0.09311006  0.91700183  0.00544065  1
  H  H162  1  0.54817507  0.57983106  0.50869367  1
  H  H163  1  0.32214688  0.73972384  0.50019552  1
  H  H164  1  0.94251331  0.58283948  -0.00396387  1
  H  H165  1  0.95751900  0.08541178  1.00611460  1
  H  H166  1  0.30353977  0.74459779  -0.00540263  1
  H  H167  1  0.47129434  0.75206925  1.00869480  1
  H  H168  1  0.65992115  0.41984849  0.00189560  1
  H  H169  1  0.83156986  0.58359026  0.50789806  1
  H  H170  1  0.42981799  0.88419516  0.47340828  1
  H  H171  1  0.16158177  0.25258147  0.50576347  1
  H  H172  1  0.78688975  0.08055935  -0.00640970  1
  H  H173  1  0.17035013  0.42249281  0.00137680  1
  H  H174  1  0.56962886  0.25306502  0.50087699  1
  H  H175  1  0.12092392  0.91165983  0.52263519  1
  H  H176  1  0.57801045  0.06531536  0.49710012  1
  H  H177  1  0.95492936  0.25312218  0.50824336  1
  H  H178  1  0.11872429  0.08022748  0.98384798  1
  H  H179  1  0.40292087  0.24350596  0.00855078  1
  H  H180  1  0.13974545  0.58440415  0.99214236  1
  H  H181  1  0.61358128  0.41150319  0.50821239  1
  H  H182  1  0.72686454  0.91760886  0.49067764  1
  H  H183  1  0.31682144  0.08246533  -0.00352284  1
  H  H184  1  0.67975866  0.11284284  0.50693334  1
  H  H185  1  0.42804448  0.08954455  0.51466588  1
  H  H186  1  0.31901021  0.26228362  0.49868424  1
  H  H187  1  0.46982761  0.42025259  1.00906012  1
  H  H188  1  0.04380579  0.75100249  0.48908603  1
  H  H189  1  0.82171852  0.74376476  -0.00184926  1
  H  H190  1  0.92940784  0.91505254  0.00176756  1
  H  H191  1  0.66334428  0.74970916  0.00194122  1
  Pb  Pb192  1  0.25367858  0.04836685  0.74270253  1
  Pb  Pb193  1  0.25472786  0.38302855  0.75910171  1
  Pb  Pb194  1  0.25139536  0.71422786  0.75231892  1
  Pb  Pb195  1  0.75772163  0.05029018  0.75217441  1
  Pb  Pb196  1  0.75308997  0.38024893  0.74749247  1
  Pb  Pb197  1  0.74970016  0.71485397  0.74918727  1
  Pb  Pb198  1  0.24731917  0.28488887  0.24694265  1
  Pb  Pb199  1  0.25007935  0.62080070  0.23812700  1
  Pb  Pb200  1  0.25140943  0.95188166  0.24359107  1
  Pb  Pb201  1  0.74670664  0.28571199  0.25170952  1
  Pb  Pb202  1  0.75399991  0.61507142  0.26068489  1
  Pb  Pb203  1  0.75007720  0.95219177  0.25785241  1
  Pb  Pb204  1  0.00632110  0.21804671  0.75056968  1
  Pb  Pb205  1  -0.00077002  0.54769364  0.74576258  1
  Pb  Pb206  1  0.00140123  0.87996835  0.76319856  1
  Pb  Pb207  1  0.50293843  0.21499151  0.75379692  1
  Pb  Pb208  1  0.49873837  0.54734796  0.75212703  1
  Pb  Pb209  1  0.49950821  0.88219885  0.73489862  1
  Pb  Pb210  1  -0.00452280  0.11867839  0.24847742  1
  Pb  Pb211  1  0.00120346  0.44952500  0.24744673  1
  Pb  Pb212  1  -0.00232697  0.78671709  0.24857244  1
  Pb  Pb213  1  0.49622182  0.11912362  0.26193219  1
  Pb  Pb214  1  0.49629419  0.45245891  0.24379138  1
  Pb  Pb215  1  0.50554687  0.78202032  0.25298850  1
  C  C216  1  -0.00123737  0.04300060  0.62888889  1
  C  C217  1  0.00486929  0.37994864  0.62395162  1
  C  C218  1  0.00037535  0.71223670  0.63066144  1
  C  C219  1  0.51131285  0.04967568  0.63751322  1
  C  C220  1  0.49962123  0.37965361  0.62805863  1
  C  C221  1  0.49832620  0.71132657  0.63159517  1
  C  C222  1  -0.00168050  0.28710071  0.12954266  1
  C  C223  1  0.00003591  0.62384570  0.13409042  1
  C  C224  1  0.00446401  0.95496539  0.13460130  1
  C  C225  1  0.49674777  0.28586343  0.12706599  1
  C  C226  1  0.49869948  0.62158560  0.13094853  1
  C  C227  1  0.50778502  0.95800574  0.12905354  1
  C  C228  1  0.00329321  0.04558351  0.86548024  1
  C  C229  1  0.00659339  0.37663150  0.87055706  1
  C  C230  1  0.01021369  0.71109252  0.86998333  1
  C  C231  1  0.50821204  0.04396177  0.87077278  1
  C  C232  1  0.49732542  0.37886928  0.87054971  1
  C  C233  1  0.50078954  0.71011926  0.87138039  1
  C  C234  1  -0.00426455  0.29260449  0.37258183  1
  C  C235  1  -0.00270265  0.62015905  0.37029423  1
  C  C236  1  0.00157586  0.95425280  0.37634466  1
  C  C237  1  0.50524141  0.29094885  0.36573573  1
  C  C238  1  0.50355226  0.62129042  0.36765593  1
  C  C239  1  0.49715039  0.95414597  0.36589608  1
  C  C240  1  0.24736017  0.21407484  0.62948283  1
  C  C241  1  0.24781092  0.54001263  0.62774031  1
  C  C242  1  0.25104201  0.87780131  0.62945017  1
  C  C243  1  0.74670828  0.21301791  0.63657647  1
  C  C244  1  0.74449366  0.54042763  0.63487340  1
  C  C245  1  0.74400538  0.87518698  0.62966692  1
  C  C246  1  0.24671412  0.12203953  0.13137370  1
  C  C247  1  0.24619507  0.45525064  0.13642781  1
  C  C248  1  0.24371250  0.78854151  0.13123719  1
  C  C249  1  0.74607701  0.12419467  0.12849298  1
  C  C250  1  0.74948417  0.45694362  0.12987815  1
  C  C251  1  0.74313265  0.78853958  0.12795677  1
  C  C252  1  0.25204383  0.21143015  0.86999601  1
  C  C253  1  0.24674615  0.54694966  0.86993885  1
  C  C254  1  0.24680312  0.87666448  0.87286867  1
  C  C255  1  0.76039855  0.21222598  0.87123963  1
  C  C256  1  0.74804397  0.54474376  0.86738165  1
  C  C257  1  0.74213907  0.87924640  0.86750037  1
  C  C258  1  0.24929518  0.12269090  0.37071637  1
  C  C259  1  0.24518500  0.45929849  0.37193150  1
  C  C260  1  0.25640826  0.78855094  0.36738100  1
  C  C261  1  0.73887590  0.11931776  0.36331332  1
  C  C262  1  0.74829242  0.45247160  0.36669799  1
  C  C263  1  0.75424804  0.78654786  0.37277460  1
  C  C264  1  0.20798341  0.43246511  0.04120137  1
  C  C265  1  0.19956891  0.90746073  0.96335155  1
  C  C266  1  0.56287399  0.40358716  0.54067185  1
  C  C267  1  0.69567298  0.57151053  0.95769516  1
  C  C268  1  0.04986567  0.40690095  0.53391250  1
  C  C269  1  0.70386114  0.42916813  0.03942755  1
  C  C270  1  0.19772905  0.09592821  0.04043945  1
  C  C271  1  0.52737311  0.08316961  0.96220212  1
  C  C272  1  0.28990765  0.43461148  0.04213792  1
  C  C273  1  0.54482098  0.06540877  0.54038900  1
  C  C274  1  0.04975824  0.92744386  0.04238565  1
  C  C275  1  0.27892055  0.09363352  0.03586576  1
  C  C276  1  0.94290392  0.41001165  0.95394276  1
  C  C277  1  0.01437847  0.73892818  0.53237795  1
  C  C278  1  0.98691699  0.07365248  0.96274368  1
  C  C279  1  0.97579673  0.59518181  0.03738887  1
  C  C280  1  0.69792696  0.42558845  0.45574108  1
  C  C281  1  0.20533083  0.75916387  0.45654811  1
  C  C282  1  0.97056099  0.92557180  0.47170268  1
  C  C283  1  0.48238945  0.40768714  0.53113314  1
  C  C284  1  0.18905306  0.76228842  0.04213607  1
  C  C285  1  0.01534892  0.25333698  0.03527418  1
  C  C286  1  0.96973790  0.40709689  0.53137895  1
  C  C287  1  0.05222477  0.92759661  0.46740575  1
  C  C288  1  0.56856880  0.40845152  0.95159266  1
  C  C289  1  0.73176894  0.75181124  0.46759334  1
  C  C290  1  0.71147448  0.10955807  0.46313777  1
  C  C291  1  0.78298453  0.75631111  0.03658139  1
  C  C292  1  0.47903422  0.58787574  0.03719589  1
  C  C293  1  0.93441223  0.73512419  0.54503208  1
  C  C294  1  0.27010180  0.75851096  0.03544913  1
  C  C295  1  0.23380317  0.24076713  0.96583255  1
  C  C296  1  0.77691037  0.57364191  0.96235236  1
  C  C297  1  0.44006538  0.59745927  0.45352310  1
  C  C298  1  0.96767578  0.92698526  0.04048150  1
  C  C299  1  0.68543543  0.90777741  0.95378184  1
  C  C300  1  0.27006948  0.57580298  0.96560235  1
  C  C301  1  0.53409293  0.26339292  0.45998171  1
  C  C302  1  0.79270551  0.10462108  0.45571345  1
  C  C303  1  0.06754677  0.07081012  0.95140680  1
  C  C304  1  0.79139448  0.57216725  0.54578315  1
  C  C305  1  0.28259279  0.24778140  0.53759790  1
  C  C306  1  0.03481538  0.74061107  0.96474865  1
  C  C307  1  0.05647716  0.59943488  0.04540447  1
  C  C308  1  0.18926687  0.57407979  0.95846401  1
  C  C309  1  0.28650133  0.75507293  0.46128995  1
  C  C310  1  0.25262384  0.91028400  0.53323450  1
  C  C311  1  0.51983359  0.59294017  0.46536885  1
  N  N312  1  0.44591662  0.26138224  0.03857709  1
  N  N313  1  0.81932541  0.90530970  0.55186389  1
  N  N314  1  0.56894070  0.74227193  0.95208795  1
  N  N315  1  0.78064431  0.23715227  0.54107277  1
  N  N316  1  0.02058853  0.41025850  0.96429057  1
  N  N317  1  0.49234172  0.74607101  0.96367625  1
  N  N318  1  0.05808682  0.26221414  0.45697623  1
  N  N319  1  0.45460240  0.92220716  0.45534792  1
  N  N320  1  0.20965130  0.42346174  0.46276373  1
  N  N321  1  0.20294074  0.24638429  0.54083051  1
  N  N322  1  0.06460476  0.59602848  0.45443551  1
  N  N323  1  0.45486453  0.26351850  0.45679062  1
  N  N324  1  0.78277647  0.42671038  0.03523271  1
  N  N325  1  0.93865213  0.25718188  0.04294851  1
  N  N326  1  0.18132144  0.08874232  0.45080881  1
  N  N327  1  0.28852841  0.57780557  0.53891873  1
  N  N328  1  0.55769213  0.92837788  0.04222112  1
  N  N329  1  0.71177313  0.57336799  0.54357836  1
  N  N330  1  0.98825179  0.59060397  0.46468019  1
  N  N331  1  0.47998978  0.92506609  0.03535739  1
  N  N332  1  0.27861821  0.90953373  0.96407698  1
  N  N333  1  0.06239079  0.07553879  0.54601201  1
  N  N334  1  0.31042688  0.23568199  0.95906298  1
  N  N335  1  0.55582091  0.59021671  0.04416642  1
  N  N336  1  0.53667184  0.91909706  0.45462807  1
  N  N337  1  0.77467017  0.42404444  0.46350327  1
  N  N338  1  0.17670984  0.90453053  0.55078555  1
  N  N339  1  0.98555637  0.07661355  0.53594195  1
  N  N340  1  0.52358583  0.24814368  0.03703105  1
  N  N341  1  0.45038258  0.74042993  0.54136838  1
  N  N342  1  0.76193985  0.90924389  0.96472585  1
  N  N343  1  0.52838050  0.74183637  0.54016046  1
  N  N344  1  0.76241871  0.08781557  0.03724295  1
  N  N345  1  0.72232094  0.24228960  0.96386804  1
  N  N346  1  0.98072650  0.25899443  0.46524894  1
  N  N347  1  0.21244064  0.57813435  0.53773247  1
  N  N348  1  0.45026912  0.07829556  0.95667261  1
  N  N349  1  0.80960428  0.75693991  0.45910026  1
  N  N350  1  0.70405712  0.23625859  0.54290241  1
  N  N351  1  0.25758140  0.08657590  0.46280351  1
  N  N352  1  0.70331805  0.75477345  0.03845393  1
  N  N353  1  0.46541185  0.06811872  0.54504667  1
  N  N354  1  0.28575403  0.42451847  0.46198998  1
  N  N355  1  0.49173615  0.41215596  0.96498358  1
  N  N356  1  0.68523040  0.08991173  0.04525768  1
  N  N357  1  0.80052599  0.24303737  0.96022116  1
  N  N358  1  0.74414445  0.91001091  0.53672220  1
  N  N359  1  0.95762894  0.73784075  0.96071907  1
  N  N360  1  0.06992092  0.05630851  0.60438196  1
  N  N361  1  0.07229469  0.39065693  0.59039920  1
  N  N362  1  0.05461136  0.72416728  0.58704008  1
  N  N363  1  0.57356142  0.05321700  0.59738689  1
  N  N364  1  0.57180579  0.38622727  0.60234009  1
  N  N365  1  0.55927264  0.72244653  0.59411671  1
  N  N366  1  0.42868107  0.27492376  0.09744323  1
  N  N367  1  0.44165813  0.60673366  0.08927440  1
  N  N368  1  0.44951802  0.94272374  0.08994331  1
  N  N369  1  0.92797978  0.27840412  0.10288095  1
  N  N370  1  0.94154180  0.61072035  0.09421072  1
  N  N371  1  0.94095364  0.94414758  0.09803152  1
  N  N372  1  0.43858044  0.05362119  0.89817004  1
  N  N373  1  0.44663834  0.39082931  0.91602150  1
  N  N374  1  0.44969750  0.72358199  0.91611241  1
  N  N375  1  0.94805884  0.05784324  0.90884649  1
  N  N376  1  0.93422950  0.39013719  0.89566689  1
  N  N377  1  0.94221010  0.71910299  0.90038330  1
  N  N378  1  0.06648590  0.28113367  0.39850725  1
  N  N379  1  0.06973795  0.61471734  0.39574071  1
  N  N380  1  0.07012943  0.94487062  0.40903420  1
  N  N381  1  0.56653768  0.27943812  0.40432542  1
  N  N382  1  0.55884284  0.60827419  0.41045335  1
  N  N383  1  0.55983246  0.94896010  0.40325593  1
  N  N384  1  0.31033460  0.22841480  0.59287143  1
  N  N385  1  0.31214367  0.55381637  0.59446713  1
  N  N386  1  0.29944179  0.89426798  0.58203578  1
  N  N387  1  0.80817995  0.22288604  0.59893687  1
  N  N388  1  0.81193058  0.55359892  0.60293947  1
  N  N389  1  0.81846464  0.88577403  0.61028466  1
  N  N390  1  0.17831024  0.11267535  0.09832568  1
  N  N391  1  0.18209190  0.44530935  0.10007148  1
  N  N392  1  0.17371179  0.78009567  0.10004437  1
  N  N393  1  0.67561916  0.11078416  0.10283847  1
  N  N394  1  0.68201809  0.44697661  0.09767965  1
  N  N395  1  0.67889821  0.77700399  0.09401138  1
  N  N396  1  0.19577820  0.22618550  0.91246720  1
  N  N397  1  0.17635775  0.55586148  0.89770256  1
  N  N398  1  0.17967681  0.88805070  0.90650851  1
  N  N399  1  0.69800123  0.22443207  0.90769593  1
  N  N400  1  0.67911349  0.55374461  0.89738309  1
  N  N401  1  0.67066584  0.89019889  0.89426577  1
  N  N402  1  0.30054402  0.10962275  0.41557180  1
  N  N403  1  0.30947016  0.44686524  0.40577319  1
  N  N404  1  0.31740644  0.77392181  0.40460840  1
  N  N405  1  0.80814308  0.11060455  0.39355151  1
  N  N406  1  0.80636264  0.44141876  0.40677218  1
  N  N407  1  0.82377522  0.77830295  0.40074396  1
  N  N408  1  0.43881846  0.28077719  0.39786571  1
  N  N409  1  0.43064970  0.61421565  0.39469355  1
  N  N410  1  0.43348793  0.93466734  0.39613935  1
  N  N411  1  0.94138177  0.27970703  0.41513904  1
  N  N412  1  0.94545220  0.60401163  0.41361716  1
  N  N413  1  0.94022048  0.94233004  0.41389179  1
  N  N414  1  0.07585272  0.05360181  0.89088321  1
  N  N415  1  0.06112590  0.38746571  0.91374232  1
  N  N416  1  0.06959716  0.72461345  0.91033909  1
  N  N417  1  0.56536760  0.06273473  0.91082889  1
  N  N418  1  0.57216887  0.38939260  0.89265855  1
  N  N419  1  0.57323760  0.72216557  0.89374169  1
  N  N420  1  0.05417394  0.27132229  0.08710879  1
  N  N421  1  0.07084382  0.61631989  0.10391270  1
  N  N422  1  0.07099436  0.94467931  0.10127798  1
  N  N423  1  0.55596879  0.27381520  0.08797940  1
  N  N424  1  0.56842215  0.61117822  0.10368158  1
  N  N425  1  0.57576621  0.94911128  0.09872326  1
  N  N426  1  0.44532954  0.06207272  0.60605098  1
  N  N427  1  0.44435753  0.39324125  0.58356080  1
  N  N428  1  0.43242090  0.72295158  0.59878511  1
  N  N429  1  0.94526297  0.05436102  0.58512010  1
  N  N430  1  0.94136785  0.39093192  0.58630012  1
  N  N431  1  0.92652965  0.71917210  0.60484435  1
  N  N432  1  0.17680922  0.10952479  0.39283361  1
  N  N433  1  0.18281844  0.44493501  0.40704410  1
  N  N434  1  0.18769795  0.77929131  0.39987640  1
  N  N435  1  0.67908115  0.11800842  0.40521235  1
  N  N436  1  0.67876280  0.44292600  0.39707493  1
  N  N437  1  0.69701171  0.77011579  0.41421964  1
  N  N438  1  0.32196912  0.21732339  0.89807723  1
  N  N439  1  0.30478031  0.55955412  0.91237996  1
  N  N440  1  0.30878039  0.88849695  0.90906863  1
  N  N441  1  0.82517128  0.22315485  0.90486218  1
  N  N442  1  0.80829645  0.55745415  0.90794089  1
  N  N443  1  0.79732353  0.89102705  0.90959802  1
  N  N444  1  0.30830820  0.11008090  0.09408664  1
  N  N445  1  0.31226244  0.44850042  0.10154627  1
  N  N446  1  0.30318073  0.77536769  0.09201435  1
  N  N447  1  0.80119853  0.11073504  0.08655023  1
  N  N448  1  0.80951630  0.44442444  0.09165223  1
  N  N449  1  0.80768028  0.77618930  0.09242332  1
  N  N450  1  0.18145393  0.22330798  0.59669137  1
  N  N451  1  0.18563810  0.55489801  0.59278391  1
  N  N452  1  0.17658579  0.88394596  0.60956242  1
  N  N453  1  0.68190463  0.22123252  0.60198351  1
  N  N454  1  0.68299007  0.55006717  0.59739394  1
  N  N455  1  0.69684704  0.88917793  0.58260476  1
  Cl  Cl456  1  0.26375225  0.05733367  0.60281373  1
  Cl  Cl457  1  0.26123510  0.38770024  0.62644333  1
  Cl  Cl458  1  0.24642956  0.72561921  0.61864237  1
  Cl  Cl459  1  0.76029787  0.05683106  0.61471940  1
  Cl  Cl460  1  0.75832678  0.38554802  0.62069644  1
  Cl  Cl461  1  0.74046037  0.72232044  0.61468514  1
  Cl  Cl462  1  0.24221155  0.27535026  0.11421410  1
  Cl  Cl463  1  0.25666298  0.61354911  0.10365907  1
  Cl  Cl464  1  0.26516277  0.94148642  0.10793287  1
  Cl  Cl465  1  0.73984179  0.27241151  0.11745248  1
  Cl  Cl466  1  0.75530235  0.61513796  0.12893923  1
  Cl  Cl467  1  0.75682613  0.94879519  0.12753888  1
  Cl  Cl468  1  0.25790875  0.04274338  0.87192767  1
  Cl  Cl469  1  0.25352348  0.39193462  0.89626378  1
  Cl  Cl470  1  0.26393254  0.72611931  0.88844155  1
  Cl  Cl471  1  0.76052374  0.06205778  0.89615110  1
  Cl  Cl472  1  0.75222872  0.38503305  0.87898726  1
  Cl  Cl473  1  0.75811654  0.72165670  0.88256179  1
  Cl  Cl474  1  0.25152581  0.27684300  0.38267818  1
  Cl  Cl475  1  0.24878251  0.62009061  0.36587431  1
  Cl  Cl476  1  0.25287738  0.94445966  0.38143361  1
  Cl  Cl477  1  0.75558640  0.28018528  0.38378994  1
  Cl  Cl478  1  0.75381972  0.60654693  0.40319248  1
  Cl  Cl479  1  0.74209194  0.93571545  0.39791626  1
  Cl  Cl480  1  -0.00669880  0.22694617  0.61037905  1
  Cl  Cl481  1  -0.00370380  0.55373506  0.60606331  1
  Cl  Cl482  1  -0.00244602  0.87945365  0.63178263  1
  Cl  Cl483  1  0.49711515  0.22134886  0.62021442  1
  Cl  Cl484  1  0.49999866  0.55707641  0.61588588  1
  Cl  Cl485  1  0.50694055  0.89516170  0.59362310  1
  Cl  Cl486  1  -0.01430704  0.11062020  0.11403686  1
  Cl  Cl487  1  -0.00226828  0.43844362  0.10911348  1
  Cl  Cl488  1  -0.00987528  0.77871019  0.11891099  1
  Cl  Cl489  1  0.49361674  0.11345348  0.13030486  1
  Cl  Cl490  1  0.49473465  0.44068651  0.10525295  1
  Cl  Cl491  1  0.49100209  0.77117716  0.10630124  1
  Cl  Cl492  1  0.00914374  0.22817229  0.88395126  1
  Cl  Cl493  1  -0.01013327  0.55242588  0.87821179  1
  Cl  Cl494  1  -0.01142234  0.88665278  0.89634173  1
  Cl  Cl495  1  0.51299612  0.22677683  0.89142374  1
  Cl  Cl496  1  0.48868741  0.55235345  0.88340880  1
  Cl  Cl497  1  0.48802686  0.89069202  0.86778579  1
  Cl  Cl498  1  -0.01000518  0.10812554  0.38583671  1
  Cl  Cl499  1  -0.00565396  0.44330610  0.38117949  1
  Cl  Cl500  1  0.00560675  0.78349865  0.38203202  1
  Cl  Cl501  1  0.48582209  0.10589890  0.40277227  1
  Cl  Cl502  1  0.49303290  0.44817772  0.37485099  1
  Cl  Cl503  1  0.51231982  0.77620971  0.39102378  1
  Cl  Cl504  1  0.36253733  0.14985811  0.75380239  1
  Cl  Cl505  1  0.35462164  0.48695411  0.75100095  1
  Cl  Cl506  1  0.36093480  0.81656763  0.74516674  1
  Cl  Cl507  1  0.85753575  0.14791934  0.75228550  1
  Cl  Cl508  1  0.85833014  0.48371460  0.74896693  1
  Cl  Cl509  1  0.86009724  0.81571652  0.74988043  1
  Cl  Cl510  1  0.13446582  0.18436166  0.25629321  1
  Cl  Cl511  1  0.13511301  0.52088535  0.24481155  1
  Cl  Cl512  1  0.13609964  0.85334558  0.24559242  1
  Cl  Cl513  1  0.63359993  0.18501472  0.24866781  1
  Cl  Cl514  1  0.63201826  0.52096999  0.25101326  1
  Cl  Cl515  1  0.63621689  0.85252472  0.24787715  1
  Cl  Cl516  1  0.14187842  0.14938366  0.74546661  1
  Cl  Cl517  1  0.13465986  0.47942598  0.75724048  1
  Cl  Cl518  1  0.14158973  0.81675211  0.75476040  1
  Cl  Cl519  1  0.63738549  0.14547787  0.75585293  1
  Cl  Cl520  1  0.63630737  0.47790017  0.75503650  1
  Cl  Cl521  1  0.63560818  0.81403204  0.75183869  1
  Cl  Cl522  1  0.35614428  0.18290164  0.25128614  1
  Cl  Cl523  1  0.35806555  0.51846020  0.24607277  1
  Cl  Cl524  1  0.35678195  0.85046994  0.24854260  1
  Cl  Cl525  1  0.85639301  0.18326071  0.25051370  1
  Cl  Cl526  1  0.85175289  0.51688960  0.25268181  1
  Cl  Cl527  1  0.85437114  0.84752286  0.25496696  1
  Cl  Cl528  1  0.10768990  0.31396066  0.74224326  1
  Cl  Cl529  1  0.10976368  0.64894122  0.74945350  1
  Cl  Cl530  1  0.11484344  0.98001947  0.74252188  1
  Cl  Cl531  1  0.61568269  0.31453360  0.74778768  1
  Cl  Cl532  1  0.61412495  0.64601196  0.75741234  1
  Cl  Cl533  1  0.61024788  0.98068834  0.75222731  1
  Cl  Cl534  1  0.39298800  0.01396841  0.24924647  1
  Cl  Cl535  1  0.38655495  0.35012783  0.24177113  1
  Cl  Cl536  1  0.39041666  0.68358758  0.25215343  1
  Cl  Cl537  1  0.88995319  0.01482888  0.26186157  1
  Cl  Cl538  1  0.88592248  0.35055452  0.23977129  1
  Cl  Cl539  1  0.89025730  0.68319054  0.25705625  1
  Cl  Cl540  1  0.39440047  0.31787164  0.75296952  1
  Cl  Cl541  1  0.39491344  0.65264539  0.74736606  1
  Cl  Cl542  1  0.38677901  0.98209845  0.73531319  1
  Cl  Cl543  1  0.89073303  0.31617704  0.75319093  1
  Cl  Cl544  1  0.88702345  0.64867525  0.74293746  1
  Cl  Cl545  1  0.89279146  0.98220490  0.75009695  1
  Cl  Cl546  1  0.10965701  0.01874586  0.25118217  1
  Cl  Cl547  1  0.10611955  0.35099184  0.25232500  1
  Cl  Cl548  1  0.11226207  0.68772375  0.24828780  1
  Cl  Cl549  1  0.61344723  0.02104685  0.26143606  1
  Cl  Cl550  1  0.60675191  0.35178356  0.24349761  1
  Cl  Cl551  1  0.60946692  0.68830244  0.24528155  1
