# generated using pymatgen
data_H8PbC4(N3Cl2)2
_symmetry_space_group_name_H-M   'P 1'
_cell_length_a   16.62388593
_cell_length_b   22.51076702
_cell_length_c   21.59214818
_cell_angle_alpha   90.00042645
_cell_angle_beta   89.98882959
_cell_angle_gamma   90.00625247
_symmetry_Int_Tables_number   1
_chemical_formula_structural   H8PbC4(N3Cl2)2
_chemical_formula_sum   'H192 Pb24 C96 N144 Cl96'
_cell_volume   8080.13625826
_cell_formula_units_Z   24
loop_
 _symmetry_equiv_pos_site_id
 _symmetry_equiv_pos_as_xyz
  1  'x, y, z'
loop_
 _atom_site_type_symbol
 _atom_site_label
 _atom_site_symmetry_multiplicity
 _atom_site_fract_x
 _atom_site_fract_y
 _atom_site_fract_z
 _atom_site_occupancy
  H  H0  1  -0.00423260  0.03156205  0.67481464  1
  H  H1  1  -0.00364454  0.36375404  0.68126806  1
  H  H2  1  0.00021692  0.70002716  0.68110005  1
  H  H3  1  0.49387600  0.03066348  0.67623763  1
  H  H4  1  0.49151929  0.36615265  0.68200584  1
  H  H5  1  0.49703944  0.69283075  0.67869502  1
  H  H6  1  -0.00251882  0.30257489  0.17934649  1
  H  H7  1  -0.00757488  0.63851694  0.17836246  1
  H  H8  1  0.00089659  0.97078516  0.17962458  1
  H  H9  1  0.48995353  0.30472020  0.17821288  1
  H  H10  1  0.50440332  0.63624751  0.18150172  1
  H  H11  1  0.49298271  0.96697970  0.18166976  1
  H  H12  1  -0.00840670  0.03284503  0.82318713  1
  H  H13  1  0.00021768  0.36157270  0.82155976  1
  H  H14  1  -0.00017954  0.69480769  0.81927334  1
  H  H15  1  0.50493589  0.02109328  0.82448102  1
  H  H16  1  0.50276563  0.36094560  0.82424294  1
  H  H17  1  0.49256784  0.69855520  0.82233984  1
  H  H18  1  -0.01543995  0.30399311  0.32368004  1
  H  H19  1  0.00660260  0.63492825  0.31716026  1
  H  H20  1  -0.00121668  0.97123522  0.32175206  1
  H  H21  1  0.51573393  0.30429742  0.31996896  1
  H  H22  1  0.48841811  0.63640261  0.32138868  1
  H  H23  1  0.50860857  0.96922260  0.32318304  1
  H  H24  1  0.24645208  0.19711524  0.68099320  1
  H  H25  1  0.24261475  0.52996619  0.68054077  1
  H  H26  1  0.25361245  0.86254174  0.67633536  1
  H  H27  1  0.74783233  0.19318578  0.68162754  1
  H  H28  1  0.74719891  0.52866569  0.68122144  1
  H  H29  1  0.74636989  0.86435989  0.67740039  1
  H  H30  1  0.26233935  0.13577028  0.17557944  1
  H  H31  1  0.24890253  0.47105639  0.17838329  1
  H  H32  1  0.24236731  0.80416403  0.17927708  1
  H  H33  1  0.73664838  0.13950358  0.17640825  1
  H  H34  1  0.74615883  0.47007570  0.18012013  1
  H  H35  1  0.75697668  0.80064551  0.17842461  1
  H  H36  1  0.24752306  0.19613199  0.82056887  1
  H  H37  1  0.25721074  0.52843364  0.82316665  1
  H  H38  1  0.25662939  0.86315725  0.81911839  1
  H  H39  1  0.76223853  0.20039280  0.82337761  1
  H  H40  1  0.74218942  0.53170241  0.81892756  1
  H  H41  1  0.74305630  0.86273530  0.82170204  1
  H  H42  1  0.25659474  0.13742203  0.32281017  1
  H  H43  1  0.24666094  0.47028651  0.31913652  1
  H  H44  1  0.25400224  0.80292960  0.31929538  1
  H  H45  1  0.75293221  0.13457039  0.32426401  1
  H  H46  1  0.74834355  0.46998847  0.31803170  1
  H  H47  1  0.75838485  0.80390808  0.31893879  1
  H  H48  1  0.13217008  0.04931572  0.62020031  1
  H  H49  1  0.12503076  0.38679489  0.61346999  1
  H  H50  1  0.13278612  0.71967337  0.61862342  1
  H  H51  1  0.63638382  0.04750298  0.62516372  1
  H  H52  1  0.62603879  0.38448224  0.62120621  1
  H  H53  1  0.62980113  0.71876866  0.61901199  1
  H  H54  1  0.37847962  0.27479272  0.09877234  1
  H  H55  1  0.37077463  0.61384525  0.11853130  1
  H  H56  1  0.37538967  0.94453291  0.10332553  1
  H  H57  1  0.88098891  0.27471221  0.10279080  1
  H  H58  1  0.87132298  0.61309863  0.10610940  1
  H  H59  1  0.87337224  0.94687175  0.11126844  1
  H  H60  1  0.37822673  0.05283193  0.88765044  1
  H  H61  1  0.37007718  0.38512890  0.88518763  1
  H  H62  1  0.38299729  0.72482899  0.90396836  1
  H  H63  1  0.88073204  0.06170863  0.90339225  1
  H  H64  1  0.87135012  0.38521303  0.88872072  1
  H  H65  1  0.87964601  0.72226931  0.89367559  1
  H  H66  1  0.12771238  0.28420403  0.37060199  1
  H  H67  1  0.12192466  0.61329580  0.39474696  1
  H  H68  1  0.12942248  0.94825530  0.38554614  1
  H  H69  1  0.62272582  0.27508457  0.40382897  1
  H  H70  1  0.62285631  0.61482600  0.38202028  1
  H  H71  1  0.62774708  0.94495626  0.39753376  1
  H  H72  1  0.37095842  0.22240921  0.60943941  1
  H  H73  1  0.37790488  0.55106801  0.61916339  1
  H  H74  1  0.37026439  0.89058702  0.60184908  1
  H  H75  1  0.87336242  0.21912451  0.61224688  1
  H  H76  1  0.87436636  0.55378040  0.61193109  1
  H  H77  1  0.87299685  0.88760116  0.61213586  1
  H  H78  1  0.12334682  0.11787527  0.12075828  1
  H  H79  1  0.13319385  0.44308662  0.10116269  1
  H  H80  1  0.11878596  0.77839948  0.10706558  1
  H  H81  1  0.62849087  0.10910667  0.09407376  1
  H  H82  1  0.63004029  0.44206980  0.10407447  1
  H  H83  1  0.61808192  0.78353868  0.12377568  1
  H  H84  1  0.11789735  0.21949748  0.88605054  1
  H  H85  1  0.12635768  0.55218150  0.88813923  1
  H  H86  1  0.12719315  0.88758029  0.88617044  1
  H  H87  1  0.62398528  0.21775157  0.87615089  1
  H  H88  1  0.63172096  0.55460169  0.89970656  1
  H  H89  1  0.62607491  0.88993784  0.89876571  1
  H  H90  1  0.36339570  0.10621527  0.40520338  1
  H  H91  1  0.37145924  0.44691182  0.39004773  1
  H  H92  1  0.36700509  0.77651714  0.39852406  1
  H  H93  1  0.86672374  0.10790406  0.40222228  1
  H  H94  1  0.87348851  0.44516440  0.38652979  1
  H  H95  1  0.86687769  0.77742672  0.40282494  1
  H  H96  1  0.37706372  0.28367989  0.37329000  1
  H  H97  1  0.37509819  0.60774266  0.39951325  1
  H  H98  1  0.37894182  0.94767215  0.38583352  1
  H  H99  1  0.88499708  0.27200208  0.41066160  1
  H  H100  1  0.87338904  0.61472158  0.37737953  1
  H  H101  1  0.88113484  0.94645768  0.39821920  1
  H  H102  1  0.12734378  0.05230193  0.88262890  1
  H  H103  1  0.12084320  0.38791024  0.89354455  1
  H  H104  1  0.12807329  0.72015760  0.88704642  1
  H  H105  1  0.62621454  0.05674699  0.89270824  1
  H  H106  1  0.61806713  0.38921068  0.89995038  1
  H  H107  1  0.63002035  0.71968995  0.87926855  1
  H  H108  1  0.12907730  0.28194942  0.11561123  1
  H  H109  1  0.12002669  0.61233275  0.11151929  1
  H  H110  1  0.12302429  0.94644168  0.10823924  1
  H  H111  1  0.62622001  0.28128035  0.11977689  1
  H  H112  1  0.61906014  0.61065645  0.10320763  1
  H  H113  1  0.62350284  0.94654326  0.11425071  1
  H  H114  1  0.39148997  0.05875622  0.59001506  1
  H  H115  1  0.37754514  0.38971862  0.60499087  1
  H  H116  1  0.38155890  0.72331765  0.60210956  1
  H  H117  1  0.88672048  0.05690963  0.59414800  1
  H  H118  1  0.87602365  0.38833991  0.60792990  1
  H  H119  1  0.88419390  0.72305747  0.60567274  1
  H  H120  1  0.11700181  0.11627751  0.37723456  1
  H  H121  1  0.12278315  0.44381890  0.39031970  1
  H  H122  1  0.11899109  0.78233947  0.38157717  1
  H  H123  1  0.61905177  0.11044672  0.38449469  1
  H  H124  1  0.62437356  0.44911863  0.38690546  1
  H  H125  1  0.62179454  0.78362067  0.37701326  1
  H  H126  1  0.36709880  0.22392897  0.89492432  1
  H  H127  1  0.37443237  0.55517442  0.89946119  1
  H  H128  1  0.37518162  0.88921686  0.89583556  1
  H  H129  1  0.86945103  0.22325355  0.90673184  1
  H  H130  1  0.87898555  0.55014551  0.87468616  1
  H  H131  1  0.87366846  0.88692832  0.88552854  1
  H  H132  1  0.36792318  0.10625384  0.09183040  1
  H  H133  1  0.38073596  0.44785287  0.11683149  1
  H  H134  1  0.36761749  0.78003335  0.10970366  1
  H  H135  1  0.87445237  0.11781392  0.12146207  1
  H  H136  1  0.87846618  0.44674470  0.11608188  1
  H  H137  1  0.86487537  0.77610392  0.09705589  1
  H  H138  1  0.12221072  0.22000177  0.61046379  1
  H  H139  1  0.12993570  0.55714770  0.60138647  1
  H  H140  1  0.12180110  0.88610756  0.61374320  1
  H  H141  1  0.62371656  0.22115773  0.61282772  1
  H  H142  1  0.62530985  0.55286283  0.60919966  1
  H  H143  1  0.62372655  0.88844588  0.60562403  1
  H  H144  1  0.28847699  0.08164072  0.50635467  1
  H  H145  1  0.44461493  0.74696631  0.49835633  1
  H  H146  1  0.82409502  0.24080461  0.50508661  1
  H  H147  1  0.68966962  0.41173320  -0.00159309  1
  H  H148  1  0.41309805  0.91626695  0.49884513  1
  H  H149  1  0.17228595  0.75177644  0.00332721  1
  H  H150  1  0.64175128  0.24641024  -0.00838165  1
  H  H151  1  0.91644298  0.91905403  0.00619269  1
  H  H152  1  0.69728965  0.58302741  1.00641215  1
  H  H153  1  0.68901106  0.91723524  1.00093429  1
  H  H154  1  0.17428370  0.41716364  0.49457449  1
  H  H155  1  0.54921309  0.25734674  0.50519374  1
  H  H156  1  0.67207878  0.25090363  0.50260764  1
  H  H157  1  0.90221744  0.58661974  0.49059111  1
  H  H158  1  0.83265128  0.92082995  0.50051705  1
  H  H159  1  0.70256649  0.08686790  -0.00731256  1
  H  H160  1  0.15678593  0.25053795  0.99595262  1
  H  H161  1  0.66578749  0.41833940  0.49810689  1
  H  H162  1  0.60919634  0.74877120  0.98941554  1
  H  H163  1  0.59896150  0.75224164  0.50838685  1
  H  H164  1  0.14491725  0.08272938  0.01441963  1
  H  H165  1  0.56341309  0.07106795  0.99876656  1
  H  H166  1  0.79699215  0.74751962  -0.00923229  1
  H  H167  1  0.29130985  0.09618869  -0.00853753  1
  H  H168  1  0.64940253  0.07958426  0.49334410  1
  H  H169  1  0.11272755  0.08002127  0.50403339  1
  H  H170  1  0.06330157  0.58860154  0.50403531  1
  H  H171  1  0.67673696  0.58020409  0.50034579  1
  H  H172  1  0.30047005  0.74790804  0.50426326  1
  H  H173  1  0.45071705  0.75452778  1.00881457  1
  H  H174  1  0.06933737  0.41827599  1.00232998  1
  H  H175  1  0.39657326  0.25334783  0.48669724  1
  H  H176  1  0.07455175  0.91563120  -0.00047916  1
  H  H177  1  0.79246164  0.75315877  0.50328767  1
  H  H178  1  0.16690055  0.24896498  0.50123233  1
  H  H179  1  0.43675587  0.42032083  0.49718750  1
  H  H180  1  0.92952864  0.41935955  0.50071813  1
  H  H181  1  0.16901137  0.58057574  0.99430451  1
  H  H182  1  0.94164877  0.75101669  0.49542517  1
  H  H183  1  0.91225801  0.41235156  0.99454550  1
  H  H184  1  0.40216913  0.41489653  0.99316855  1
  H  H185  1  0.46978405  0.08214323  0.49041757  1
  H  H186  1  0.43449646  0.06406029  0.99614333  1
  H  H187  1  0.96762100  0.24619583  0.50759015  1
  H  H188  1  0.55523399  0.58136371  -0.00264533  1
  H  H189  1  0.15689063  0.91602904  0.50685735  1
  H  H190  1  0.85836510  0.58015835  0.98872439  1
  H  H191  1  0.19671861  0.58635163  0.49588999  1
  Pb  Pb192  1  0.25730475  0.04863363  0.74722810  1
  Pb  Pb193  1  0.25082474  0.37943105  0.74699343  1
  Pb  Pb194  1  0.25788842  0.71580001  0.75207872  1
  Pb  Pb195  1  0.75570456  0.04796633  0.75347855  1
  Pb  Pb196  1  0.75662660  0.38190258  0.75228664  1
  Pb  Pb197  1  0.75440986  0.71368547  0.74408625  1
  Pb  Pb198  1  0.25134095  0.28670137  0.24326432  1
  Pb  Pb199  1  0.24928069  0.62024304  0.25221897  1
  Pb  Pb200  1  0.24601523  0.95408158  0.25179314  1
  Pb  Pb201  1  0.74969151  0.28571080  0.25872814  1
  Pb  Pb202  1  0.74820305  0.62014805  0.24635371  1
  Pb  Pb203  1  0.75327921  0.95195186  0.24924421  1
  Pb  Pb204  1  0.00139504  0.21182929  0.74831807  1
  Pb  Pb205  1  0.00772188  0.54843841  0.74383585  1
  Pb  Pb206  1  0.00277180  0.88106976  0.75387214  1
  Pb  Pb207  1  0.50438072  0.21653509  0.74535828  1
  Pb  Pb208  1  0.50260569  0.54601643  0.75644827  1
  Pb  Pb209  1  0.50585277  0.88185600  0.74869174  1
  Pb  Pb210  1  -0.00261222  0.12255737  0.25283074  1
  Pb  Pb211  1  0.00071290  0.45278719  0.24600217  1
  Pb  Pb212  1  -0.00032822  0.78561704  0.25033953  1
  Pb  Pb213  1  0.49815982  0.11586518  0.24489372  1
  Pb  Pb214  1  0.49988420  0.45351653  0.24652711  1
  Pb  Pb215  1  0.49532447  0.78767617  0.25552690  1
  C  C216  1  0.00584724  0.04590960  0.62752495  1
  C  C217  1  -0.00058838  0.37961830  0.63388843  1
  C  C218  1  0.00552447  0.71403972  0.63330566  1
  C  C219  1  0.50717041  0.04499871  0.62930488  1
  C  C220  1  0.49811785  0.38024828  0.63431348  1
  C  C221  1  0.50260505  0.71007426  0.63180529  1
  C  C222  1  0.00235264  0.28693939  0.13217989  1
  C  C223  1  -0.00518816  0.62172713  0.13158250  1
  C  C224  1  -0.00138994  0.95448592  0.13224949  1
  C  C225  1  0.49847008  0.28730671  0.13206558  1
  C  C226  1  0.49786419  0.62054412  0.13429462  1
  C  C227  1  0.49733904  0.95270431  0.13378634  1
  C  C228  1  0.00023201  0.04784559  0.87019911  1
  C  C229  1  -0.00302928  0.37769531  0.86895635  1
  C  C230  1  0.00240668  0.71144395  0.86634624  1
  C  C231  1  0.50316666  0.04151820  0.87001843  1
  C  C232  1  0.49653406  0.37788545  0.87099723  1
  C  C233  1  0.50252473  0.71379170  0.86962962  1
  C  C234  1  -0.00109026  0.28796614  0.36977578  1
  C  C235  1  0.00033831  0.62063615  0.36497745  1
  C  C236  1  0.00295551  0.95563305  0.36897078  1
  C  C237  1  0.50559262  0.28893815  0.36716088  1
  C  C238  1  0.49575408  0.62020940  0.36814758  1
  C  C239  1  0.50445340  0.95364417  0.37052432  1
  C  C240  1  0.24674642  0.21295027  0.63351768  1
  C  C241  1  0.25035832  0.54566827  0.63342447  1
  C  C242  1  0.24805688  0.87939136  0.62948797  1
  C  C243  1  0.74881463  0.20987943  0.63439553  1
  C  C244  1  0.74925657  0.54504823  0.63394754  1
  C  C245  1  0.74829144  0.88012519  0.63008256  1
  C  C246  1  0.25117992  0.12037964  0.12854542  1
  C  C247  1  0.25416953  0.45460168  0.13155246  1
  C  C248  1  0.24257653  0.78818832  0.13194691  1
  C  C249  1  0.74613119  0.12373421  0.12963652  1
  C  C250  1  0.75193389  0.45332237  0.13315066  1
  C  C251  1  0.74682322  0.78686203  0.13095489  1
  C  C252  1  0.24411062  0.21289704  0.86752958  1
  C  C253  1  0.25236796  0.54518897  0.87007185  1
  C  C254  1  0.25304648  0.87914069  0.86643019  1
  C  C255  1  0.75092759  0.21394979  0.87071613  1
  C  C256  1  0.75148167  0.54606308  0.86642906  1
  C  C257  1  0.74728490  0.87948551  0.86868778  1
  C  C258  1  0.24601046  0.12121626  0.36940761  1
  C  C259  1  0.24664568  0.45425819  0.36652643  1
  C  C260  1  0.24628733  0.78759529  0.36656642  1
  C  C261  1  0.74551764  0.11838745  0.37113883  1
  C  C262  1  0.74834486  0.45466881  0.36557586  1
  C  C263  1  0.74920106  0.78950398  0.36640295  1
  C  C264  1  0.98307639  0.07329595  0.53105239  1
  C  C265  1  0.96043659  0.59167063  0.03860786  1
  C  C266  1  0.18373364  0.09238434  0.45495222  1
  C  C267  1  0.68516377  0.76317942  0.04376021  1
  C  C268  1  0.70968061  0.90900898  0.53684190  1
  C  C269  1  0.04977330  0.25928489  0.04198991  1
  C  C270  1  0.44397003  0.26189996  0.45287201  1
  C  C271  1  0.76568614  0.75987188  0.03316841  1
  C  C272  1  0.72846277  0.57232627  0.96359282  1
  C  C273  1  0.47152351  0.40786176  0.53778909  1
  C  C274  1  0.03657067  0.92612807  0.03898922  1
  C  C275  1  0.79137054  0.90921612  0.53757433  1
  C  C276  1  0.55513930  0.74130341  0.54406127  1
  C  C277  1  0.80754727  0.09434299  0.04340986  1
  C  C278  1  0.47147645  0.58722743  0.46150765  1
  C  C279  1  0.70851679  0.42819306  0.45994437  1
  C  C280  1  0.77116816  0.24015169  0.96783522  1
  C  C281  1  0.04934406  0.92763369  0.45945776  1
  C  C282  1  0.47625764  0.25350605  0.03852916  1
  C  C283  1  0.52659165  0.40984980  0.96573148  1
  C  C284  1  0.05740277  0.73808912  0.54293986  1
  C  C285  1  0.77391986  0.08586442  0.46584787  1
  C  C286  1  0.55262568  0.40528124  0.54494874  1
  C  C287  1  0.20884524  0.23921538  0.54040752  1
  C  C288  1  0.26920988  0.75961618  0.46163467  1
  C  C289  1  0.22784737  0.57467944  0.53858553  1
  C  C290  1  0.72455723  0.42375534  0.03929410  1
  C  C291  1  0.71484180  0.57098369  0.54030153  1
  C  C292  1  0.45702585  0.92590919  0.46229585  1
  C  C293  1  0.06889182  0.25986095  0.45238559  1
  C  C294  1  0.80992660  0.57094460  0.95487938  1
  C  C295  1  0.53879234  0.92495431  0.46485321  1
  C  C296  1  0.94745020  0.59665761  0.45560468  1
  C  C297  1  0.03289917  0.40668363  0.96236344  1
  C  C298  1  0.20062126  0.24048319  0.95843187  1
  C  C299  1  0.97638383  0.73992712  0.53661849  1
  C  C300  1  0.52252561  0.59276869  0.03946398  1
  C  C301  1  0.69058113  0.23830670  0.95872821  1
  C  C302  1  0.28033988  0.91074986  0.53479584  1
  C  C303  1  0.79013334  0.42716656  0.45834596  1
  C  C304  1  0.48074560  0.74268127  0.96567822  1
  C  C305  1  0.30297655  0.42596184  0.04198390  1
  C  C306  1  0.97816277  0.07738602  0.96555532  1
  C  C307  1  0.02914786  0.59694239  0.46194515  1
  C  C308  1  0.57332748  0.06859095  0.54388953  1
  C  C309  1  0.96707742  0.40773189  0.54050077  1
  C  C310  1  0.06398354  0.07112273  0.53832011  1
  C  C311  1  0.70880427  0.24053040  0.54282171  1
  N  N312  1  0.52272930  0.25869484  0.46219021  1
  N  N313  1  0.44785626  0.40726699  0.95969510  1
  N  N314  1  0.54884309  0.58979803  0.45754869  1
  N  N315  1  0.95683550  0.92555483  0.04158124  1
  N  N316  1  0.72079552  0.90839967  0.96132838  1
  N  N317  1  0.49560971  0.07292502  0.53323939  1
  N  N318  1  0.45760610  0.08154528  0.95569514  1
  N  N319  1  0.97177125  0.92663659  0.46484569  1
  N  N320  1  0.04653599  0.40696210  0.54170562  1
  N  N321  1  0.54356563  0.92925886  0.04125274  1
  N  N322  1  0.28657814  0.57533177  0.96374958  1
  N  N323  1  0.20144651  0.90833332  0.54014500  1
  N  N324  1  0.95329392  0.40594467  0.95934025  1
  N  N325  1  0.03852665  0.59098281  0.03926020  1
  N  N326  1  0.78842790  0.24031939  0.54373959  1
  N  N327  1  0.05515517  0.07294566  0.96033656  1
  N  N328  1  0.04603467  0.74064713  0.95776336  1
  N  N329  1  0.28661301  0.76068617  0.03976471  1
  N  N330  1  0.55951254  0.74061099  0.95634680  1
  N  N331  1  0.27993485  0.24165262  0.96210228  1
  N  N332  1  0.21124611  0.42598931  0.45757178  1
  N  N333  1  0.80377999  0.42516136  0.04283238  1
  N  N334  1  0.68915250  0.76455940  0.45353623  1
  N  N335  1  0.96934093  0.74132987  0.96009663  1
  N  N336  1  0.26850870  0.08736910  0.03479588  1
  N  N337  1  0.79417167  0.57189874  0.54117223  1
  N  N338  1  0.30665853  0.57290391  0.54443908  1
  N  N339  1  0.99163862  0.25609273  0.46472260  1
  N  N340  1  0.69560403  0.08845339  0.45924628  1
  N  N341  1  0.28828219  0.24002539  0.53968331  1
  N  N342  1  0.76645850  0.76092449  0.46064078  1
  N  N343  1  0.20871124  0.57445145  0.95850556  1
  N  N344  1  0.79899208  0.90685116  0.95854550  1
  N  N345  1  0.28444545  0.90871091  0.96069274  1
  N  N346  1  0.72939595  0.09290530  0.03508017  1
  N  N347  1  0.28963552  0.42736866  0.45911708  1
  N  N348  1  0.44364092  0.59388354  0.04440921  1
  N  N349  1  0.47581581  0.74314997  0.53925687  1
  N  N350  1  0.19029496  0.76147960  0.45592040  1
  N  N351  1  0.22547943  0.42380941  0.03574700  1
  N  N352  1  0.46693775  0.92878519  0.03760069  1
  N  N353  1  0.19083673  0.09964650  0.04238790  1
  N  N354  1  0.55321855  0.25623224  0.04437947  1
  N  N355  1  0.20838938  0.75969886  0.04085730  1
  N  N356  1  0.54001036  0.08402069  0.95660563  1
  N  N357  1  0.97242512  0.25671363  0.03655387  1
  N  N358  1  0.20787591  0.90792981  0.95764734  1
  N  N359  1  0.26184999  0.08961307  0.46374115  1
  N  N360  1  0.07662834  0.05400900  0.59979712  1
  N  N361  1  0.06468957  0.38954103  0.60045503  1
  N  N362  1  0.07472920  0.72282712  0.60125723  1
  N  N363  1  0.58092392  0.05250483  0.60393589  1
  N  N364  1  0.56825136  0.38891005  0.60337918  1
  N  N365  1  0.57186674  0.72238851  0.60196714  1
  N  N366  1  0.44029418  0.27223699  0.09134798  1
  N  N367  1  0.43008971  0.61090922  0.10352600  1
  N  N368  1  0.43708687  0.94293750  0.09484898  1
  N  N369  1  0.94270779  0.27435338  0.09399075  1
  N  N370  1  0.93167644  0.60992729  0.09443685  1
  N  N371  1  0.93375147  0.94397815  0.09869512  1
  N  N372  1  0.43773264  0.05262343  0.90273390  1
  N  N373  1  0.42891487  0.38734538  0.90130962  1
  N  N374  1  0.44480001  0.72624592  0.91194126  1
  N  N375  1  0.94219423  0.06199493  0.91149628  1
  N  N376  1  0.93138629  0.38661019  0.90227674  1
  N  N377  1  0.94112797  0.72320416  0.90360658  1
  N  N378  1  0.07341155  0.27836125  0.39318721  1
  N  N379  1  0.06077264  0.61166068  0.40506225  1
  N  N380  1  0.07051236  0.94474223  0.40111562  1
  N  N381  1  0.56083346  0.27912364  0.41013354  1
  N  N382  1  0.56388838  0.61065545  0.39783901  1
  N  N383  1  0.56713514  0.94164624  0.40938426  1
  N  N384  1  0.31020353  0.22379191  0.59818890  1
  N  N385  1  0.31879285  0.55485791  0.60349405  1
  N  N386  1  0.30943568  0.89312217  0.59030202  1
  N  N387  1  0.81285544  0.21787362  0.59908934  1
  N  N388  1  0.81388712  0.55572552  0.59985919  1
  N  N389  1  0.81404624  0.89119629  0.59663935  1
  N  N390  1  0.18039863  0.11025237  0.10274805  1
  N  N391  1  0.19507213  0.44224329  0.09290567  1
  N  N392  1  0.17982106  0.77733197  0.09609717  1
  N  N393  1  0.69018909  0.11312600  0.08743103  1
  N  N394  1  0.69149343  0.44074555  0.09423018  1
  N  N395  1  0.67436300  0.77923376  0.10331148  1
  N  N396  1  0.17730742  0.22312606  0.90050405  1
  N  N397  1  0.18621027  0.55510650  0.90227045  1
  N  N398  1  0.18722744  0.88971359  0.89915446  1
  N  N399  1  0.67944186  0.22208094  0.89733367  1
  N  N400  1  0.69333304  0.55691407  0.90818294  1
  N  N401  1  0.68774838  0.89095025  0.90750824  1
  N  N402  1  0.30111151  0.10999984  0.41181275  1
  N  N403  1  0.31080183  0.44401159  0.40184583  1
  N  N404  1  0.30518935  0.77553665  0.40716352  1
  N  N405  1  0.80527319  0.10463478  0.41158497  1
  N  N406  1  0.81382705  0.44299571  0.40120442  1
  N  N407  1  0.80450957  0.77885247  0.40890931  1
  N  N408  1  0.43344343  0.27857983  0.39349006  1
  N  N409  1  0.43642653  0.60579473  0.40821217  1
  N  N410  1  0.43716640  0.94352865  0.40241042  1
  N  N411  1  0.94731827  0.27590118  0.41459658  1
  N  N412  1  0.93112907  0.61117094  0.39524999  1
  N  N413  1  0.94281598  0.94483698  0.40720760  1
  N  N414  1  0.06910372  0.05443772  0.89968072  1
  N  N415  1  0.06029876  0.38991699  0.90605181  1
  N  N416  1  0.06767545  0.72227309  0.89960718  1
  N  N417  1  0.56557752  0.05553726  0.90503425  1
  N  N418  1  0.55701106  0.39182986  0.91070588  1
  N  N419  1  0.57225480  0.72216965  0.89749514  1
  N  N420  1  0.07049084  0.27744268  0.10003796  1
  N  N421  1  0.05956346  0.60998997  0.09854344  1
  N  N422  1  0.06267258  0.94320629  0.09559268  1
  N  N423  1  0.56747528  0.27735250  0.10349173  1
  N  N424  1  0.55754955  0.60890004  0.09424135  1
  N  N425  1  0.56348221  0.94361509  0.10096730  1
  N  N426  1  0.45429701  0.05651702  0.58542698  1
  N  N427  1  0.43862962  0.39177900  0.59467406  1
  N  N428  1  0.44343101  0.72083994  0.59239231  1
  N  N429  1  0.94817919  0.05816644  0.58465166  1
  N  N430  1  0.93686301  0.39113670  0.59658098  1
  N  N431  1  0.94497003  0.72460451  0.59428802  1
  N  N432  1  0.17365444  0.11058255  0.39607158  1
  N  N433  1  0.18358987  0.44330275  0.40205611  1
  N  N434  1  0.17788038  0.77865832  0.39674077  1
  N  N435  1  0.67741093  0.10912281  0.40091287  1
  N  N436  1  0.68381884  0.44527007  0.40090669  1
  N  N437  1  0.67905458  0.78047375  0.39441817  1
  N  N438  1  0.30531551  0.22465359  0.90497907  1
  N  N439  1  0.31327062  0.55806721  0.90796816  1
  N  N440  1  0.31369521  0.89084069  0.90438558  1
  N  N441  1  0.80771664  0.22540457  0.91487591  1
  N  N442  1  0.82238925  0.55483933  0.89423778  1
  N  N443  1  0.81447666  0.88996318  0.90020488  1
  N  N444  1  0.30621906  0.11084542  0.08526965  1
  N  N445  1  0.32259066  0.44408428  0.10035952  1
  N  N446  1  0.30721320  0.77761183  0.09722222  1
  N  N447  1  0.81796888  0.11246334  0.10216872  1
  N  N448  1  0.81904990  0.44352303  0.10184902  1
  N  N449  1  0.80321420  0.77509277  0.08885171  1
  N  N450  1  0.18229058  0.22276546  0.59781393  1
  N  N451  1  0.19160669  0.55851365  0.59290884  1
  N  N452  1  0.18110706  0.88881674  0.59834009  1
  N  N453  1  0.68391120  0.22332557  0.59955772  1
  N  N454  1  0.68595433  0.55510801  0.59701161  1
  N  N455  1  0.68391736  0.89167875  0.59280647  1
  Cl  Cl456  1  0.27168426  0.05848708  0.60232350  1
  Cl  Cl457  1  0.24925500  0.38916709  0.61296225  1
  Cl  Cl458  1  0.26142658  0.72555304  0.61550346  1
  Cl  Cl459  1  0.76438521  0.05589489  0.62022029  1
  Cl  Cl460  1  0.75231196  0.38416534  0.62003748  1
  Cl  Cl461  1  0.75864978  0.72749352  0.60701387  1
  Cl  Cl462  1  0.25445695  0.27760740  0.11180293  1
  Cl  Cl463  1  0.24316317  0.61241649  0.11889051  1
  Cl  Cl464  1  0.25037636  0.94986757  0.12045471  1
  Cl  Cl465  1  0.75485057  0.27746995  0.12675039  1
  Cl  Cl466  1  0.74444778  0.61159700  0.11208253  1
  Cl  Cl467  1  0.74775086  0.94727330  0.11098885  1
  Cl  Cl468  1  0.25585344  0.06350464  0.88542525  1
  Cl  Cl469  1  0.24622011  0.38775297  0.87800893  1
  Cl  Cl470  1  0.25348030  0.72208917  0.88644965  1
  Cl  Cl471  1  0.74942736  0.06035944  0.89426794  1
  Cl  Cl472  1  0.74367565  0.38692694  0.88765450  1
  Cl  Cl473  1  0.75737277  0.72322957  0.87829150  1
  Cl  Cl474  1  0.25254856  0.28163387  0.37541179  1
  Cl  Cl475  1  0.24768582  0.61032500  0.38719434  1
  Cl  Cl476  1  0.25162131  0.94695347  0.38678351  1
  Cl  Cl477  1  0.75661081  0.26925021  0.40243400  1
  Cl  Cl478  1  0.74683774  0.61464086  0.37840445  1
  Cl  Cl479  1  0.75489524  0.94810088  0.38315512  1
  Cl  Cl480  1  -0.00519716  0.22440956  0.60646765  1
  Cl  Cl481  1  0.00335417  0.55624995  0.60935920  1
  Cl  Cl482  1  -0.00078285  0.88650988  0.62382246  1
  Cl  Cl483  1  0.50037148  0.22472944  0.60575245  1
  Cl  Cl484  1  0.50277870  0.55351811  0.62533798  1
  Cl  Cl485  1  0.49567217  0.88759295  0.61459707  1
  Cl  Cl486  1  -0.00005744  0.11632013  0.12053176  1
  Cl  Cl487  1  0.00624630  0.44272385  0.11013397  1
  Cl  Cl488  1  -0.00501701  0.78055975  0.11851099  1
  Cl  Cl489  1  0.49777967  0.10038924  0.09907316  1
  Cl  Cl490  1  0.50611382  0.44138359  0.11147635  1
  Cl  Cl491  1  0.49005271  0.77864064  0.12069163  1
  Cl  Cl492  1  -0.00811622  0.21897082  0.87887076  1
  Cl  Cl493  1  0.00615397  0.54837212  0.87571390  1
  Cl  Cl494  1  -0.00115611  0.89210202  0.89018683  1
  Cl  Cl495  1  0.49015134  0.22282876  0.87614110  1
  Cl  Cl496  1  0.50473536  0.55298657  0.89238078  1
  Cl  Cl497  1  0.50303706  0.88792520  0.88231294  1
  Cl  Cl498  1  -0.01069848  0.11653102  0.38578105  1
  Cl  Cl499  1  0.00002962  0.44241310  0.37906298  1
  Cl  Cl500  1  -0.01276331  0.77908551  0.38595761  1
  Cl  Cl501  1  0.48649270  0.10562461  0.39554697  1
  Cl  Cl502  1  0.49506390  0.44729403  0.37948397  1
  Cl  Cl503  1  0.48986712  0.77361515  0.39293178  1
  Cl  Cl504  1  0.35717994  0.14644421  0.74979450  1
  Cl  Cl505  1  0.36097297  0.48191906  0.74997235  1
  Cl  Cl506  1  0.35587821  0.81462779  0.74773539  1
  Cl  Cl507  1  0.85573493  0.15076167  0.75128134  1
  Cl  Cl508  1  0.86051592  0.47742139  0.75279568  1
  Cl  Cl509  1  0.86157386  0.81696009  0.75354044  1
  Cl  Cl510  1  0.13845487  0.18646920  0.24922835  1
  Cl  Cl511  1  0.13823046  0.51926212  0.24975043  1
  Cl  Cl512  1  0.13586983  0.85343900  0.25526867  1
  Cl  Cl513  1  0.63287289  0.18735046  0.25941028  1
  Cl  Cl514  1  0.63979189  0.51848788  0.24979265  1
  Cl  Cl515  1  0.63295033  0.85543969  0.24937255  1
  Cl  Cl516  1  0.13890890  0.14530944  0.74662999  1
  Cl  Cl517  1  0.14075283  0.48046803  0.74950145  1
  Cl  Cl518  1  0.13680006  0.81126626  0.74964636  1
  Cl  Cl519  1  0.63482554  0.14365651  0.75679902  1
  Cl  Cl520  1  0.64094678  0.47970426  0.75038177  1
  Cl  Cl521  1  0.64127226  0.81348940  0.74869240  1
  Cl  Cl522  1  0.35908661  0.18406827  0.25025247  1
  Cl  Cl523  1  0.36014335  0.51897895  0.24580937  1
  Cl  Cl524  1  0.35654045  0.85246748  0.25054362  1
  Cl  Cl525  1  0.85455225  0.18195826  0.25064342  1
  Cl  Cl526  1  0.86109893  0.51962706  0.24876975  1
  Cl  Cl527  1  0.85209269  0.85408058  0.24613639  1
  Cl  Cl528  1  0.11087084  0.31303605  0.74640970  1
  Cl  Cl529  1  0.10886533  0.64600532  0.74555921  1
  Cl  Cl530  1  0.11505421  0.98087996  0.75081387  1
  Cl  Cl531  1  0.60920901  0.31124523  0.74736333  1
  Cl  Cl532  1  0.61638491  0.64667505  0.75383070  1
  Cl  Cl533  1  0.61268476  0.97882639  0.74610437  1
  Cl  Cl534  1  0.39128844  0.02099902  0.25356740  1
  Cl  Cl535  1  0.39085084  0.35120990  0.25071807  1
  Cl  Cl536  1  0.38960607  0.68398079  0.24715438  1
  Cl  Cl537  1  0.89069285  0.01835784  0.24582275  1
  Cl  Cl538  1  0.88883921  0.35181250  0.25252252  1
  Cl  Cl539  1  0.88567622  0.68621529  0.25259646  1
  Cl  Cl540  1  0.38907249  0.31438109  0.74877801  1
  Cl  Cl541  1  0.39538892  0.64955141  0.75220098  1
  Cl  Cl542  1  0.39181334  0.98171663  0.75345176  1
  Cl  Cl543  1  0.89155709  0.31356328  0.74672351  1
  Cl  Cl544  1  0.88677691  0.64330933  0.74901718  1
  Cl  Cl545  1  0.89328124  0.98357944  0.75395931  1
  Cl  Cl546  1  0.11004591  0.02207424  0.25029412  1
  Cl  Cl547  1  0.11258669  0.35211777  0.25138632  1
  Cl  Cl548  1  0.10783264  0.68778886  0.24946031  1
  Cl  Cl549  1  0.60624255  0.02322708  0.25240582  1
  Cl  Cl550  1  0.61229162  0.35257950  0.24778156  1
  Cl  Cl551  1  0.61181574  0.68939348  0.25499509  1
