# generated using pymatgen
data_H8PbC4(N3Cl2)2
_symmetry_space_group_name_H-M   'P 1'
_cell_length_a   16.62310782
_cell_length_b   22.50085103
_cell_length_c   21.58786107
_cell_angle_alpha   89.99957721
_cell_angle_beta   90.00173956
_cell_angle_gamma   89.99990494
_symmetry_Int_Tables_number   1
_chemical_formula_structural   H8PbC4(N3Cl2)2
_chemical_formula_sum   'H192 Pb24 C96 N144 Cl96'
_cell_volume   8074.59559460
_cell_formula_units_Z   24
loop_
 _symmetry_equiv_pos_site_id
 _symmetry_equiv_pos_as_xyz
  1  'x, y, z'
loop_
 _atom_site_type_symbol
 _atom_site_label
 _atom_site_symmetry_multiplicity
 _atom_site_fract_x
 _atom_site_fract_y
 _atom_site_fract_z
 _atom_site_occupancy
  H  H0  1  -0.00352726  0.03306281  0.68092187  1
  H  H1  1  0.00234480  0.36592768  0.67896953  1
  H  H2  1  0.00595760  0.69833430  0.67805283  1
  H  H3  1  0.50581056  0.03239228  0.68185103  1
  H  H4  1  0.49768752  0.36555845  0.68034573  1
  H  H5  1  0.49706554  0.69786116  0.68249993  1
  H  H6  1  -0.00152139  0.30076834  0.18011991  1
  H  H7  1  -0.00585787  0.63294172  0.18411681  1
  H  H8  1  -0.00206547  0.97053894  0.18162068  1
  H  H9  1  0.49968195  0.30122553  0.18187777  1
  H  H10  1  0.50714220  0.63516953  0.17792578  1
  H  H11  1  0.50612286  0.96853932  0.18202025  1
  H  H12  1  0.00215742  0.03324974  0.81791266  1
  H  H13  1  0.00704619  0.36498503  0.81691652  1
  H  H14  1  0.00022521  0.69996208  0.81869000  1
  H  H15  1  0.49843159  0.03393878  0.82313144  1
  H  H16  1  0.49882475  0.36479355  0.81973705  1
  H  H17  1  0.50131875  0.69947083  0.81972780  1
  H  H18  1  -0.00309327  0.30216930  0.32091405  1
  H  H19  1  0.00059561  0.63514967  0.32109192  1
  H  H20  1  -0.00440378  0.96785591  0.31814409  1
  H  H21  1  0.50349916  0.30117622  0.31763587  1
  H  H22  1  0.49867748  0.63314460  0.32214535  1
  H  H23  1  0.50764959  0.96717286  0.32072797  1
  H  H24  1  0.25500650  0.19858862  0.67799506  1
  H  H25  1  0.24116616  0.53255429  0.67960340  1
  H  H26  1  0.24513766  0.86648580  0.67868346  1
  H  H27  1  0.74400867  0.19879017  0.67792291  1
  H  H28  1  0.75633767  0.53197568  0.67763138  1
  H  H29  1  0.75536852  0.86620977  0.68043472  1
  H  H30  1  0.25723313  0.13294996  0.17827604  1
  H  H31  1  0.24375008  0.46733350  0.17853011  1
  H  H32  1  0.24341339  0.80124283  0.18210231  1
  H  H33  1  0.74430546  0.13433629  0.17994506  1
  H  H34  1  0.75236452  0.46689674  0.18349883  1
  H  H35  1  0.75759039  0.80035911  0.18259102  1
  H  H36  1  0.25437714  0.19838613  0.82255967  1
  H  H37  1  0.24309317  0.53336173  0.81976028  1
  H  H38  1  0.24341014  0.86572602  0.81750647  1
  H  H39  1  0.75013568  0.19774915  0.81891018  1
  H  H40  1  0.75366672  0.53098135  0.81735639  1
  H  H41  1  0.75186599  0.86553773  0.81771512  1
  H  H42  1  0.25403276  0.13533040  0.31946166  1
  H  H43  1  0.25210023  0.46770905  0.31807688  1
  H  H44  1  0.25449519  0.79990254  0.31908843  1
  H  H45  1  0.74686812  0.13360161  0.31957352  1
  H  H46  1  0.75061563  0.46702063  0.32350534  1
  H  H47  1  0.74376929  0.80122364  0.32184753  1
  H  H48  1  0.12178154  0.05217403  0.61240638  1
  H  H49  1  0.12511407  0.38843483  0.60670729  1
  H  H50  1  0.12083234  0.72284485  0.59979304  1
  H  H51  1  0.61726240  0.05604424  0.60089341  1
  H  H52  1  0.62868213  0.38691917  0.61450594  1
  H  H53  1  0.62266979  0.72196642  0.61226694  1
  H  H54  1  0.37515501  0.27813998  0.10985727  1
  H  H55  1  0.36929216  0.61558062  0.12254443  1
  H  H56  1  0.37195392  0.95056113  0.11762008  1
  H  H57  1  0.87571272  0.27737339  0.10903277  1
  H  H58  1  0.87361700  0.61189305  0.11105764  1
  H  H59  1  0.87507841  0.94524164  0.10870762  1
  H  H60  1  0.37560669  0.05432891  0.89339133  1
  H  H61  1  0.36998843  0.38632014  0.88791377  1
  H  H62  1  0.37538608  0.72059152  0.89030751  1
  H  H63  1  0.87556521  0.05366281  0.88585573  1
  H  H64  1  0.87216365  0.38504572  0.87958700  1
  H  H65  1  0.87562726  0.72305336  0.88872949  1
  H  H66  1  0.12035370  0.27812033  0.39274805  1
  H  H67  1  0.12408199  0.61328339  0.39269275  1
  H  H68  1  0.12927591  0.94814232  0.37810354  1
  H  H69  1  0.62001382  0.27941284  0.39532827  1
  H  H70  1  0.62592479  0.61408362  0.39051474  1
  H  H71  1  0.62028395  0.94276400  0.40152879  1
  H  H72  1  0.37311891  0.22368771  0.60310379  1
  H  H73  1  0.37427381  0.55262264  0.61675083  1
  H  H74  1  0.37540669  0.88545115  0.61498042  1
  H  H75  1  0.88018817  0.21533545  0.61789988  1
  H  H76  1  0.87093522  0.55558211  0.59779735  1
  H  H77  1  0.87144769  0.89002595  0.60148868  1
  H  H78  1  0.12479783  0.11538637  0.11673820  1
  H  H79  1  0.13434830  0.44078589  0.09646333  1
  H  H80  1  0.12903619  0.77731211  0.10277054  1
  H  H81  1  0.62325325  0.11180782  0.10640553  1
  H  H82  1  0.62740348  0.44724307  0.11411439  1
  H  H83  1  0.62347068  0.78062799  0.11923660  1
  H  H84  1  0.12369399  0.21881627  0.88804040  1
  H  H85  1  0.13310220  0.55741128  0.90097027  1
  H  H86  1  0.12962372  0.89020847  0.89665994  1
  H  H87  1  0.62831600  0.21885821  0.89321342  1
  H  H88  1  0.62567709  0.55404931  0.88343225  1
  H  H89  1  0.62451625  0.88625563  0.88516187  1
  H  H90  1  0.37839295  0.11196568  0.39153140  1
  H  H91  1  0.36941622  0.44503469  0.39489743  1
  H  H92  1  0.36800242  0.77857005  0.39718320  1
  H  H93  1  0.87845146  0.11436759  0.38509433  1
  H  H94  1  0.87395045  0.44734463  0.39320862  1
  H  H95  1  0.87979989  0.78128307  0.38007468  1
  H  H96  1  0.37133305  0.27939620  0.38295443  1
  H  H97  1  0.37739543  0.60882068  0.39484697  1
  H  H98  1  0.37307727  0.94681466  0.38296229  1
  H  H99  1  0.87154584  0.28119426  0.39072516  1
  H  H100  1  0.87507404  0.61124238  0.39080079  1
  H  H101  1  0.88083845  0.94577559  0.39584545  1
  H  H102  1  0.12502557  0.05415170  0.88812719  1
  H  H103  1  0.12010118  0.38805626  0.89688924  1
  H  H104  1  0.12440975  0.71865429  0.89085724  1
  H  H105  1  0.62457745  0.05346099  0.89040914  1
  H  H106  1  0.61800083  0.38845128  0.89560795  1
  H  H107  1  0.62424064  0.72245815  0.89130484  1
  H  H108  1  0.12466527  0.27855401  0.10999995  1
  H  H109  1  0.12307580  0.61323532  0.11863086  1
  H  H110  1  0.12520139  0.94851640  0.11438972  1
  H  H111  1  0.62429995  0.27787515  0.11154731  1
  H  H112  1  0.61561104  0.60835396  0.09524129  1
  H  H113  1  0.62041244  0.94563117  0.10236247  1
  H  H114  1  0.36960829  0.05083449  0.62086615  1
  H  H115  1  0.38033768  0.38922213  0.60230073  1
  H  H116  1  0.37285489  0.72062986  0.61234534  1
  H  H117  1  0.87228653  0.05471444  0.60960888  1
  H  H118  1  0.87597070  0.38754650  0.60907497  1
  H  H119  1  0.87296441  0.71839442  0.61483445  1
  H  H120  1  0.12987029  0.11312777  0.39140147  1
  H  H121  1  0.12037476  0.44805932  0.38442316  1
  H  H122  1  0.12009137  0.78253899  0.37992697  1
  H  H123  1  0.63047527  0.10952808  0.39838570  1
  H  H124  1  0.62492913  0.44644350  0.39107613  1
  H  H125  1  0.63300409  0.77467137  0.40301627  1
  H  H126  1  0.37263571  0.21996334  0.89877772  1
  H  H127  1  0.38031049  0.55338277  0.87787669  1
  H  H128  1  0.37803739  0.88536167  0.88123618  1
  H  H129  1  0.87692490  0.21959259  0.88921617  1
  H  H130  1  0.87516606  0.55615197  0.89113112  1
  H  H131  1  0.87461020  0.88979436  0.89137892  1
  H  H132  1  0.37278146  0.11206470  0.10195818  1
  H  H133  1  0.38098390  0.44805979  0.12273532  1
  H  H134  1  0.37737660  0.78010774  0.11901782  1
  H  H135  1  0.87258455  0.11482068  0.11500359  1
  H  H136  1  0.87689127  0.44542137  0.11374503  1
  H  H137  1  0.87182384  0.77659848  0.10317103  1
  H  H138  1  0.12468525  0.21969903  0.61267785  1
  H  H139  1  0.12623348  0.55648719  0.60122612  1
  H  H140  1  0.12722790  0.88758164  0.60387157  1
  H  H141  1  0.63322325  0.22704860  0.59791169  1
  H  H142  1  0.62342469  0.55074068  0.61584365  1
  H  H143  1  0.62348227  0.88588650  0.61590907  1
  H  H144  1  0.07860626  0.08102269  0.50022262  1
  H  H145  1  0.42114484  0.74633261  0.50060541  1
  H  H146  1  0.55041841  0.08180203  0.49511193  1
  H  H147  1  0.70501291  0.76377046  0.50523261  1
  H  H148  1  0.85294468  0.25159702  0.51269116  1
  H  H149  1  0.58485262  0.57790289  0.49209132  1
  H  H150  1  0.42897203  0.59081045  0.49902192  1
  H  H151  1  0.16272693  0.24589777  0.99480152  1
  H  H152  1  0.44468497  0.41238684  0.49829496  1
  H  H153  1  0.40986219  0.41267083  0.99416259  1
  H  H154  1  0.55414686  0.92222261  -0.00551364  1
  H  H155  1  0.54361998  0.58470254  -0.00630730  1
  H  H156  1  0.40462730  0.91926600  0.48949826  1
  H  H157  1  0.57511239  0.24805814  0.00272979  1
  H  H158  1  0.08119740  0.08399270  0.99914056  1
  H  H159  1  0.81715083  0.56832732  0.99913384  1
  H  H160  1  0.85164286  0.74665938  0.48609642  1
  H  H161  1  0.20113757  0.58165115  1.00865345  1
  H  H162  1  0.30675331  0.75527198  0.50775745  1
  H  H163  1  0.83683218  0.08626999  0.00169466  1
  H  H164  1  0.80660003  0.75178433  -0.00412648  1
  H  H165  1  0.08457510  0.58900200  0.00450016  1
  H  H166  1  0.16451679  0.24984013  0.50643369  1
  H  H167  1  0.70459881  0.24393925  0.49480729  1
  H  H168  1  0.92787553  0.73297634  0.99692547  1
  H  H169  1  0.19605870  0.91757408  1.00369440  1
  H  H170  1  0.69591415  0.08228059  0.50077044  1
  H  H171  1  0.05487974  0.41449561  1.00331820  1
  H  H172  1  0.80508299  0.91621006  0.49875594  1
  H  H173  1  0.32817398  0.08278257  0.49530446  1
  H  H174  1  0.19433773  0.75054084  -0.00401222  1
  H  H175  1  0.57341624  0.73966240  0.50435881  1
  H  H176  1  0.67002378  0.41775230  0.00355095  1
  H  H177  1  0.08165505  0.92407757  0.00122290  1
  H  H178  1  0.93224232  0.93565705  0.00079126  1
  H  H179  1  0.55871247  0.25413567  0.50338111  1
  H  H180  1  0.92630150  0.59236111  -0.00227243  1
  H  H181  1  0.07090854  0.75825563  0.99086337  1
  H  H182  1  0.20507624  0.41341222  -0.00424535  1
  H  H183  1  0.30869520  0.41832280  0.50304352  1
  H  H184  1  0.81946715  0.90856129  0.99814315  1
  H  H185  1  0.83017904  0.24628895  0.99397245  1
  H  H186  1  0.83377593  0.41730491  0.00327567  1
  H  H187  1  0.10367408  0.91938035  0.49069058  1
  H  H188  1  0.66725100  0.91085621  0.99841117  1
  H  H189  1  0.94056719  0.92022035  0.50510087  1
  H  H190  1  0.35570333  0.58097727  0.98766174  1
  H  H191  1  0.66730698  0.58024448  0.99642586  1
  Pb  Pb192  1  0.25390925  0.04780566  0.74929353  1
  Pb  Pb193  1  0.24604195  0.38166822  0.75027419  1
  Pb  Pb194  1  0.24691296  0.71316254  0.74953375  1
  Pb  Pb195  1  0.74430278  0.04813609  0.74513370  1
  Pb  Pb196  1  0.75083562  0.37967421  0.75229978  1
  Pb  Pb197  1  0.75217705  0.71496112  0.74710471  1
  Pb  Pb198  1  0.24368736  0.28542421  0.24934446  1
  Pb  Pb199  1  0.24875298  0.62077386  0.25080876  1
  Pb  Pb200  1  0.25186062  0.95261904  0.24798396  1
  Pb  Pb201  1  0.75207380  0.28612478  0.25241168  1
  Pb  Pb202  1  0.74496690  0.61737635  0.24386238  1
  Pb  Pb203  1  0.74652750  0.95216346  0.25034043  1
  Pb  Pb204  1  0.00035294  0.21177416  0.75139240  1
  Pb  Pb205  1  -0.00248357  0.54614944  0.75113357  1
  Pb  Pb206  1  0.00078106  0.88441406  0.75055383  1
  Pb  Pb207  1  0.49984562  0.21724850  0.74812839  1
  Pb  Pb208  1  0.50162403  0.54754719  0.74778480  1
  Pb  Pb209  1  0.49895966  0.87827139  0.75030254  1
  Pb  Pb210  1  0.00011726  0.11905854  0.25091624  1
  Pb  Pb211  1  0.00016929  0.45526663  0.24554837  1
  Pb  Pb212  1  -0.00269330  0.78554302  0.23892768  1
  Pb  Pb213  1  0.50021281  0.12156307  0.25345202  1
  Pb  Pb214  1  0.49561485  0.45082918  0.25344461  1
  Pb  Pb215  1  0.49968552  0.78442557  0.25902056  1
  C  C216  1  -0.00271469  0.04686151  0.63291248  1
  C  C217  1  0.00099865  0.38070399  0.63137724  1
  C  C218  1  -0.00048373  0.71291017  0.63066842  1
  C  C219  1  0.49718171  0.04646070  0.63423017  1
  C  C220  1  0.50185627  0.38045230  0.63262966  1
  C  C221  1  0.49813407  0.71261440  0.63457731  1
  C  C222  1  -0.00010626  0.28601490  0.13254463  1
  C  C223  1  -0.00292434  0.61914748  0.13594273  1
  C  C224  1  -0.00133507  0.95479191  0.13400161  1
  C  C225  1  0.49961661  0.28630320  0.13417921  1
  C  C226  1  0.49759960  0.62047865  0.13061923  1
  C  C227  1  0.49945882  0.95468688  0.13417245  1
  C  C228  1  0.00137639  0.04721224  0.86592685  1
  C  C229  1  -0.00059249  0.37951311  0.86449987  1
  C  C230  1  0.00003175  0.71410019  0.86693673  1
  C  C231  1  0.49952757  0.04765227  0.87143833  1
  C  C232  1  0.49508323  0.37992588  0.86739502  1
  C  C233  1  0.50009781  0.71407510  0.86735849  1
  C  C234  1  -0.00357641  0.28729056  0.36845262  1
  C  C235  1  -0.00025250  0.61984967  0.36849726  1
  C  C236  1  0.00217192  0.95350828  0.36592894  1
  C  C237  1  0.49795355  0.28675117  0.36536994  1
  C  C238  1  0.50067352  0.61833257  0.37010644  1
  C  C239  1  0.50006978  0.95210934  0.36809427  1
  C  C240  1  0.25055694  0.21387317  0.63054272  1
  C  C241  1  0.24760531  0.54695947  0.63209070  1
  C  C242  1  0.24932564  0.88018888  0.63070738  1
  C  C243  1  0.75266976  0.21322118  0.63023516  1
  C  C244  1  0.75032405  0.54606948  0.63000212  1
  C  C245  1  0.75044128  0.88093198  0.63276647  1
  C  C246  1  0.25145594  0.11982428  0.13024346  1
  C  C247  1  0.25297022  0.45237025  0.13125768  1
  C  C248  1  0.25002066  0.78635446  0.13459059  1
  C  C249  1  0.74732740  0.11997932  0.13214706  1
  C  C250  1  0.75232055  0.45297466  0.13527578  1
  C  C251  1  0.75077982  0.78596430  0.13489061  1
  C  C252  1  0.24980677  0.21279550  0.87030781  1
  C  C253  1  0.25283884  0.54770449  0.86729518  1
  C  C254  1  0.25051270  0.88018578  0.86510178  1
  C  C255  1  0.75221238  0.21247066  0.86673904  1
  C  C256  1  0.75212693  0.54638012  0.86510284  1
  C  C257  1  0.75097249  0.88021699  0.86574755  1
  C  C258  1  0.25461670  0.12030344  0.36722117  1
  C  C259  1  0.24707773  0.45347464  0.36593748  1
  C  C260  1  0.24777004  0.78701253  0.36714152  1
  C  C261  1  0.75161892  0.11907015  0.36733651  1
  C  C262  1  0.74973330  0.45305864  0.37178357  1
  C  C263  1  0.75222522  0.78627711  0.36933815  1
  C  C264  1  0.70806303  0.42818144  0.46351366  1
  C  C265  1  0.51892208  0.07195746  0.53818384  1
  C  C266  1  0.71088050  0.42821170  0.04129777  1
  C  C267  1  0.77509415  0.76099598  0.03896285  1
  C  C268  1  0.95669190  0.26140373  0.46155353  1
  C  C269  1  0.19307790  0.76556009  0.45748891  1
  C  C270  1  0.95666500  0.07187021  0.53915187  1
  C  C271  1  0.28379895  0.23900949  0.96620974  1
  C  C272  1  0.78822088  0.42830740  0.46427792  1
  C  C273  1  0.52526935  0.26277738  0.46095684  1
  C  C274  1  0.43677067  0.59452927  0.04347375  1
  C  C275  1  0.04348190  0.59725505  0.04268290  1
  C  C276  1  0.53654828  0.25980481  0.04145183  1
  C  C277  1  0.03620734  0.40828265  0.53836920  1
  C  C278  1  0.22588233  0.76050433  0.03890035  1
  C  C279  1  0.03595145  0.59259317  0.46134450  1
  C  C280  1  0.96147006  0.59742979  0.03983322  1
  C  C281  1  0.79274870  0.09508107  0.03894143  1
  C  C282  1  0.45763100  0.73908966  0.54160390  1
  C  C283  1  0.96329370  0.25836454  0.03925871  1
  C  C284  1  0.70579433  0.90472409  0.95813075  1
  C  C285  1  0.52343921  0.93043821  0.03813346  1
  C  C286  1  0.19997821  0.09577895  0.04010509  1
  C  C287  1  0.21683746  0.90596173  0.53584778  1
  C  C288  1  0.22671510  0.90664575  0.96064603  1
  C  C289  1  0.71105502  0.09402384  0.03753715  1
  C  C290  1  0.97447721  0.92898724  0.46303233  1
  C  C291  1  0.04358342  0.92919936  0.04199335  1
  C  C292  1  0.54180679  0.07228243  0.96321930  1
  C  C293  1  0.70618278  0.57272521  0.95658821  1
  C  C294  1  0.03821116  0.07140213  0.53845537  1
  C  C295  1  0.28513112  0.24338471  0.53581774  1
  C  C296  1  0.05616444  0.92921904  0.45631581  1
  C  C297  1  0.27373885  0.76394137  0.46521154  1
  C  C298  1  0.27509585  0.42805382  0.46102545  1
  C  C299  1  0.79307923  0.42783380  0.04115048  1
  C  C300  1  0.03933289  0.07291820  0.96097898  1
  C  C301  1  0.02290837  0.40466777  0.96041735  1
  C  C302  1  0.02620509  0.74042380  0.53543575  1
  C  C303  1  0.53576679  0.74132285  0.96031428  1
  C  C304  1  0.22137107  0.57550441  0.53735453  1
  C  C305  1  0.23001951  0.57330936  0.96426588  1
  C  C306  1  0.29824851  0.90524881  0.53958776  1
  C  C307  1  0.46149006  0.07256508  0.96410484  1
  C  C308  1  0.28084097  0.09477599  0.03488173  1
  C  C309  1  0.95762216  0.07233681  0.95885383  1
  C  C310  1  0.31343200  0.42536210  0.04387428  1
  C  C311  1  0.70025112  0.57022601  0.53953981  1
  N  N312  1  0.45242733  0.40506179  0.95802990  1
  N  N313  1  0.44478834  0.93106644  0.04367820  1
  N  N314  1  0.69610765  0.76223275  0.04423129  1
  N  N315  1  0.69756051  0.90359820  0.54195795  1
  N  N316  1  0.51506812  0.59169162  0.03526052  1
  N  N317  1  0.78600285  0.57350973  0.95860253  1
  N  N318  1  0.72934863  0.75399292  0.46256455  1
  N  N319  1  0.30859594  0.57249237  0.95484747  1
  N  N320  1  0.95864915  0.59172100  0.46206450  1
  N  N321  1  0.44613317  0.26234572  0.45683727  1
  N  N322  1  0.79105000  0.23633293  0.95843352  1
  N  N323  1  0.53731887  0.74024063  0.54279516  1
  N  N324  1  0.29895483  0.57435601  0.54100945  1
  N  N325  1  0.55280822  0.40550252  0.54207210  1
  N  N326  1  0.03471424  0.25941191  0.46314407  1
  N  N327  1  0.45849013  0.74056481  0.96141551  1
  N  N328  1  0.20501432  0.23884360  0.96100437  1
  N  N329  1  0.46523027  0.58540966  0.46060966  1
  N  N330  1  0.95896669  0.40815145  0.53785207  1
  N  N331  1  0.20626117  0.24144072  0.54009014  1
  N  N332  1  0.77546096  0.90519222  0.53860389  1
  N  N333  1  0.52783840  0.92682269  0.46467437  1
  N  N334  1  0.80371518  0.09630141  0.45826865  1
  N  N335  1  0.47507045  0.40656522  0.53908274  1
  N  N336  1  0.73030028  0.24768679  0.53805830  1
  N  N337  1  0.94881825  0.73858681  0.53900207  1
  N  N338  1  0.94402367  0.40427971  0.95447450  1
  N  N339  1  0.03892393  0.73208479  0.96079311  1
  N  N340  1  0.19600486  0.42852320  0.45752263  1
  N  N341  1  0.80782545  0.76438931  0.45705540  1
  N  N342  1  0.95998697  0.74283967  0.95772632  1
  N  N343  1  0.30534215  0.90545522  0.95513303  1
  N  N344  1  0.30464511  0.76049888  0.04453063  1
  N  N345  1  0.54361983  0.59937644  0.46294893  1
  N  N346  1  0.43998706  0.07094283  0.54465814  1
  N  N347  1  0.53099084  0.40594605  0.96198743  1
  N  N348  1  0.80783866  0.23459206  0.54220981  1
  N  N349  1  0.23482584  0.42356019  0.03607250  1
  N  N350  1  0.77750624  0.57309953  0.53287573  1
  N  N351  1  0.45729463  0.26017468  0.04038559  1
  N  N352  1  0.21226058  0.09346820  0.45994594  1
  N  N353  1  0.45011630  0.92805543  0.45656820  1
  N  N354  1  0.78537301  0.90754783  0.95877976  1
  N  N355  1  0.72585580  0.09485187  0.46145530  1
  N  N356  1  0.96354828  0.92748019  0.04073206  1
  N  N357  1  0.29063538  0.09281381  0.45862504  1
  N  N358  1  0.04138615  0.25876456  0.03874786  1
  N  N359  1  0.71267714  0.23676040  0.96107822  1
  N  N360  1  0.06229175  0.05567791  0.59792204  1
  N  N361  1  0.06513121  0.39157272  0.59460341  1
  N  N362  1  0.05960063  0.72507009  0.59046957  1
  N  N363  1  0.55530350  0.05731323  0.59268972  1
  N  N364  1  0.56900349  0.39083402  0.60080989  1
  N  N365  1  0.56215346  0.72008951  0.59920019  1
  N  N366  1  0.43607918  0.27640746  0.09856293  1
  N  N367  1  0.42573788  0.61115434  0.10285433  1
  N  N368  1  0.43141608  0.94644453  0.10323750  1
  N  N369  1  0.93594085  0.27490559  0.09600283  1
  N  N370  1  0.93372674  0.61083511  0.09826628  1
  N  N371  1  0.93619208  0.94734458  0.09697192  1
  N  N372  1  0.43502144  0.05771326  0.90815757  1
  N  N373  1  0.42975314  0.38915031  0.90083048  1
  N  N374  1  0.43590954  0.72354338  0.90209669  1
  N  N375  1  0.93499585  0.05701403  0.90142122  1
  N  N376  1  0.93116717  0.38869016  0.89458350  1
  N  N377  1  0.93574988  0.72084001  0.90252288  1
  N  N378  1  0.05922292  0.27600536  0.40385019  1
  N  N379  1  0.06416576  0.60964028  0.40503883  1
  N  N380  1  0.07152641  0.94427090  0.39586262  1
  N  N381  1  0.55869440  0.27739942  0.40517558  1
  N  N382  1  0.56594220  0.60784430  0.40338098  1
  N  N383  1  0.55862272  0.94162813  0.40901674  1
  N  N384  1  0.31296365  0.22638700  0.59164369  1
  N  N385  1  0.31517155  0.55604037  0.60144726  1
  N  N386  1  0.31703834  0.88947181  0.59813101  1
  N  N387  1  0.82200633  0.22180620  0.60165592  1
  N  N388  1  0.80890691  0.55725917  0.59037482  1
  N  N389  1  0.80953830  0.89161434  0.59339318  1
  N  N390  1  0.18253445  0.11101121  0.09866184  1
  N  N391  1  0.19677098  0.44155073  0.08954779  1
  N  N392  1  0.19043938  0.77592764  0.09403097  1
  N  N393  1  0.68389709  0.10905929  0.09387217  1
  N  N394  1  0.68716887  0.44378753  0.10010589  1
  N  N395  1  0.68297815  0.77750365  0.10394995  1
  N  N396  1  0.18335206  0.22257858  0.90205407  1
  N  N397  1  0.19470501  0.55804665  0.90993328  1
  N  N398  1  0.19103616  0.89129880  0.90563732  1
  N  N399  1  0.68935905  0.22145546  0.90387720  1
  N  N400  1  0.68514602  0.55773613  0.89840327  1
  N  N401  1  0.68416326  0.88955703  0.90005827  1
  N  N402  1  0.31781505  0.10962177  0.40269674  1
  N  N403  1  0.30807692  0.44295753  0.40511246  1
  N  N404  1  0.30734430  0.77744058  0.40752204  1
  N  N405  1  0.81921726  0.11124816  0.39941903  1
  N  N406  1  0.81459622  0.44327801  0.40839963  1
  N  N407  1  0.82147755  0.77515969  0.39711164  1
  N  N408  1  0.43103078  0.27714232  0.39719427  1
  N  N409  1  0.43821189  0.60913610  0.40685942  1
  N  N410  1  0.43226517  0.94284258  0.39823319  1
  N  N411  1  0.93123756  0.27798281  0.40403587  1
  N  N412  1  0.93573690  0.60879633  0.40289622  1
  N  N413  1  0.94200682  0.94398740  0.40615009  1
  N  N414  1  0.06516790  0.05694057  0.90186216  1
  N  N415  1  0.05836372  0.38988580  0.90547233  1
  N  N416  1  0.06378624  0.72567324  0.90167941  1
  N  N417  1  0.56579162  0.05714599  0.90651847  1
  N  N418  1  0.55657569  0.39071966  0.90532031  1
  N  N419  1  0.56437059  0.72514051  0.90384791  1
  N  N420  1  0.06395683  0.27621076  0.09790543  1
  N  N421  1  0.06409422  0.61072764  0.10262479  1
  N  N422  1  0.06539535  0.94378275  0.10009161  1
  N  N423  1  0.56422660  0.27606725  0.09855246  1
  N  N424  1  0.55354728  0.60995637  0.08865201  1
  N  N425  1  0.55900132  0.94440958  0.09352922  1
  N  N426  1  0.42843668  0.05500220  0.60478913  1
  N  N427  1  0.44205495  0.38972089  0.59336085  1
  N  N428  1  0.43296799  0.72367990  0.59889487  1
  N  N429  1  0.93215879  0.05709661  0.59621553  1
  N  N430  1  0.93665895  0.39088628  0.59703855  1
  N  N431  1  0.93207587  0.72136843  0.59983027  1
  N  N432  1  0.19066625  0.11015735  0.40280534  1
  N  N433  1  0.18043066  0.44440982  0.39826019  1
  N  N434  1  0.17783479  0.77923104  0.39834280  1
  N  N435  1  0.69225150  0.10802474  0.40642299  1
  N  N436  1  0.68359180  0.44294769  0.40693747  1
  N  N437  1  0.69489937  0.77812959  0.41114707  1
  N  N438  1  0.31199849  0.22333810  0.90987304  1
  N  N439  1  0.32228647  0.55644136  0.89535615  1
  N  N440  1  0.31856691  0.88903783  0.89578363  1
  N  N441  1  0.81639884  0.22233427  0.90132019  1
  N  N442  1  0.81421994  0.55372315  0.90267368  1
  N  N443  1  0.81337758  0.88903843  0.90253666  1
  N  N444  1  0.31209995  0.10936719  0.09009366  1
  N  N445  1  0.32454599  0.44267145  0.10309845  1
  N  N446  1  0.31788498  0.77651195  0.10399925  1
  N  N447  1  0.81389996  0.11098297  0.09909337  1
  N  N448  1  0.81737159  0.44319746  0.09989690  1
  N  N449  1  0.81040803  0.77524505  0.09437651  1
  N  N450  1  0.18427613  0.22304666  0.59841778  1
  N  N451  1  0.18757280  0.55896235  0.59185019  1
  N  N452  1  0.18753463  0.89054681  0.59179593  1
  N  N453  1  0.69523762  0.22435591  0.58922185  1
  N  N454  1  0.68129015  0.55463644  0.59876481  1
  N  N455  1  0.68261961  0.88935348  0.60111250  1
  Cl  Cl456  1  0.24705337  0.05308552  0.61489712  1
  Cl  Cl457  1  0.25726498  0.38647480  0.61601299  1
  Cl  Cl458  1  0.24736737  0.71922963  0.61695670  1
  Cl  Cl459  1  0.74078032  0.05723576  0.60686330  1
  Cl  Cl460  1  0.75204772  0.38201357  0.62110747  1
  Cl  Cl461  1  0.74517355  0.72762460  0.60669617  1
  Cl  Cl462  1  0.24871505  0.27981712  0.11327209  1
  Cl  Cl463  1  0.24525558  0.60982473  0.11472562  1
  Cl  Cl464  1  0.24517072  0.94961153  0.11411947  1
  Cl  Cl465  1  0.75233459  0.27648385  0.11991502  1
  Cl  Cl466  1  0.74354975  0.60734607  0.10420311  1
  Cl  Cl467  1  0.75106204  0.94141767  0.10611109  1
  Cl  Cl468  1  0.24927390  0.05223373  0.87712404  1
  Cl  Cl469  1  0.24395179  0.38883336  0.89410126  1
  Cl  Cl470  1  0.24554248  0.71801351  0.88591742  1
  Cl  Cl471  1  0.75191834  0.05101893  0.87726924  1
  Cl  Cl472  1  0.74262845  0.38682198  0.88752411  1
  Cl  Cl473  1  0.75325313  0.72050676  0.88163266  1
  Cl  Cl474  1  0.24396100  0.27758006  0.38473905  1
  Cl  Cl475  1  0.25363832  0.61459184  0.38162607  1
  Cl  Cl476  1  0.25389926  0.94869185  0.37915454  1
  Cl  Cl477  1  0.74465328  0.27451798  0.39407281  1
  Cl  Cl478  1  0.74773954  0.61699294  0.37602912  1
  Cl  Cl479  1  0.75253217  0.94286651  0.38872900  1
  Cl  Cl480  1  0.00152068  0.21782713  0.61921201  1
  Cl  Cl481  1  -0.00013811  0.55272526  0.61928620  1
  Cl  Cl482  1  -0.00575965  0.88708002  0.61652405  1
  Cl  Cl483  1  0.51005224  0.22376283  0.61199311  1
  Cl  Cl484  1  0.49889721  0.55597586  0.61140383  1
  Cl  Cl485  1  0.49980873  0.88313394  0.61857558  1
  Cl  Cl486  1  -0.00106099  0.11484432  0.11985833  1
  Cl  Cl487  1  0.01130551  0.44314179  0.10993623  1
  Cl  Cl488  1  0.00028536  0.77587664  0.09926601  1
  Cl  Cl489  1  0.49971246  0.11513521  0.12300490  1
  Cl  Cl490  1  0.50366879  0.45102314  0.12130588  1
  Cl  Cl491  1  0.50065815  0.78185038  0.12863424  1
  Cl  Cl492  1  -0.00098439  0.21889370  0.88420739  1
  Cl  Cl493  1  0.00306056  0.55893659  0.88818763  1
  Cl  Cl494  1  -0.00064195  0.89063177  0.89522497  1
  Cl  Cl495  1  0.50315061  0.21866122  0.88216432  1
  Cl  Cl496  1  0.50541756  0.55647021  0.88875090  1
  Cl  Cl497  1  0.50396392  0.88650055  0.88355473  1
  Cl  Cl498  1  0.00538083  0.11437181  0.38419638  1
  Cl  Cl499  1  -0.00239753  0.45086681  0.37401491  1
  Cl  Cl500  1  -0.00258019  0.78268895  0.37007973  1
  Cl  Cl501  1  0.50641944  0.11042186  0.39091006  1
  Cl  Cl502  1  0.49192435  0.44528634  0.39025780  1
  Cl  Cl503  1  0.50877927  0.77148428  0.39841610  1
  Cl  Cl504  1  0.35711778  0.14348734  0.74658526  1
  Cl  Cl505  1  0.36599541  0.47742365  0.75280674  1
  Cl  Cl506  1  0.36360648  0.81086000  0.74948569  1
  Cl  Cl507  1  0.86481209  0.14349487  0.74730912  1
  Cl  Cl508  1  0.86050179  0.47862475  0.75413557  1
  Cl  Cl509  1  0.86000359  0.80849503  0.75350410  1
  Cl  Cl510  1  0.14039740  0.18905127  0.24816774  1
  Cl  Cl511  1  0.13867211  0.52221750  0.24848601  1
  Cl  Cl512  1  0.13657414  0.85618347  0.25115661  1
  Cl  Cl513  1  0.63806736  0.18852380  0.25124974  1
  Cl  Cl514  1  0.64012844  0.52369752  0.25222138  1
  Cl  Cl515  1  0.64187583  0.85563288  0.25022150  1
  Cl  Cl516  1  0.13641990  0.14461877  0.74985273  1
  Cl  Cl517  1  0.14505809  0.47779713  0.75311578  1
  Cl  Cl518  1  0.13873670  0.81057934  0.75224240  1
  Cl  Cl519  1  0.64549505  0.14564249  0.74898635  1
  Cl  Cl520  1  0.63597718  0.47811890  0.74890954  1
  Cl  Cl521  1  0.63967382  0.81121434  0.74552573  1
  Cl  Cl522  1  0.36448382  0.18995220  0.25272268  1
  Cl  Cl523  1  0.36371130  0.52277185  0.24554591  1
  Cl  Cl524  1  0.36069630  0.85628418  0.24910343  1
  Cl  Cl525  1  0.86033903  0.18954334  0.25311475  1
  Cl  Cl526  1  0.86270176  0.52258182  0.24641007  1
  Cl  Cl527  1  0.86462442  0.85534056  0.25019384  1
  Cl  Cl528  1  0.11245071  0.31233804  0.75017766  1
  Cl  Cl529  1  0.11253026  0.64547950  0.75290910  1
  Cl  Cl530  1  0.10969553  0.97502749  0.74909103  1
  Cl  Cl531  1  0.60993448  0.31114342  0.74998260  1
  Cl  Cl532  1  0.61103311  0.64367991  0.74924832  1
  Cl  Cl533  1  0.61208393  0.97806429  0.75141526  1
  Cl  Cl534  1  0.38707306  0.02142261  0.25276116  1
  Cl  Cl535  1  0.39021752  0.35737932  0.24945109  1
  Cl  Cl536  1  0.38908573  0.68934148  0.24899402  1
  Cl  Cl537  1  0.88811615  0.02283052  0.25025138  1
  Cl  Cl538  1  0.88630457  0.35545974  0.24799586  1
  Cl  Cl539  1  0.88998002  0.69027699  0.24758800  1
  Cl  Cl540  1  0.38998408  0.30891109  0.75172132  1
  Cl  Cl541  1  0.38752815  0.64364802  0.75225909  1
  Cl  Cl542  1  0.38763438  0.97761558  0.74823979  1
  Cl  Cl543  1  0.88625160  0.31097899  0.75173685  1
  Cl  Cl544  1  0.88747420  0.64491216  0.75099605  1
  Cl  Cl545  1  0.88929152  0.97551921  0.75244571  1
  Cl  Cl546  1  0.11097583  0.02293934  0.25112043  1
  Cl  Cl547  1  0.11328464  0.35546834  0.25034224  1
  Cl  Cl548  1  0.11368527  0.68872061  0.24761159  1
  Cl  Cl549  1  0.61261773  0.02092078  0.25328158  1
  Cl  Cl550  1  0.61279620  0.35600437  0.24923943  1
  Cl  Cl551  1  0.61119617  0.68912445  0.25147783  1
