# generated using pymatgen
data_H8PbC4(N3Cl2)2
_symmetry_space_group_name_H-M   'P 1'
_cell_length_a   16.61930975
_cell_length_b   22.50303223
_cell_length_c   21.58946340
_cell_angle_alpha   89.99969839
_cell_angle_beta   89.98423241
_cell_angle_gamma   90.00074477
_symmetry_Int_Tables_number   1
_chemical_formula_structural   H8PbC4(N3Cl2)2
_chemical_formula_sum   'H192 Pb24 C96 N144 Cl96'
_cell_volume   8074.13220535
_cell_formula_units_Z   24
loop_
 _symmetry_equiv_pos_site_id
 _symmetry_equiv_pos_as_xyz
  1  'x, y, z'
loop_
 _atom_site_type_symbol
 _atom_site_label
 _atom_site_symmetry_multiplicity
 _atom_site_fract_x
 _atom_site_fract_y
 _atom_site_fract_z
 _atom_site_occupancy
  H  H0  1  0.00483723  0.03214792  0.68073534  1
  H  H1  1  -0.00604947  0.36622137  0.67860541  1
  H  H2  1  -0.00849769  0.69824876  0.67811260  1
  H  H3  1  0.50268293  0.03145865  0.68252885  1
  H  H4  1  0.49374476  0.36469385  0.68263233  1
  H  H5  1  0.50116289  0.69864536  0.68210824  1
  H  H6  1  -0.00404161  0.30176541  0.17979593  1
  H  H7  1  0.00361182  0.63587082  0.18005686  1
  H  H8  1  -0.00254124  0.96751078  0.17977903  1
  H  H9  1  0.50010903  0.30210807  0.17920628  1
  H  H10  1  0.49252468  0.63350245  0.17711496  1
  H  H11  1  0.50092310  0.96737841  0.18080198  1
  H  H12  1  -0.00174355  0.03105779  0.82023020  1
  H  H13  1  -0.00131584  0.36662526  0.81927211  1
  H  H14  1  -0.00457674  0.69833386  0.82157032  1
  H  H15  1  0.50543394  0.03156943  0.82189998  1
  H  H16  1  0.49975765  0.36406462  0.81735893  1
  H  H17  1  0.49894324  0.69805482  0.81828015  1
  H  H18  1  -0.00114125  0.30171898  0.31963985  1
  H  H19  1  -0.00268556  0.63310627  0.32019526  1
  H  H20  1  0.00439404  0.96813122  0.31814666  1
  H  H21  1  0.49620470  0.30070008  0.31888316  1
  H  H22  1  0.50044621  0.63480197  0.32024106  1
  H  H23  1  0.49660064  0.96882592  0.31992535  1
  H  H24  1  0.24859061  0.19841581  0.68090390  1
  H  H25  1  0.24788538  0.53215417  0.68037842  1
  H  H26  1  0.24208802  0.86481463  0.68163873  1
  H  H27  1  0.75001978  0.19810549  0.67871687  1
  H  H28  1  0.75557525  0.53074574  0.67981215  1
  H  H29  1  0.74750517  0.86609386  0.68145460  1
  H  H30  1  0.25196601  0.13424952  0.17966564  1
  H  H31  1  0.24107089  0.46712321  0.17766216  1
  H  H32  1  0.25406461  0.80233310  0.17734111  1
  H  H33  1  0.74450134  0.13361110  0.18186180  1
  H  H34  1  0.75446580  0.46803333  0.18273906  1
  H  H35  1  0.74924908  0.80323234  0.17905767  1
  H  H36  1  0.25328005  0.19910411  0.82075108  1
  H  H37  1  0.25378804  0.53035773  0.81998182  1
  H  H38  1  0.25024447  0.86412477  0.81874519  1
  H  H39  1  0.75391984  0.20042156  0.81965242  1
  H  H40  1  0.75548539  0.53287886  0.81999733  1
  H  H41  1  0.75707273  0.86280071  0.82024715  1
  H  H42  1  0.24643327  0.13465110  0.31674350  1
  H  H43  1  0.25370617  0.46885427  0.32207053  1
  H  H44  1  0.24720934  0.80083051  0.32086504  1
  H  H45  1  0.75956475  0.13499020  0.32003649  1
  H  H46  1  0.74858881  0.46924447  0.31894593  1
  H  H47  1  0.75512981  0.80260941  0.31889034  1
  H  H48  1  0.11980886  0.05734542  0.60084503  1
  H  H49  1  0.12834440  0.38585847  0.61687244  1
  H  H50  1  0.13180597  0.71611439  0.62569524  1
  H  H51  1  0.62459968  0.05406577  0.60989468  1
  H  H52  1  0.62917566  0.38477306  0.62095061  1
  H  H53  1  0.62572590  0.72126146  0.61061753  1
  H  H54  1  0.38397300  0.27814507  0.10104272  1
  H  H55  1  0.38252768  0.60798979  0.09608231  1
  H  H56  1  0.37593167  0.94583806  0.11121446  1
  H  H57  1  0.88688639  0.27634845  0.09829925  1
  H  H58  1  0.87941979  0.61454013  0.10797682  1
  H  H59  1  0.87462083  0.94464332  0.10824663  1
  H  H60  1  0.36901410  0.04937936  0.88117490  1
  H  H61  1  0.37565425  0.38615769  0.88825778  1
  H  H62  1  0.38193584  0.72233166  0.89508244  1
  H  H63  1  0.87153220  0.05408337  0.88959191  1
  H  H64  1  0.88215377  0.38848540  0.89476234  1
  H  H65  1  0.88059821  0.72382787  0.89919764  1
  H  H66  1  0.12396208  0.28037068  0.38835478  1
  H  H67  1  0.12359812  0.61329054  0.38728336  1
  H  H68  1  0.11826663  0.94422387  0.39583634  1
  H  H69  1  0.62306082  0.27832426  0.38786586  1
  H  H70  1  0.62355244  0.61234558  0.39129066  1
  H  H71  1  0.61940978  0.94640587  0.39273326  1
  H  H72  1  0.37449911  0.22112703  0.61011144  1
  H  H73  1  0.37650684  0.55459371  0.61476540  1
  H  H74  1  0.37952898  0.88463698  0.62279144  1
  H  H75  1  0.87565782  0.22068803  0.61010486  1
  H  H76  1  0.87316299  0.55564794  0.60248638  1
  H  H77  1  0.88037537  0.88491449  0.61875564  1
  H  H78  1  0.13355209  0.11006614  0.10340968  1
  H  H79  1  0.12472097  0.44469205  0.10262834  1
  H  H80  1  0.11957520  0.78372164  0.11620648  1
  H  H81  1  0.63453920  0.10890441  0.10030539  1
  H  H82  1  0.62198962  0.44967174  0.12080388  1
  H  H83  1  0.62417377  0.77794957  0.10930277  1
  H  H84  1  0.11797218  0.21786375  0.88001899  1
  H  H85  1  0.12191141  0.55136613  0.88684655  1
  H  H86  1  0.12605664  0.88705787  0.89070938  1
  H  H87  1  0.61665044  0.21789095  0.87902445  1
  H  H88  1  0.61908688  0.55135819  0.87850016  1
  H  H89  1  0.62491996  0.88609347  0.88454325  1
  H  H90  1  0.37803106  0.11535765  0.37940057  1
  H  H91  1  0.36687254  0.44109527  0.40038588  1
  H  H92  1  0.36762151  0.77692468  0.39518251  1
  H  H93  1  0.87478516  0.10995080  0.39789878  1
  H  H94  1  0.87324565  0.44685611  0.39079145  1
  H  H95  1  0.87008468  0.77508064  0.39691993  1
  H  H96  1  0.37445088  0.27851303  0.39368317  1
  H  H97  1  0.37372490  0.61249215  0.38930677  1
  H  H98  1  0.37072796  0.94466425  0.39037814  1
  H  H99  1  0.87450460  0.27908295  0.38887825  1
  H  H100  1  0.87418872  0.61191585  0.39202341  1
  H  H101  1  0.87027434  0.95040784  0.37812866  1
  H  H102  1  0.12108874  0.05347434  0.89164856  1
  H  H103  1  0.13123866  0.38598006  0.88199823  1
  H  H104  1  0.12835829  0.72014566  0.88381423  1
  H  H105  1  0.61565659  0.06029703  0.90205493  1
  H  H106  1  0.62492507  0.38808186  0.88845010  1
  H  H107  1  0.63090767  0.71933453  0.88375864  1
  H  H108  1  0.13406853  0.28424657  0.12160241  1
  H  H109  1  0.12838770  0.61127103  0.10859817  1
  H  H110  1  0.12387154  0.94803064  0.11297272  1
  H  H111  1  0.63219828  0.27987954  0.11662530  1
  H  H112  1  0.62916775  0.61621726  0.11811655  1
  H  H113  1  0.62599840  0.94494697  0.10983306  1
  H  H114  1  0.37552046  0.05463741  0.61291297  1
  H  H115  1  0.38124809  0.38928170  0.60276373  1
  H  H116  1  0.37761444  0.72121065  0.60949057  1
  H  H117  1  0.87171690  0.05202400  0.61680583  1
  H  H118  1  0.88104331  0.39126763  0.59921454  1
  H  H119  1  0.88678645  0.72478564  0.59261426  1
  H  H120  1  0.12875635  0.11239298  0.39221593  1
  H  H121  1  0.11947999  0.45027025  0.38412880  1
  H  H122  1  0.11952542  0.77724416  0.38971959  1
  H  H123  1  0.62656878  0.11449584  0.38304723  1
  H  H124  1  0.62411065  0.44612545  0.38995932  1
  H  H125  1  0.62167533  0.78206472  0.38015196  1
  H  H126  1  0.36616515  0.22245647  0.89842628  1
  H  H127  1  0.37025192  0.55548428  0.89807420  1
  H  H128  1  0.37495867  0.88844495  0.88779184  1
  H  H129  1  0.86469492  0.22414388  0.90022152  1
  H  H130  1  0.86716891  0.55680180  0.89878019  1
  H  H131  1  0.87253129  0.88795299  0.89986699  1
  H  H132  1  0.38173418  0.11425901  0.11421991  1
  H  H133  1  0.37249298  0.44961545  0.11557726  1
  H  H134  1  0.36688334  0.77382139  0.09900701  1
  H  H135  1  0.88163308  0.11369482  0.12255278  1
  H  H136  1  0.87103528  0.44631003  0.10629797  1
  H  H137  1  0.87296586  0.78041756  0.10814214  1
  H  H138  1  0.12548965  0.22207671  0.61012295  1
  H  H139  1  0.12803515  0.55547011  0.60521674  1
  H  H140  1  0.13217548  0.88956955  0.60048415  1
  H  H141  1  0.62654957  0.22143736  0.60688104  1
  H  H142  1  0.62497337  0.55332355  0.61634862  1
  H  H143  1  0.63143797  0.88871265  0.60577306  1
  H  H144  1  0.05822911  0.91889974  0.50457828  1
  H  H145  1  0.05214186  0.08393738  0.49893932  1
  H  H146  1  0.44711949  0.41541755  0.49658327  1
  H  H147  1  0.57352145  0.08191433  0.50132829  1
  H  H148  1  0.60534279  0.58558821  0.00880933  1
  H  H149  1  0.57818236  0.58354628  0.50107247  1
  H  H150  1  0.20149960  0.91619812  0.49478368  1
  H  H151  1  0.41922280  0.91762745  0.00077908  1
  H  H152  1  0.44264009  0.74782875  1.00290671  1
  H  H153  1  0.41885843  0.91807888  0.49507106  1
  H  H154  1  0.68744965  0.91935997  0.49732431  1
  H  H155  1  0.08308668  0.91713580  0.00063773  1
  H  H156  1  0.43079658  0.75066837  0.50551641  1
  H  H157  1  0.64121492  0.24619689  0.98805822  1
  H  H158  1  0.80772299  0.75285661  0.50070709  1
  H  H159  1  0.11340538  0.25424675  0.01254289  1
  H  H160  1  0.42277269  0.41593196  0.99702987  1
  H  H161  1  0.80611729  0.58627163  1.00550090  1
  H  H162  1  0.96239710  0.74881416  0.49302169  1
  H  H163  1  0.81405589  0.42165738  -0.00360929  1
  H  H164  1  0.29850670  0.75903613  -0.00434566  1
  H  H165  1  0.16107805  0.75022621  0.49553152  1
  H  H166  1  0.07731056  0.58136525  0.00531334  1
  H  H167  1  0.65302438  0.75205578  0.49231205  1
  H  H168  1  0.18455471  0.08700599  0.50244504  1
  H  H169  1  0.15047597  0.74799465  0.01134949  1
  H  H170  1  0.15142131  0.41445263  0.48864897  1
  H  H171  1  0.94001458  0.41714003  1.00517426  1
  H  H172  1  0.67693808  0.24843746  0.50230278  1
  H  H173  1  0.67289645  0.41767798  0.49867066  1
  H  H174  1  0.34570423  0.08833466  0.49256832  1
  H  H175  1  0.08228811  0.58320722  0.49962604  1
  H  H176  1  0.57916143  0.91437553  0.00607837  1
  H  H177  1  0.70276903  0.08265778  -0.00487172  1
  H  H178  1  0.39427429  0.08427314  0.98722580  1
  H  H179  1  0.79906274  0.25019476  1.00731779  1
  H  H180  1  0.41680983  0.58552434  0.49514385  1
  H  H181  1  0.91492614  0.07997599  0.99534535  1
  H  H182  1  0.08286579  0.25182215  0.49927109  1
  H  H183  1  0.07263309  0.08154578  1.00182999  1
  H  H184  1  0.30523038  0.25352127  1.00597960  1
  H  H185  1  0.65259443  0.42171805  0.00788306  1
  H  H186  1  0.95523886  0.25150380  -0.00835997  1
  H  H187  1  0.29923727  0.42601160  0.50391172  1
  H  H188  1  0.91646260  0.25077737  0.49955655  1
  H  H189  1  0.43012797  0.24872267  0.49634789  1
  H  H190  1  0.89375875  0.92162723  0.49106565  1
  H  H191  1  0.54474430  0.07452165  1.00458972  1
  Pb  Pb192  1  0.24956027  0.04615257  0.74596940  1
  Pb  Pb193  1  0.25347814  0.37997566  0.74072769  1
  Pb  Pb194  1  0.25208499  0.71262130  0.75510217  1
  Pb  Pb195  1  0.74609953  0.04745807  0.75397036  1
  Pb  Pb196  1  0.75134028  0.37982580  0.75067741  1
  Pb  Pb197  1  0.75673651  0.71376548  0.74273392  1
  Pb  Pb198  1  0.25192464  0.28779774  0.25040849  1
  Pb  Pb199  1  0.24847653  0.61960632  0.24831169  1
  Pb  Pb200  1  0.25105546  0.95366460  0.25252372  1
  Pb  Pb201  1  0.75143786  0.28696745  0.24901224  1
  Pb  Pb202  1  0.74970408  0.62166155  0.25000294  1
  Pb  Pb203  1  0.74638676  0.95284794  0.25033849  1
  Pb  Pb204  1  -0.00099795  0.21358858  0.75050205  1
  Pb  Pb205  1  0.00172879  0.54555732  0.74982583  1
  Pb  Pb206  1  0.00365216  0.88177272  0.75113208  1
  Pb  Pb207  1  0.49911736  0.21261311  0.74573096  1
  Pb  Pb208  1  0.50246197  0.54796426  0.74937812  1
  Pb  Pb209  1  0.50104495  0.87882800  0.75196784  1
  Pb  Pb210  1  0.00284634  0.11851833  0.25228162  1
  Pb  Pb211  1  -0.00058116  0.45428989  0.24844127  1
  Pb  Pb212  1  -0.00152865  0.78761498  0.25484444  1
  Pb  Pb213  1  0.50172356  0.12114449  0.24288516  1
  Pb  Pb214  1  0.49970990  0.45434246  0.25469066  1
  Pb  Pb215  1  0.49398096  0.78484407  0.24876264  1
  C  C216  1  -0.00089496  0.04699604  0.63309557  1
  C  C217  1  0.00154495  0.38077861  0.63130670  1
  C  C218  1  0.00315720  0.71238723  0.63088256  1
  C  C219  1  0.50063165  0.04651362  0.63480840  1
  C  C220  1  0.50172287  0.37968649  0.63528547  1
  C  C221  1  0.50127037  0.71386175  0.63444121  1
  C  C222  1  0.00638856  0.28718508  0.13237812  1
  C  C223  1  0.00410016  0.62039459  0.13248338  1
  C  C224  1  -0.00081564  0.95320910  0.13193268  1
  C  C225  1  0.50543587  0.28659247  0.13192038  1
  C  C226  1  0.50198307  0.61930750  0.12967970  1
  C  C227  1  0.50136149  0.95213608  0.13297246  1
  C  C228  1  -0.00349223  0.04623584  0.86802464  1
  C  C229  1  0.00376172  0.38050172  0.86715648  1
  C  C230  1  0.00190686  0.71326452  0.86879876  1
  C  C231  1  0.49653358  0.04675590  0.86930843  1
  C  C232  1  0.50032600  0.37940462  0.86496744  1
  C  C233  1  0.50410862  0.71295184  0.86586946  1
  C  C234  1  -0.00086303  0.28676838  0.36748119  1
  C  C235  1  -0.00104156  0.61907525  0.36813166  1
  C  C236  1  -0.00275317  0.95379420  0.36589357  1
  C  C237  1  0.49755810  0.28570060  0.36660213  1
  C  C238  1  0.49885307  0.61963705  0.36808023  1
  C  C239  1  0.49518108  0.95337377  0.36751140  1
  C  C240  1  0.24988015  0.21369305  0.63352385  1
  C  C241  1  0.25067499  0.54714256  0.63291351  1
  C  C242  1  0.25166937  0.87976099  0.63441046  1
  C  C243  1  0.75032934  0.21320527  0.63109037  1
  C  C244  1  0.75138967  0.54637171  0.63260311  1
  C  C245  1  0.75270948  0.88013005  0.63362447  1
  C  C246  1  0.25570093  0.11961520  0.13205698  1
  C  C247  1  0.24622430  0.45341800  0.12981058  1
  C  C248  1  0.24668412  0.78680784  0.12994568  1
  C  C249  1  0.75401139  0.11924082  0.13440257  1
  C  C250  1  0.74888732  0.45379886  0.13483783  1
  C  C251  1  0.74848859  0.78744918  0.13181743  1
  C  C252  1  0.24610223  0.21331266  0.86834891  1
  C  C253  1  0.24853713  0.54510527  0.86770178  1
  C  C254  1  0.25012502  0.87963427  0.86600106  1
  C  C255  1  0.74436239  0.21462945  0.86729641  1
  C  C256  1  0.74750444  0.54699013  0.86761024  1
  C  C257  1  0.75150346  0.87841600  0.86760415  1
  C  C258  1  0.25132898  0.12057970  0.36471362  1
  C  C259  1  0.24651008  0.45358404  0.36960448  1
  C  C260  1  0.24429239  0.78543420  0.36845964  1
  C  C261  1  0.75334494  0.12020624  0.36737965  1
  C  C262  1  0.74861502  0.45395730  0.36652398  1
  C  C263  1  0.74916841  0.78722712  0.36646002  1
  C  C264  1  0.53794907  0.59329916  0.46177983  1
  C  C265  1  0.05569799  0.40572313  0.95749180  1
  C  C266  1  0.21961410  0.09667044  0.46110508  1
  C  C267  1  0.98500885  0.26106009  0.03547845  1
  C  C268  1  0.69745597  0.43072932  0.04343856  1
  C  C269  1  0.96032870  0.92624158  0.03837757  1
  C  C270  1  0.30150149  0.09584637  0.03993463  1
  C  C271  1  0.06781792  0.73768064  0.54503346  1
  C  C272  1  0.30162737  0.09747511  0.45646245  1
  C  C273  1  0.77120889  0.57422789  0.96475642  1
  C  C274  1  0.23187353  0.90587889  0.53822015  1
  C  C275  1  0.04194253  0.92720674  0.03830942  1
  C  C276  1  0.69650909  0.76106223  0.45591170  1
  C  C277  1  0.46328864  0.40561856  0.95798233  1
  C  C278  1  0.78007194  0.09202230  0.46205365  1
  C  C279  1  0.97445755  0.40665906  0.96369564  1
  C  C280  1  0.29491850  0.57500825  0.54171650  1
  C  C281  1  0.69040050  0.57156912  0.95620917  1
  C  C282  1  0.77922236  0.43010764  0.03807269  1
  C  C283  1  0.76811452  0.23985561  0.96416778  1
  C  C284  1  0.47888860  0.40564797  0.53955449  1
  C  C285  1  0.27095994  0.24113625  0.96499587  1
  C  C286  1  0.21271126  0.24166931  0.54052273  1
  C  C287  1  0.95972435  0.59336217  0.46201842  1
  C  C288  1  0.02418501  0.92877863  0.46286608  1
  C  C289  1  0.95835253  0.26103208  0.46159567  1
  C  C290  1  0.73365842  0.09319824  0.03827597  1
  C  C291  1  0.45986872  0.92659439  0.03976070  1
  C  C292  1  0.80528917  0.90577574  0.54354640  1
  C  C293  1  0.71196337  0.42775600  0.45961396  1
  C  C294  1  0.04071596  0.26133034  0.46141993  1
  C  C295  1  0.47819122  0.59046174  0.03282266  1
  C  C296  1  0.21533726  0.42704964  0.03502055  1
  C  C297  1  0.28931188  0.90850133  0.95817292  1
  C  C298  1  0.94247868  0.93064635  0.45648496  1
  C  C299  1  0.78522078  0.75800162  0.03980079  1
  C  C300  1  0.79449599  0.24053598  0.53804580  1
  C  C301  1  0.55359574  0.25962420  0.04172949  1
  C  C302  1  0.29661739  0.42892741  0.03946933  1
  C  C303  1  0.53516850  0.07205227  0.54102738  1
  C  C304  1  0.97533124  0.74221572  0.96353576  1
  C  C305  1  0.04135857  0.59350642  0.46195816  1
  C  C306  1  0.18989143  0.23856335  0.95710685  1
  C  C307  1  0.47657952  0.73817949  0.96096897  1
  C  C308  1  0.03496404  0.07198557  0.96190832  1
  C  C309  1  0.97715408  0.40862118  0.53580224  1
  C  C310  1  0.72400187  0.90758798  0.53722771  1
  C  C311  1  0.70476111  0.57489465  0.54254336  1
  N  N312  1  0.46621554  0.73616638  0.54126061  1
  N  N313  1  0.55619282  0.59395325  0.04150290  1
  N  N314  1  0.96180892  0.59469403  0.03936396  1
  N  N315  1  0.54266565  0.40682232  0.95833496  1
  N  N316  1  0.53972957  0.92708144  0.04021181  1
  N  N317  1  0.44074898  0.06793227  0.95724739  1
  N  N318  1  0.19426210  0.43186215  0.45858430  1
  N  N319  1  0.45802966  0.59361339  0.46005740  1
  N  N320  1  0.19374646  0.76505783  0.04124477  1
  N  N321  1  0.29054929  0.24133331  0.53946319  1
  N  N322  1  0.94530913  0.07042673  0.54309575  1
  N  N323  1  0.71517730  0.24034922  0.53833480  1
  N  N324  1  0.77582213  0.75793643  0.46028364  1
  N  N325  1  0.20307673  0.75972859  0.45934388  1
  N  N326  1  0.70256504  0.09353942  0.45891446  1
  N  N327  1  0.27226680  0.41967051  0.46156048  1
  N  N328  1  0.77901000  0.90711103  0.96285470  1
  N  N329  1  0.05437409  0.40550393  0.54019160  1
  N  N330  1  0.98976219  0.74053015  0.53498070  1
  N  N331  1  0.79116258  0.42737236  0.46016230  1
  N  N332  1  0.53579887  0.92709732  0.46101205  1
  N  N333  1  0.54457071  0.73795962  0.54103769  1
  N  N334  1  0.46526136  0.26225991  0.45985566  1
  N  N335  1  0.45739087  0.92669115  0.45863713  1
  N  N336  1  0.31062990  0.90444871  0.54554636  1
  N  N337  1  0.70265587  0.90612302  0.95800381  1
  N  N338  1  0.45576186  0.07238330  0.54153433  1
  N  N339  1  0.55784671  0.40507578  0.54567493  1
  N  N340  1  0.21135113  0.90813471  0.96024791  1
  N  N341  1  0.54376114  0.26095118  0.45902144  1
  N  N342  1  0.22391863  0.09343534  0.03533569  1
  N  N343  1  0.21709054  0.57546935  0.53730915  1
  N  N344  1  0.68909877  0.23772079  0.95567536  1
  N  N345  1  0.06359227  0.26306142  0.04499994  1
  N  N346  1  0.55566750  0.73770344  0.95724262  1
  N  N347  1  0.20147371  0.56982620  0.95960123  1
  N  N348  1  0.81244771  0.09474812  0.04528279  1
  N  N349  1  0.78218770  0.57592646  0.53696519  1
  N  N350  1  0.27169114  0.75240446  0.03801844  1
  N  N351  1  0.02296820  0.07196289  0.53880081  1
  N  N352  1  0.28157474  0.75938156  0.46264122  1
  N  N353  1  0.27784607  0.57166176  0.96328678  1
  N  N354  1  0.70773747  0.75695230  0.03889057  1
  N  N355  1  0.51856862  0.08084363  0.96184451  1
  N  N356  1  0.47621701  0.25822628  0.03543739  1
  N  N357  1  0.95526546  0.07218126  0.95982039  1
  N  N358  1  0.04016945  0.59392353  0.04100806  1
  N  N359  1  0.05284387  0.73991806  0.95997459  1
  N  N360  1  0.05772669  0.05800586  0.59319948  1
  N  N361  1  0.06972389  0.38818325  0.60102605  1
  N  N362  1  0.07619887  0.72117749  0.60470817  1
  N  N363  1  0.56398496  0.05649767  0.59786483  1
  N  N364  1  0.57016307  0.38896970  0.60545943  1
  N  N365  1  0.56556205  0.72255571  0.59883626  1
  N  N366  1  0.44617026  0.27554810  0.09302894  1
  N  N367  1  0.44401732  0.60639477  0.08732163  1
  N  N368  1  0.43603065  0.94246737  0.09734255  1
  N  N369  1  0.94880851  0.27580591  0.08978120  1
  N  N370  1  0.94022954  0.61155069  0.09651558  1
  N  N371  1  0.93474461  0.94185907  0.09485287  1
  N  N372  1  0.42709968  0.05619075  0.89754661  1
  N  N373  1  0.43606546  0.38903528  0.90102045  1
  N  N374  1  0.44325080  0.72338782  0.90519454  1
  N  N375  1  0.93177094  0.05541085  0.90228678  1
  N  N376  1  0.94287391  0.39074760  0.90614265  1
  N  N377  1  0.94188354  0.72582064  0.90894049  1
  N  N378  1  0.06438047  0.27713346  0.40246209  1
  N  N379  1  0.06449361  0.60968172  0.40240248  1
  N  N380  1  0.05704919  0.94299736  0.40600300  1
  N  N381  1  0.56286650  0.27658834  0.40096570  1
  N  N382  1  0.56322360  0.60905025  0.40440852  1
  N  N383  1  0.55843449  0.94319277  0.40377962  1
  N  N384  1  0.31366244  0.22378132  0.59865569  1
  N  N385  1  0.31752212  0.55798979  0.59956043  1
  N  N386  1  0.32107090  0.88825553  0.60585462  1
  N  N387  1  0.81629799  0.22411684  0.59559082  1
  N  N388  1  0.81140834  0.55775773  0.59426121  1
  N  N389  1  0.82219576  0.88925840  0.60182128  1
  N  N390  1  0.19536471  0.10871741  0.09410025  1
  N  N391  1  0.18510926  0.44184630  0.09035233  1
  N  N392  1  0.17808614  0.77680919  0.10076105  1
  N  N393  1  0.69647727  0.10822888  0.09239207  1
  N  N394  1  0.68014075  0.44520284  0.10369987  1
  N  N395  1  0.68463363  0.77556111  0.09756313  1
  N  N396  1  0.17536795  0.22190068  0.89828731  1
  N  N397  1  0.18212386  0.55344971  0.90027301  1
  N  N398  1  0.18700043  0.88997223  0.90153134  1
  N  N399  1  0.67505247  0.22289209  0.89583571  1
  N  N400  1  0.67651659  0.55537299  0.89716975  1
  N  N401  1  0.68445178  0.88869941  0.89879695  1
  N  N402  1  0.31970538  0.11208827  0.39643557  1
  N  N403  1  0.30520138  0.44358912  0.40977678  1
  N  N404  1  0.30639674  0.77492919  0.40580505  1
  N  N405  1  0.81376105  0.10805545  0.40733028  1
  N  N406  1  0.81219740  0.44385305  0.40197541  1
  N  N407  1  0.80828258  0.77670100  0.40594705  1
  N  N408  1  0.43575574  0.27541890  0.40355299  1
  N  N409  1  0.43432977  0.61030039  0.40241720  1
  N  N410  1  0.43126282  0.94302166  0.40232028  1
  N  N411  1  0.93421767  0.27675094  0.40276784  1
  N  N412  1  0.93421571  0.60871848  0.40547147  1
  N  N413  1  0.92775768  0.94589981  0.39592511  1
  N  N414  1  0.06084035  0.05664397  0.90467931  1
  N  N415  1  0.07283325  0.38993782  0.89920286  1
  N  N416  1  0.06948165  0.72182096  0.89946074  1
  N  N417  1  0.55377827  0.05737384  0.91056510  1
  N  N418  1  0.56411534  0.39053899  0.89982378  1
  N  N419  1  0.57102361  0.72204367  0.89793374  1
  N  N420  1  0.07617301  0.27896782  0.10448779  1
  N  N421  1  0.06743267  0.60854955  0.09750178  1
  N  N422  1  0.06490674  0.94412878  0.09771892  1
  N  N423  1  0.57387970  0.27635622  0.10052409  1
  N  N424  1  0.57128312  0.61160816  0.10114253  1
  N  N425  1  0.56505899  0.94168694  0.09804408  1
  N  N426  1  0.43586556  0.05646484  0.60058365  1
  N  N427  1  0.44305871  0.39060276  0.59423362  1
  N  N428  1  0.43853484  0.72411813  0.59848477  1
  N  N429  1  0.93096622  0.05501053  0.60182785  1
  N  N430  1  0.94251499  0.39336475  0.59038356  1
  N  N431  1  0.94921345  0.72312101  0.58750566  1
  N  N432  1  0.18969598  0.11097235  0.40352204  1
  N  N433  1  0.17813290  0.44337493  0.39910719  1
  N  N434  1  0.17944989  0.77608873  0.40249952  1
  N  N435  1  0.68593989  0.11129692  0.39830191  1
  N  N436  1  0.68414913  0.44361593  0.40228014  1
  N  N437  1  0.67963587  0.77797961  0.39730131  1
  N  N438  1  0.30493746  0.22490352  0.90839829  1
  N  N439  1  0.30830600  0.55631230  0.90660806  1
  N  N440  1  0.31514237  0.89135089  0.90124878  1
  N  N441  1  0.80281076  0.22547346  0.90932628  1
  N  N442  1  0.80583092  0.55838605  0.90820010  1
  N  N443  1  0.81058078  0.88990953  0.90710418  1
  N  N444  1  0.32312557  0.11128337  0.09887260  1
  N  N445  1  0.31471477  0.44478601  0.09750548  1
  N  N446  1  0.30510546  0.77640804  0.08965090  1
  N  N447  1  0.82330783  0.11092834  0.10562220  1
  N  N448  1  0.80996542  0.44426958  0.09547255  1
  N  N449  1  0.81299558  0.77647101  0.09565106  1
  N  N450  1  0.18559033  0.22509238  0.59727283  1
  N  N451  1  0.18949760  0.55782717  0.59558988  1
  N  N452  1  0.19428396  0.89118187  0.59239926  1
  N  N453  1  0.68732296  0.22284130  0.59543935  1
  N  N454  1  0.68350637  0.55721082  0.60047470  1
  N  N455  1  0.69236598  0.89125869  0.59476716  1
  Cl  Cl456  1  0.24284505  0.05628024  0.61050555  1
  Cl  Cl457  1  0.25770230  0.39290408  0.60350642  1
  Cl  Cl458  1  0.25631462  0.71914398  0.62220622  1
  Cl  Cl459  1  0.74830680  0.05314713  0.62301925  1
  Cl  Cl460  1  0.75588438  0.38371965  0.61817530  1
  Cl  Cl461  1  0.75983437  0.72652686  0.60123033  1
  Cl  Cl462  1  0.26093068  0.28191686  0.11508937  1
  Cl  Cl463  1  0.25282044  0.61465871  0.11612628  1
  Cl  Cl464  1  0.25270055  0.94819485  0.12282870  1
  Cl  Cl465  1  0.76135093  0.27603475  0.11278129  1
  Cl  Cl466  1  0.75647627  0.61451082  0.11505234  1
  Cl  Cl467  1  0.74842072  0.94854535  0.11991042  1
  Cl  Cl468  1  0.24649052  0.04999549  0.87696364  1
  Cl  Cl469  1  0.25417612  0.38301583  0.87057276  1
  Cl  Cl470  1  0.25773628  0.72809475  0.89299821  1
  Cl  Cl471  1  0.74038270  0.05948405  0.89086849  1
  Cl  Cl472  1  0.75316534  0.38638579  0.88526457  1
  Cl  Cl473  1  0.75723172  0.71842407  0.87419596  1
  Cl  Cl474  1  0.25172327  0.28260034  0.38191463  1
  Cl  Cl475  1  0.25184240  0.61376329  0.38061262  1
  Cl  Cl476  1  0.24550798  0.94283380  0.38860332  1
  Cl  Cl477  1  0.74649393  0.27639353  0.38327203  1
  Cl  Cl478  1  0.74744331  0.61729318  0.37995024  1
  Cl  Cl479  1  0.74176223  0.94849977  0.38382715  1
  Cl  Cl480  1  0.00094336  0.21960690  0.61750495  1
  Cl  Cl481  1  0.00069253  0.55370168  0.61561883  1
  Cl  Cl482  1  0.00931694  0.88503679  0.61624335  1
  Cl  Cl483  1  0.49955489  0.22236238  0.60974894  1
  Cl  Cl484  1  0.49955580  0.55649245  0.61315365  1
  Cl  Cl485  1  0.50446243  0.88537700  0.61971948  1
  Cl  Cl486  1  0.00902586  0.11176957  0.11385239  1
  Cl  Cl487  1  -0.00372782  0.44671334  0.11495440  1
  Cl  Cl488  1  -0.00298109  0.78301248  0.12329283  1
  Cl  Cl489  1  0.50941623  0.10570978  0.10466885  1
  Cl  Cl490  1  0.49705541  0.45147476  0.12339461  1
  Cl  Cl491  1  0.48925855  0.77728806  0.11291775  1
  Cl  Cl492  1  -0.01203507  0.22154514  0.88685587  1
  Cl  Cl493  1  -0.00171473  0.55468421  0.88486744  1
  Cl  Cl494  1  -0.00200410  0.88641428  0.88541383  1
  Cl  Cl495  1  0.49260807  0.21565537  0.87719244  1
  Cl  Cl496  1  0.49253331  0.55494598  0.88235072  1
  Cl  Cl497  1  0.49996238  0.89081885  0.88858751  1
  Cl  Cl498  1  0.00439395  0.10931002  0.38895782  1
  Cl  Cl499  1  -0.00291670  0.44829259  0.38182404  1
  Cl  Cl500  1  -0.00678109  0.77296734  0.39595331  1
  Cl  Cl501  1  0.50306948  0.11499309  0.37482293  1
  Cl  Cl502  1  0.48978408  0.44423743  0.39076044  1
  Cl  Cl503  1  0.49104136  0.77781667  0.38514760  1
  Cl  Cl504  1  0.36263950  0.14388687  0.74727023  1
  Cl  Cl505  1  0.36033009  0.47710307  0.74619648  1
  Cl  Cl506  1  0.36465095  0.81172620  0.74751264  1
  Cl  Cl507  1  0.86222709  0.14518268  0.75055456  1
  Cl  Cl508  1  0.86161518  0.47975873  0.75041984  1
  Cl  Cl509  1  0.85845575  0.81037621  0.74475349  1
  Cl  Cl510  1  0.13805956  0.18861466  0.24797051  1
  Cl  Cl511  1  0.13827104  0.52080550  0.25215055  1
  Cl  Cl512  1  0.13604859  0.85505462  0.25049747  1
  Cl  Cl513  1  0.63839417  0.18775131  0.25091067  1
  Cl  Cl514  1  0.63707118  0.52233816  0.24812989  1
  Cl  Cl515  1  0.63918917  0.85628442  0.25094371  1
  Cl  Cl516  1  0.13571688  0.14498074  0.75325399  1
  Cl  Cl517  1  0.13709921  0.47602522  0.74853429  1
  Cl  Cl518  1  0.13969303  0.81111807  0.75103836  1
  Cl  Cl519  1  0.63843316  0.14459510  0.75284107  1
  Cl  Cl520  1  0.63545729  0.47756498  0.75039813  1
  Cl  Cl521  1  0.63537920  0.80898862  0.75043737  1
  Cl  Cl522  1  0.36385781  0.18773426  0.25133358  1
  Cl  Cl523  1  0.36203953  0.52087117  0.25023273  1
  Cl  Cl524  1  0.35935499  0.85378591  0.25108547  1
  Cl  Cl525  1  0.86436985  0.18849001  0.24746220  1
  Cl  Cl526  1  0.86120106  0.52160959  0.25092918  1
  Cl  Cl527  1  0.86201908  0.85547609  0.25300674  1
  Cl  Cl528  1  0.11273428  0.31099681  0.74910449  1
  Cl  Cl529  1  0.11521206  0.64555593  0.74953644  1
  Cl  Cl530  1  0.11020885  0.97726134  0.75122793  1
  Cl  Cl531  1  0.61447816  0.31072322  0.75007064  1
  Cl  Cl532  1  0.60853130  0.64304661  0.75027573  1
  Cl  Cl533  1  0.60927745  0.98028395  0.75377959  1
  Cl  Cl534  1  0.38861597  0.02144900  0.24952086  1
  Cl  Cl535  1  0.38863884  0.35481487  0.25094432  1
  Cl  Cl536  1  0.39041676  0.68801455  0.25073243  1
  Cl  Cl537  1  0.88620124  0.02291660  0.24903880  1
  Cl  Cl538  1  0.88882787  0.35379238  0.24933922  1
  Cl  Cl539  1  0.88939302  0.68750881  0.25209741  1
  Cl  Cl540  1  0.38911688  0.31152194  0.74551087  1
  Cl  Cl541  1  0.38711735  0.64445552  0.74787076  1
  Cl  Cl542  1  0.38618569  0.97785198  0.74994685  1
  Cl  Cl543  1  0.88700063  0.31192185  0.74960113  1
  Cl  Cl544  1  0.89083236  0.64663440  0.74793023  1
  Cl  Cl545  1  0.89059541  0.97799728  0.74695301  1
  Cl  Cl546  1  0.10957704  0.02183775  0.25146462  1
  Cl  Cl547  1  0.11263533  0.35436572  0.24971421  1
  Cl  Cl548  1  0.11316356  0.68940136  0.25130286  1
  Cl  Cl549  1  0.61111251  0.02084328  0.24842762  1
  Cl  Cl550  1  0.61239466  0.35425878  0.25029416  1
  Cl  Cl551  1  0.61247464  0.68845648  0.24832585  1
