# generated using pymatgen
data_H8PbC4(N3Cl2)2
_symmetry_space_group_name_H-M   'P 1'
_cell_length_a   16.62086934
_cell_length_b   22.49867797
_cell_length_c   21.58824527
_cell_angle_alpha   89.99945441
_cell_angle_beta   89.99908824
_cell_angle_gamma   89.99933985
_symmetry_Int_Tables_number   1
_chemical_formula_structural   H8PbC4(N3Cl2)2
_chemical_formula_sum   'H192 Pb24 C96 N144 Cl96'
_cell_volume   8072.87222453
_cell_formula_units_Z   24
loop_
 _symmetry_equiv_pos_site_id
 _symmetry_equiv_pos_as_xyz
  1  'x, y, z'
loop_
 _atom_site_type_symbol
 _atom_site_label
 _atom_site_symmetry_multiplicity
 _atom_site_fract_x
 _atom_site_fract_y
 _atom_site_fract_z
 _atom_site_occupancy
  H  H0  1  -0.00679067  0.03305897  0.68021527  1
  H  H1  1  0.00134079  0.36597916  0.67999945  1
  H  H2  1  -0.00163985  0.69878060  0.67923010  1
  H  H3  1  0.50616942  0.03283326  0.68254456  1
  H  H4  1  0.49948554  0.36612350  0.68042227  1
  H  H5  1  0.50013375  0.69868285  0.68039717  1
  H  H6  1  0.00056016  0.29992689  0.18150184  1
  H  H7  1  -0.00183388  0.63376237  0.18203389  1
  H  H8  1  -0.00169053  0.96629561  0.18112967  1
  H  H9  1  0.50248672  0.30062182  0.18044654  1
  H  H10  1  0.49734808  0.63451906  0.18079794  1
  H  H11  1  0.49910885  0.96682132  0.17948921  1
  H  H12  1  0.00081407  0.03077192  0.81765881  1
  H  H13  1  0.00597667  0.36592134  0.81935739  1
  H  H14  1  0.00306710  0.70062033  0.81737500  1
  H  H15  1  0.49185572  0.03214333  0.81624908  1
  H  H16  1  0.50029702  0.36586162  0.81833000  1
  H  H17  1  0.49472908  0.69935922  0.81948777  1
  H  H18  1  0.00021338  0.30191857  0.32050472  1
  H  H19  1  0.00009963  0.63445650  0.31692032  1
  H  H20  1  0.00410949  0.96701296  0.31898320  1
  H  H21  1  0.49562503  0.30105637  0.31952261  1
  H  H22  1  0.50163842  0.63371123  0.31990016  1
  H  H23  1  0.49732815  0.96595607  0.32001029  1
  H  H24  1  0.25286865  0.19963967  0.68175704  1
  H  H25  1  0.25071661  0.53278594  0.68185741  1
  H  H26  1  0.24557549  0.86516790  0.68118192  1
  H  H27  1  0.75264603  0.20048290  0.67997858  1
  H  H28  1  0.74963834  0.53289952  0.68215327  1
  H  H29  1  0.75671011  0.86551253  0.67919860  1
  H  H30  1  0.24700998  0.13438102  0.18377685  1
  H  H31  1  0.24685231  0.46665357  0.18282645  1
  H  H32  1  0.25262205  0.80107998  0.18224464  1
  H  H33  1  0.75443580  0.13406874  0.18324677  1
  H  H34  1  0.75340617  0.46768794  0.18170591  1
  H  H35  1  0.74866204  0.80100590  0.18236448  1
  H  H36  1  0.25065664  0.20021519  0.81806449  1
  H  H37  1  0.25357386  0.53337279  0.81952445  1
  H  H38  1  0.24850251  0.86497143  0.81883710  1
  H  H39  1  0.74315044  0.19934935  0.81779339  1
  H  H40  1  0.75158008  0.53346597  0.81921986  1
  H  H41  1  0.75222122  0.86656468  0.81831443  1
  H  H42  1  0.24571194  0.13418531  0.31734575  1
  H  H43  1  0.24641797  0.46761263  0.32088768  1
  H  H44  1  0.25155074  0.80006554  0.31711473  1
  H  H45  1  0.74948432  0.13420382  0.31942560  1
  H  H46  1  0.74749622  0.46754717  0.31722192  1
  H  H47  1  0.75519115  0.80080938  0.32114454  1
  H  H48  1  0.12672193  0.05300787  0.61915756  1
  H  H49  1  0.12249035  0.38840861  0.60595571  1
  H  H50  1  0.12613574  0.72018630  0.61125219  1
  H  H51  1  0.62167271  0.05517449  0.60516230  1
  H  H52  1  0.62031876  0.38797939  0.60562328  1
  H  H53  1  0.62781264  0.72027514  0.61164395  1
  H  H54  1  0.37119683  0.28065022  0.11688274  1
  H  H55  1  0.38124103  0.61045678  0.10168446  1
  H  H56  1  0.37598587  0.94403919  0.10829670  1
  H  H57  1  0.87581716  0.27996698  0.11278165  1
  H  H58  1  0.88055058  0.61213986  0.10647470  1
  H  H59  1  0.87547786  0.94616900  0.11031610  1
  H  H60  1  0.37971297  0.05572775  0.89668036  1
  H  H61  1  0.37616130  0.38720939  0.89044163  1
  H  H62  1  0.37617828  0.72222363  0.89512328  1
  H  H63  1  0.87554584  0.05188234  0.88676423  1
  H  H64  1  0.87190466  0.38561201  0.88022793  1
  H  H65  1  0.87350239  0.71862615  0.88446257  1
  H  H66  1  0.12893134  0.28090221  0.38738956  1
  H  H67  1  0.12443107  0.61177463  0.38944396  1
  H  H68  1  0.11973184  0.94319868  0.39893816  1
  H  H69  1  0.62948183  0.28116034  0.38049285  1
  H  H70  1  0.62447564  0.61163615  0.39191087  1
  H  H71  1  0.62596889  0.94675396  0.38546323  1
  H  H72  1  0.36969442  0.22186088  0.60586580  1
  H  H73  1  0.37494747  0.55430964  0.60940431  1
  H  H74  1  0.37901272  0.88421922  0.61973208  1
  H  H75  1  0.87364029  0.22057234  0.60636433  1
  H  H76  1  0.87464152  0.55471747  0.61152886  1
  H  H77  1  0.87151421  0.88881459  0.59946455  1
  H  H78  1  0.12474994  0.11329218  0.11208960  1
  H  H79  1  0.12789550  0.44460819  0.10855971  1
  H  H80  1  0.12514713  0.78097018  0.11197707  1
  H  H81  1  0.62228614  0.11551336  0.12119020  1
  H  H82  1  0.62664004  0.44655246  0.11211029  1
  H  H83  1  0.62533286  0.78056899  0.11130750  1
  H  H84  1  0.12666862  0.22172122  0.89114704  1
  H  H85  1  0.11916137  0.55218134  0.88051695  1
  H  H86  1  0.12556743  0.88662559  0.89078846  1
  H  H87  1  0.62999135  0.22426391  0.89910736  1
  H  H88  1  0.62109491  0.55379820  0.88407580  1
  H  H89  1  0.62262503  0.88510642  0.88468208  1
  H  H90  1  0.37461984  0.11303426  0.38695936  1
  H  H91  1  0.37775026  0.44825197  0.38445079  1
  H  H92  1  0.37239187  0.77903195  0.39329272  1
  H  H93  1  0.87449097  0.11144334  0.38989276  1
  H  H94  1  0.87660079  0.44607901  0.38470631  1
  H  H95  1  0.87014625  0.77657896  0.39934143  1
  H  H96  1  0.38101808  0.27736998  0.39912421  1
  H  H97  1  0.37549152  0.61224981  0.39011230  1
  H  H98  1  0.37755881  0.94482796  0.39327205  1
  H  H99  1  0.88019523  0.27718860  0.39529646  1
  H  H100  1  0.87571452  0.61385483  0.39003339  1
  H  H101  1  0.87179380  0.94686442  0.38302086  1
  H  H102  1  0.12547131  0.05454539  0.88906931  1
  H  H103  1  0.11999821  0.38977337  0.89910255  1
  H  H104  1  0.12313020  0.72051389  0.89033349  1
  H  H105  1  0.62765137  0.05107523  0.87810385  1
  H  H106  1  0.62438137  0.38843242  0.89052580  1
  H  H107  1  0.62516078  0.71914210  0.88598082  1
  H  H108  1  0.12498791  0.27917600  0.11104084  1
  H  H109  1  0.12932627  0.61443544  0.11910781  1
  H  H110  1  0.12429926  0.94636530  0.11319009  1
  H  H111  1  0.61990401  0.27674201  0.10330064  1
  H  H112  1  0.62894102  0.61349024  0.11592976  1
  H  H113  1  0.62524516  0.94505522  0.11011731  1
  H  H114  1  0.37308662  0.05055434  0.62165475  1
  H  H115  1  0.37195256  0.38782385  0.61130912  1
  H  H116  1  0.37803156  0.72006096  0.60770351  1
  H  H117  1  0.87873601  0.05727445  0.60070936  1
  H  H118  1  0.87396529  0.38643194  0.60975540  1
  H  H119  1  0.87707344  0.72204714  0.60654073  1
  H  H120  1  0.12643830  0.11139120  0.39449426  1
  H  H121  1  0.12975627  0.44287086  0.39850059  1
  H  H122  1  0.12393473  0.77884059  0.38751102  1
  H  H123  1  0.62568990  0.11399883  0.39140320  1
  H  H124  1  0.62741388  0.44556875  0.39200738  1
  H  H125  1  0.62210553  0.78145545  0.38450662  1
  H  H126  1  0.37534616  0.22194615  0.89188481  1
  H  H127  1  0.36740523  0.55767900  0.89956885  1
  H  H128  1  0.37535079  0.88602406  0.88841946  1
  H  H129  1  0.87735748  0.21888377  0.88052256  1
  H  H130  1  0.86989977  0.55562367  0.89604859  1
  H  H131  1  0.87195613  0.88714651  0.89147023  1
  H  H132  1  0.37457034  0.11491133  0.11740730  1
  H  H133  1  0.37717193  0.44706680  0.11885506  1
  H  H134  1  0.37389562  0.77831822  0.10691516  1
  H  H135  1  0.87121259  0.11201495  0.10730794  1
  H  H136  1  0.87563035  0.44420290  0.10930404  1
  H  H137  1  0.87482720  0.78167065  0.11408195  1
  H  H138  1  0.12055023  0.21751177  0.61942011  1
  H  H139  1  0.12554825  0.55360862  0.61124573  1
  H  H140  1  0.13037677  0.89034496  0.60241778  1
  H  H141  1  0.62479310  0.22020266  0.61490904  1
  H  H142  1  0.62505428  0.55402053  0.60987968  1
  H  H143  1  0.62399548  0.88625318  0.61518851  1
  H  H144  1  0.92341936  0.07433741  1.00076204  1
  H  H145  1  0.15005714  0.24643901  0.50637114  1
  H  H146  1  0.07225043  0.06846086  0.99711119  1
  H  H147  1  0.33290058  0.91224832  0.99366709  1
  H  H148  1  0.18118070  0.41753690  -0.00157110  1
  H  H149  1  0.58562735  0.74782544  0.50607340  1
  H  H150  1  0.17651677  0.09591929  -0.00220531  1
  H  H151  1  0.17393352  0.58052557  0.50151311  1
  H  H152  1  0.68257478  0.41844080  0.49998824  1
  H  H153  1  0.65892994  0.91365462  0.50881569  1
  H  H154  1  0.93563209  0.58735636  -0.00370590  1
  H  H155  1  0.08165699  0.74775223  0.50489725  1
  H  H156  1  0.55728264  0.25105119  -0.00119027  1
  H  H157  1  0.94528687  0.08148563  0.49694532  1
  H  H158  1  0.69953354  0.24822861  1.00120038  1
  H  H159  1  0.44705433  0.08159294  1.00335241  1
  H  H160  1  0.82611201  0.41654449  0.00075153  1
  H  H161  1  0.35084152  0.91420192  0.50767557  1
  H  H162  1  0.17246741  0.91384626  1.00068974  1
  H  H163  1  0.57320597  0.41728197  0.99450572  1
  H  H164  1  0.44684011  0.25188623  0.50221171  1
  H  H165  1  0.66981879  0.75228161  0.00125949  1
  H  H166  1  0.07294849  0.74983118  1.00057072  1
  H  H167  1  0.83652748  0.75343921  0.00297662  1
  H  H168  1  0.40206076  0.07794600  0.50810016  1
  H  H169  1  0.30084990  0.58423528  1.00221730  1
  H  H170  1  0.42748189  0.74853060  0.49822074  1
  H  H171  1  0.05252016  0.91839075  0.50135351  1
  H  H172  1  0.65344746  0.08587863  0.00855737  1
  H  H173  1  0.92157364  0.41379868  0.50468383  1
  H  H174  1  0.68032813  0.07489483  0.49116019  1
  H  H175  1  0.05364521  0.41290802  1.00276607  1
  H  H176  1  0.41577601  0.41670878  0.50628630  1
  H  H177  1  0.09907862  0.58752991  0.00614501  1
  H  H178  1  0.19398966  0.91178133  0.49833109  1
  H  H179  1  0.34305627  0.41845187  0.00657334  1
  H  H180  1  0.31214253  0.24700501  0.49542969  1
  H  H181  1  0.82162997  0.10323025  0.49769371  1
  H  H182  1  0.56252807  0.07860845  0.49515067  1
  H  H183  1  0.44705702  0.58685794  -0.00135607  1
  H  H184  1  0.33375774  0.09155818  0.00295808  1
  H  H185  1  0.82581697  0.58313139  0.50232995  1
  H  H186  1  0.58184417  0.91595417  0.00515025  1
  H  H187  1  0.80864079  0.58289061  1.00038235  1
  H  H188  1  0.81333084  0.08736537  -0.00347352  1
  H  H189  1  0.82194429  0.91518239  1.00177954  1
  H  H190  1  0.91897216  0.25130815  0.00078241  1
  H  H191  1  0.66058298  0.24867675  0.50134736  1
  Pb  Pb192  1  0.24961067  0.04670231  0.75497617  1
  Pb  Pb193  1  0.24853988  0.38356310  0.75252230  1
  Pb  Pb194  1  0.25073518  0.71208211  0.75008612  1
  Pb  Pb195  1  0.75196353  0.04813582  0.74382749  1
  Pb  Pb196  1  0.74920110  0.38204384  0.74815560  1
  Pb  Pb197  1  0.74984886  0.71286915  0.75010589  1
  Pb  Pb198  1  0.25110934  0.28774707  0.25404539  1
  Pb  Pb199  1  0.25223196  0.61723020  0.24784199  1
  Pb  Pb200  1  0.24970662  0.95104441  0.25169173  1
  Pb  Pb201  1  0.74959462  0.28674140  0.24646134  1
  Pb  Pb202  1  0.75193774  0.61920630  0.24860693  1
  Pb  Pb203  1  0.74859302  0.95140764  0.24938173  1
  Pb  Pb204  1  0.00063812  0.21506381  0.75036494  1
  Pb  Pb205  1  -0.00157320  0.54795955  0.75122477  1
  Pb  Pb206  1  0.00141084  0.87917775  0.74519477  1
  Pb  Pb207  1  0.49831424  0.21620198  0.75006174  1
  Pb  Pb208  1  0.49880824  0.54831816  0.75386414  1
  Pb  Pb209  1  0.50030926  0.87893087  0.75383600  1
  Pb  Pb210  1  -0.00077697  0.11855836  0.24894686  1
  Pb  Pb211  1  0.00037702  0.45140735  0.24892281  1
  Pb  Pb212  1  0.00029628  0.78499464  0.25330048  1
  Pb  Pb213  1  0.49905180  0.11940827  0.25212008  1
  Pb  Pb214  1  0.50262524  0.45326741  0.25152108  1
  Pb  Pb215  1  0.49930946  0.78420550  0.25262798  1
  C  C216  1  -0.00078237  0.04708440  0.63254909  1
  C  C217  1  -0.00112591  0.38040320  0.63213299  1
  C  C218  1  0.00084420  0.71365948  0.63158658  1
  C  C219  1  0.50010063  0.04659412  0.63457234  1
  C  C220  1  0.49694053  0.38094094  0.63264994  1
  C  C221  1  0.50232946  0.71343528  0.63248138  1
  C  C222  1  -0.00007507  0.28610955  0.13349026  1
  C  C223  1  0.00306157  0.61970390  0.13405101  1
  C  C224  1  -0.00058618  0.95291702  0.13297083  1
  C  C225  1  0.49816458  0.28661203  0.13266245  1
  C  C226  1  0.50235021  0.62026589  0.13295417  1
  C  C227  1  0.50050473  0.95220231  0.13167550  1
  C  C228  1  0.00128054  0.04556683  0.86559703  1
  C  C229  1  -0.00043580  0.37980259  0.86720242  1
  C  C230  1  0.00033448  0.71389884  0.86556542  1
  C  C231  1  0.50003132  0.04646485  0.86383913  1
  C  C232  1  0.50059104  0.38078938  0.86610548  1
  C  C233  1  0.49899722  0.71381128  0.86709731  1
  C  C234  1  0.00288601  0.28681194  0.36794830  1
  C  C235  1  0.00008309  0.62018545  0.36486281  1
  C  C236  1  -0.00112698  0.95269611  0.36677535  1
  C  C237  1  0.50169962  0.28690160  0.36728823  1
  C  C238  1  0.50033908  0.61923471  0.36758921  1
  C  C239  1  0.50029049  0.95231687  0.36805634  1
  C  C240  1  0.24739184  0.21350320  0.63376839  1
  C  C241  1  0.25043263  0.54718160  0.63397586  1
  C  C242  1  0.25135684  0.87970638  0.63334706  1
  C  C243  1  0.74975823  0.21405289  0.63189891  1
  C  C244  1  0.74973300  0.54742143  0.63430597  1
  C  C245  1  0.75047346  0.88053682  0.63168698  1
  C  C246  1  0.24879028  0.11978817  0.13587995  1
  C  C247  1  0.25088607  0.45275699  0.13475574  1
  C  C248  1  0.25056424  0.78653865  0.13436881  1
  C  C249  1  0.74903145  0.12000825  0.13529059  1
  C  C250  1  0.75174007  0.45296779  0.13395673  1
  C  C251  1  0.74959188  0.78691694  0.13422181  1
  C  C252  1  0.25120419  0.21441068  0.86611439  1
  C  C253  1  0.24701522  0.54751762  0.86729366  1
  C  C254  1  0.25021792  0.87972935  0.86678089  1
  C  C255  1  0.74974589  0.21384925  0.86547418  1
  C  C256  1  0.74775256  0.54756050  0.86702673  1
  C  C257  1  0.74921293  0.88008128  0.86642599  1
  C  C258  1  0.24896909  0.11966042  0.36521206  1
  C  C259  1  0.25119302  0.45304775  0.36838229  1
  C  C260  1  0.24924678  0.78616196  0.36516966  1
  C  C261  1  0.74992914  0.11955218  0.36746874  1
  C  C262  1  0.75063963  0.45300795  0.36499633  1
  C  C263  1  0.74877716  0.78640347  0.36860949  1
  C  C264  1  0.78609322  0.23883006  0.53717093  1
  C  C265  1  0.54688453  0.92746762  0.45985156  1
  C  C266  1  0.21179130  0.90464733  0.96104143  1
  C  C267  1  0.21176375  0.09873076  0.04010646  1
  C  C268  1  0.05347275  0.59671173  0.04195809  1
  C  C269  1  0.19583587  0.23699021  0.54233678  1
  C  C270  1  0.04222522  0.92883711  0.03996685  1
  C  C271  1  0.96253630  0.74161732  0.53729435  1
  C  C272  1  0.55719927  0.26079054  0.45708711  1
  C  C273  1  0.95884551  0.07063992  0.95861155  1
  C  C274  1  0.71057058  0.76226557  0.03939082  1
  C  C275  1  0.44723797  0.06888827  0.54342651  1
  C  C276  1  0.96075815  0.92867683  0.03892489  1
  C  C277  1  0.27789380  0.23767231  0.53727292  1
  C  C278  1  0.71908949  0.42816041  0.45945700  1
  C  C279  1  0.29385123  0.09818372  0.04226024  1
  C  C280  1  0.46860370  0.74225110  0.96094235  1
  C  C281  1  0.21748569  0.42787296  0.03892837  1
  C  C282  1  0.47751818  0.07163510  0.95995230  1
  C  C283  1  0.21300696  0.57137480  0.54072602  1
  C  C284  1  0.77948985  0.09580490  0.03876085  1
  C  C285  1  0.78633867  0.42700459  0.04018575  1
  C  C286  1  0.04097061  0.26114986  0.03983075  1
  C  C287  1  0.69774572  0.09605713  0.04410320  1
  C  C288  1  0.95940585  0.26118129  0.03895314  1
  C  C289  1  0.69696826  0.57310798  0.95864136  1
  C  C290  1  0.46041177  0.92427377  0.03758890  1
  C  C291  1  0.77535636  0.75784315  0.46330098  1
  C  C292  1  0.70128472  0.90421588  0.95849868  1
  C  C293  1  0.78286345  0.90514914  0.96241601  1
  C  C294  1  0.29955644  0.42854453  0.04273756  1
  C  C295  1  0.46491760  0.73879825  0.53818099  1
  C  C296  1  0.30499105  0.90544545  0.54395710  1
  C  C297  1  0.79281190  0.76288807  0.04033343  1
  C  C298  1  0.19113011  0.57348259  0.95676101  1
  C  C299  1  0.70450862  0.23878952  0.53838498  1
  C  C300  1  0.95320323  0.73779523  0.95766393  1
  C  C301  1  0.05417595  0.07403321  0.54291533  1
  C  C302  1  0.04631679  0.25884432  0.45918468  1
  C  C303  1  0.52897867  0.06981200  0.53741531  1
  C  C304  1  0.78685808  0.57266307  0.54125078  1
  C  C305  1  0.46548865  0.92688113  0.46257072  1
  C  C306  1  0.44633730  0.25996392  0.04185897  1
  C  C307  1  0.53582161  0.59148446  0.46040622  1
  C  C308  1  0.29884621  0.42728482  0.45903659  1
  C  C309  1  0.03456676  0.73921398  0.96141083  1
  C  C310  1  0.97160486  0.59622019  0.03742132  1
  C  C311  1  0.94399291  0.40564373  0.95694400  1
  N  N312  1  0.03851990  0.59441594  0.45874136  1
  N  N313  1  0.54626650  0.74104782  0.95942678  1
  N  N314  1  0.72790804  0.23948502  0.95998288  1
  N  N315  1  0.79031091  0.09173034  0.45858470  1
  N  N316  1  0.28898054  0.23762561  0.96096042  1
  N  N317  1  0.53495428  0.40645929  0.53832372  1
  N  N318  1  0.20668376  0.76204142  0.45861478  1
  N  N319  1  0.22136451  0.42508833  0.46481137  1
  N  N320  1  0.52512543  0.25942939  0.03837183  1
  N  N321  1  0.70671066  0.42773064  0.04045366  1
  N  N322  1  0.29233499  0.09496935  0.45826691  1
  N  N323  1  0.45845242  0.59197140  0.46128737  1
  N  N324  1  0.03861725  0.07403031  0.95786361  1
  N  N325  1  0.77584149  0.57323398  0.96158291  1
  N  N326  1  0.26981004  0.57477497  0.96239570  1
  N  N327  1  0.21279239  0.23779511  0.96075364  1
  N  N328  1  0.28501449  0.76045098  0.03973114  1
  N  N329  1  0.22547498  0.90883502  0.53917277  1
  N  N330  1  0.53635737  0.40448814  0.95871618  1
  N  N331  1  0.28363807  0.76204632  0.46056683  1
  N  N332  1  0.54460486  0.73962850  0.54096987  1
  N  N333  1  0.78093473  0.90627454  0.53574418  1
  N  N334  1  0.94539774  0.92854055  0.45693736  1
  N  N335  1  0.70300141  0.90540688  0.54262125  1
  N  N336  1  0.04164355  0.74020504  0.53995858  1
  N  N337  1  0.95978056  0.40492704  0.54090524  1
  N  N338  1  0.29155664  0.90488218  0.95879538  1
  N  N339  1  0.70751014  0.57231470  0.54010391  1
  N  N340  1  0.47817534  0.25974339  0.46218868  1
  N  N341  1  0.45642589  0.40568349  0.54144538  1
  N  N342  1  0.71096797  0.10251748  0.46168817  1
  N  N343  1  0.29230270  0.57222964  0.53972168  1
  N  N344  1  0.55619325  0.06995479  0.95380141  1
  N  N345  1  0.80553604  0.23731845  0.95475827  1
  N  N346  1  0.47699069  0.59362182  0.03948304  1
  N  N347  1  0.55480694  0.59485201  0.04283423  1
  N  N348  1  0.53973640  0.92545966  0.03946176  1
  N  N349  1  0.79857212  0.42806444  0.45762747  1
  N  N350  1  0.97559498  0.07434317  0.53762295  1
  N  N351  1  0.20842904  0.76141117  0.04124550  1
  N  N352  1  0.96151689  0.59497413  0.45885099  1
  N  N353  1  0.21625919  0.09484242  0.46079813  1
  N  N354  1  0.96881411  0.25740986  0.46303285  1
  N  N355  1  0.69783318  0.75945698  0.45993407  1
  N  N356  1  0.02315893  0.92738733  0.46072639  1
  N  N357  1  0.45801817  0.40503837  0.95968944  1
  N  N358  1  0.03787752  0.40623819  0.53814782  1
  N  N359  1  0.02291011  0.40655812  0.96219331  1
  N  N360  1  0.06898662  0.05757526  0.60160944  1
  N  N361  1  0.06168370  0.39087380  0.59530282  1
  N  N362  1  0.06599464  0.72275867  0.59800393  1
  N  N363  1  0.56071648  0.05606718  0.59472172  1
  N  N364  1  0.55934314  0.39067093  0.59528017  1
  N  N365  1  0.56735145  0.72358833  0.59892081  1
  N  N366  1  0.42940412  0.27652066  0.10019068  1
  N  N367  1  0.44322053  0.61101897  0.09320036  1
  N  N368  1  0.43610982  0.94109135  0.09473055  1
  N  N369  1  0.93500731  0.27677648  0.09849705  1
  N  N370  1  0.94156290  0.61038283  0.09518109  1
  N  N371  1  0.93524957  0.94331922  0.09606845  1
  N  N372  1  0.44138241  0.05757690  0.90502943  1
  N  N373  1  0.43655661  0.38950232  0.90205385  1
  N  N374  1  0.43708330  0.72568690  0.90569983  1
  N  N375  1  0.93538782  0.05526950  0.90102642  1
  N  N376  1  0.92962150  0.38981616  0.89792113  1
  N  N377  1  0.93279287  0.72260997  0.89973769  1
  N  N378  1  0.06981457  0.27652070  0.40156987  1
  N  N379  1  0.06340097  0.60985994  0.40052534  1
  N  N380  1  0.05768751  0.94332959  0.40680148  1
  N  N381  1  0.57165208  0.27711788  0.39813758  1
  N  N382  1  0.56447735  0.60813417  0.40413932  1
  N  N383  1  0.56717658  0.94292529  0.40162163  1
  N  N384  1  0.30863866  0.22316377  0.59447748  1
  N  N385  1  0.31392091  0.55705158  0.59817409  1
  N  N386  1  0.32088335  0.88897390  0.60273344  1
  N  N387  1  0.81321521  0.22414583  0.59345635  1
  N  N388  1  0.81435970  0.55754344  0.59873723  1
  N  N389  1  0.81011413  0.89102083  0.59171375  1
  N  N390  1  0.18487062  0.11160719  0.09880519  1
  N  N391  1  0.18859398  0.44305478  0.09658991  1
  N  N392  1  0.18585182  0.77771844  0.09981539  1
  N  N393  1  0.68039072  0.11102533  0.10414626  1
  N  N394  1  0.68722282  0.44380185  0.09940658  1
  N  N395  1  0.68529285  0.77714621  0.09811803  1
  N  N396  1  0.18774794  0.22407433  0.90198454  1
  N  N397  1  0.17682154  0.55685830  0.89784409  1
  N  N398  1  0.18601083  0.88959376  0.90365180  1
  N  N399  1  0.69214512  0.22401519  0.90629934  1
  N  N400  1  0.67928389  0.55720089  0.90017458  1
  N  N401  1  0.68157725  0.88910074  0.90028808  1
  N  N402  1  0.31418809  0.11009075  0.39895053  1
  N  N403  1  0.31939409  0.44394010  0.40055503  1
  N  N404  1  0.31094006  0.77711027  0.40292070  1
  N  N405  1  0.81418896  0.11395044  0.40324927  1
  N  N406  1  0.81634530  0.44366805  0.39817895  1
  N  N407  1  0.80899294  0.77424585  0.40872531  1
  N  N408  1  0.44309029  0.27700833  0.40721483  1
  N  N409  1  0.43603742  0.60947898  0.40214690  1
  N  N410  1  0.43752717  0.94209302  0.40617794  1
  N  N411  1  0.94167036  0.27516324  0.40485454  1
  N  N412  1  0.93673866  0.61094729  0.40085419  1
  N  N413  1  0.93090880  0.94315273  0.39781119  1
  N  N414  1  0.06469746  0.05444157  0.90120764  1
  N  N415  1  0.05816944  0.38877438  0.90747721  1
  N  N416  1  0.06288078  0.72402112  0.90277348  1
  N  N417  1  0.56856608  0.05438284  0.89376253  1
  N  N418  1  0.56357838  0.39145394  0.90164157  1
  N  N419  1  0.56520081  0.72311165  0.89940283  1
  N  N420  1  0.06510023  0.27603978  0.09686795  1
  N  N421  1  0.07130884  0.61120187  0.10236218  1
  N  N422  1  0.06516964  0.94349611  0.09771914  1
  N  N423  1  0.55829489  0.27698594  0.09389590  1
  N  N424  1  0.57001948  0.61029870  0.10168609  1
  N  N425  1  0.56489013  0.94283546  0.09730215  1
  N  N426  1  0.43095721  0.05468642  0.60386529  1
  N  N427  1  0.43225395  0.39082499  0.59860312  1
  N  N428  1  0.43844967  0.72316415  0.59517364  1
  N  N429  1  0.94037506  0.05619002  0.59240470  1
  N  N430  1  0.93433926  0.38921691  0.59765150  1
  N  N431  1  0.93712641  0.72527881  0.59391875  1
  N  N432  1  0.18783953  0.10990977  0.40338246  1
  N  N433  1  0.19153275  0.44162749  0.40699583  1
  N  N434  1  0.18446518  0.77661016  0.39946843  1
  N  N435  1  0.68628440  0.10747213  0.40216650  1
  N  N436  1  0.68835663  0.44306600  0.40302664  1
  N  N437  1  0.68127675  0.77763828  0.39937001  1
  N  N438  1  0.31441729  0.22298699  0.90234458  1
  N  N439  1  0.30523901  0.55772374  0.90743340  1
  N  N440  1  0.31485216  0.88917949  0.90087749  1
  N  N441  1  0.81840222  0.22258091  0.89572604  1
  N  N442  1  0.80831462  0.55725894  0.90532740  1
  N  N443  1  0.81162200  0.88994849  0.90392553  1
  N  N444  1  0.31542241  0.11090788  0.10205565  1
  N  N445  1  0.31865355  0.44396977  0.10239878  1
  N  N446  1  0.31243427  0.77554687  0.09735626  1
  N  N447  1  0.81032925  0.11047152  0.09604167  1
  N  N448  1  0.81514624  0.44237331  0.09731453  1
  N  N449  1  0.81538681  0.77809886  0.09967045  1
  N  N450  1  0.17872620  0.22215825  0.60265697  1
  N  N451  1  0.18564879  0.55642471  0.59830451  1
  N  N452  1  0.19239034  0.88998846  0.59374396  1
  N  N453  1  0.68321401  0.22307436  0.59873346  1
  N  N454  1  0.68611911  0.55671344  0.59851569  1
  N  N455  1  0.68339753  0.89020614  0.60056727  1
  Cl  Cl456  1  0.24944870  0.04824401  0.62548633  1
  Cl  Cl457  1  0.24910973  0.38558892  0.62098137  1
  Cl  Cl458  1  0.25040378  0.71993568  0.61848372  1
  Cl  Cl459  1  0.75258577  0.05990565  0.60144225  1
  Cl  Cl460  1  0.74796030  0.38611481  0.61435876  1
  Cl  Cl461  1  0.75125774  0.71977033  0.61833800  1
  Cl  Cl462  1  0.24784418  0.28230322  0.12635334  1
  Cl  Cl463  1  0.26117430  0.60801131  0.10791124  1
  Cl  Cl464  1  0.25288826  0.94501192  0.11686518  1
  Cl  Cl465  1  0.74165932  0.27604579  0.10841962  1
  Cl  Cl466  1  0.75720298  0.60940778  0.11150361  1
  Cl  Cl467  1  0.74879428  0.94617862  0.11753153  1
  Cl  Cl468  1  0.25164200  0.05323644  0.89088873  1
  Cl  Cl469  1  0.24687389  0.39091331  0.88865019  1
  Cl  Cl470  1  0.25141695  0.71554109  0.88121146  1
  Cl  Cl471  1  0.75298864  0.05338186  0.87705802  1
  Cl  Cl472  1  0.74704164  0.38597747  0.88276264  1
  Cl  Cl473  1  0.74953245  0.71686012  0.88392312  1
  Cl  Cl474  1  0.25783335  0.27980733  0.38918109  1
  Cl  Cl475  1  0.24782894  0.61232752  0.38034379  1
  Cl  Cl476  1  0.24232511  0.94069557  0.39330279  1
  Cl  Cl477  1  0.75421919  0.27889736  0.37883045  1
  Cl  Cl478  1  0.75224114  0.61523014  0.38114343  1
  Cl  Cl479  1  0.74868641  0.95050696  0.38190936  1
  Cl  Cl480  1  -0.00399431  0.21323742  0.62239932  1
  Cl  Cl481  1  -0.00090089  0.55243165  0.62163883  1
  Cl  Cl482  1  0.00605498  0.88893089  0.60481785  1
  Cl  Cl483  1  0.49269512  0.22482275  0.61392554  1
  Cl  Cl484  1  0.50042733  0.55117626  0.62243948  1
  Cl  Cl485  1  0.50305847  0.88349356  0.62215944  1
  Cl  Cl486  1  -0.00204783  0.11007562  0.11352995  1
  Cl  Cl487  1  0.00293883  0.44139463  0.11144994  1
  Cl  Cl488  1  0.00198640  0.78250931  0.12101022  1
  Cl  Cl489  1  0.49741912  0.11692819  0.11950039  1
  Cl  Cl490  1  0.50333678  0.44558039  0.11691423  1
  Cl  Cl491  1  0.49729064  0.78429290  0.12095444  1
  Cl  Cl492  1  0.00228138  0.21894866  0.88554025  1
  Cl  Cl493  1  -0.00742782  0.55165387  0.88709679  1
  Cl  Cl494  1  0.00038003  0.88566285  0.87600642  1
  Cl  Cl495  1  0.50720226  0.22578868  0.89427975  1
  Cl  Cl496  1  0.48958045  0.55686856  0.89230162  1
  Cl  Cl497  1  0.49816172  0.88681444  0.88910235  1
  Cl  Cl498  1  -0.00263657  0.10777536  0.39220209  1
  Cl  Cl499  1  0.00172599  0.44398190  0.38204164  1
  Cl  Cl500  1  -0.00058149  0.77880461  0.38972668  1
  Cl  Cl501  1  0.50229162  0.11522253  0.38742681  1
  Cl  Cl502  1  0.50224885  0.44566543  0.38431067  1
  Cl  Cl503  1  0.49623966  0.77821050  0.38932831  1
  Cl  Cl504  1  0.36300695  0.14336406  0.75070648  1
  Cl  Cl505  1  0.36180078  0.47541564  0.75040771  1
  Cl  Cl506  1  0.36310142  0.81097798  0.74994494  1
  Cl  Cl507  1  0.86103830  0.14290303  0.75196414  1
  Cl  Cl508  1  0.86147864  0.47514820  0.75131175  1
  Cl  Cl509  1  0.86203940  0.81057977  0.74890672  1
  Cl  Cl510  1  0.13685559  0.19020996  0.25038956  1
  Cl  Cl511  1  0.13811492  0.52417559  0.24868345  1
  Cl  Cl512  1  0.13832459  0.85843226  0.25047935  1
  Cl  Cl513  1  0.63715077  0.19003596  0.25033141  1
  Cl  Cl514  1  0.63782746  0.52396885  0.24733406  1
  Cl  Cl515  1  0.63837571  0.85791384  0.25271608  1
  Cl  Cl516  1  0.13670183  0.14231658  0.75069256  1
  Cl  Cl517  1  0.13725661  0.47612044  0.75288142  1
  Cl  Cl518  1  0.13780681  0.81092803  0.74936780  1
  Cl  Cl519  1  0.63884529  0.14232309  0.74829606  1
  Cl  Cl520  1  0.63738245  0.47634844  0.75174388  1
  Cl  Cl521  1  0.63641169  0.81016579  0.75065723  1
  Cl  Cl522  1  0.36357640  0.18987031  0.25058270  1
  Cl  Cl523  1  0.36301994  0.52370756  0.24917791  1
  Cl  Cl524  1  0.36142785  0.85887475  0.25092409  1
  Cl  Cl525  1  0.86163823  0.18864864  0.24988443  1
  Cl  Cl526  1  0.86253975  0.52379848  0.25027576  1
  Cl  Cl527  1  0.86190047  0.85759146  0.25110710  1
  Cl  Cl528  1  0.10823383  0.30919418  0.74872557  1
  Cl  Cl529  1  0.11230445  0.64261985  0.75015498  1
  Cl  Cl530  1  0.11329345  0.97675760  0.74800426  1
  Cl  Cl531  1  0.61050210  0.30934254  0.74998044  1
  Cl  Cl532  1  0.61307675  0.64277981  0.75125305  1
  Cl  Cl533  1  0.61334229  0.97655497  0.75218998  1
  Cl  Cl534  1  0.38869867  0.02361433  0.24969039  1
  Cl  Cl535  1  0.38765462  0.35642818  0.24806568  1
  Cl  Cl536  1  0.38852199  0.69082022  0.25145896  1
  Cl  Cl537  1  0.88774962  0.02436263  0.25302702  1
  Cl  Cl538  1  0.88660507  0.35733738  0.25051672  1
  Cl  Cl539  1  0.88813876  0.69122115  0.24850897  1
  Cl  Cl540  1  0.39032614  0.30893138  0.75105810  1
  Cl  Cl541  1  0.38762244  0.64305652  0.74919759  1
  Cl  Cl542  1  0.38739294  0.97665359  0.74921704  1
  Cl  Cl543  1  0.88615645  0.30896457  0.75280999  1
  Cl  Cl544  1  0.88700555  0.64389266  0.75156371  1
  Cl  Cl545  1  0.88786237  0.97794328  0.74834803  1
  Cl  Cl546  1  0.11149120  0.02440106  0.24846869  1
  Cl  Cl547  1  0.11309954  0.35694362  0.24920849  1
  Cl  Cl548  1  0.11234101  0.69098962  0.24843403  1
  Cl  Cl549  1  0.61253869  0.02396878  0.25063026  1
  Cl  Cl550  1  0.61372023  0.35652912  0.25125196  1
  Cl  Cl551  1  0.61178864  0.69105413  0.24790641  1
