# generated using pymatgen
data_H8PbC4(N3Cl2)2
_symmetry_space_group_name_H-M   'P 1'
_cell_length_a   16.62590276
_cell_length_b   22.51259636
_cell_length_c   21.59219074
_cell_angle_alpha   90.00147656
_cell_angle_beta   89.98694506
_cell_angle_gamma   89.99468175
_symmetry_Int_Tables_number   1
_chemical_formula_structural   H8PbC4(N3Cl2)2
_chemical_formula_sum   'H192 Pb24 C96 N144 Cl96'
_cell_volume   8081.78914716
_cell_formula_units_Z   24
loop_
 _symmetry_equiv_pos_site_id
 _symmetry_equiv_pos_as_xyz
  1  'x, y, z'
loop_
 _atom_site_type_symbol
 _atom_site_label
 _atom_site_symmetry_multiplicity
 _atom_site_fract_x
 _atom_site_fract_y
 _atom_site_fract_z
 _atom_site_occupancy
  H  H0  1  -0.00138764  0.02922945  0.67414272  1
  H  H1  1  0.00432245  0.36103708  0.68181023  1
  H  H2  1  -0.00394994  0.69746875  0.67931015  1
  H  H3  1  0.49376743  0.03226203  0.67850110  1
  H  H4  1  0.49696993  0.36456713  0.67656604  1
  H  H5  1  0.50350412  0.69637423  0.67701767  1
  H  H6  1  0.00030124  0.30460929  0.17560425  1
  H  H7  1  -0.00844841  0.63441043  0.17608458  1
  H  H8  1  -0.00412778  0.97152915  0.17616273  1
  H  H9  1  0.50786582  0.30059515  0.17902304  1
  H  H10  1  0.50429698  0.63879544  0.17651435  1
  H  H11  1  0.49221271  0.96915237  0.17813789  1
  H  H12  1  0.01458237  0.03101730  0.82560895  1
  H  H13  1  -0.00039040  0.36353137  0.82056748  1
  H  H14  1  -0.00032107  0.69371707  0.82248989  1
  H  H15  1  0.49046418  0.02806419  0.82340527  1
  H  H16  1  0.50505755  0.36488317  0.82147455  1
  H  H17  1  0.49726019  0.69507449  0.82251404  1
  H  H18  1  0.01173292  0.29892992  0.31864135  1
  H  H19  1  -0.01507717  0.63539479  0.32085597  1
  H  H20  1  -0.00863887  0.97076032  0.32091693  1
  H  H21  1  0.48630773  0.30618963  0.32463564  1
  H  H22  1  0.51542717  0.63485389  0.31833207  1
  H  H23  1  0.50222156  0.97000203  0.32229611  1
  H  H24  1  0.25043498  0.19325909  0.68172355  1
  H  H25  1  0.25020411  0.52967225  0.67954455  1
  H  H26  1  0.23710737  0.86168144  0.68136388  1
  H  H27  1  0.74776120  0.19419686  0.67889176  1
  H  H28  1  0.74572826  0.53064662  0.68374498  1
  H  H29  1  0.75875248  0.86505490  0.68002926  1
  H  H30  1  0.25710986  0.13659537  0.18098585  1
  H  H31  1  0.24514108  0.47039187  0.17550447  1
  H  H32  1  0.24337360  0.80286581  0.17893427  1
  H  H33  1  0.74689376  0.13270722  0.17880937  1
  H  H34  1  0.74505609  0.47599293  0.17645067  1
  H  H35  1  0.75408157  0.80427952  0.18004847  1
  H  H36  1  0.26714506  0.19692304  0.82558431  1
  H  H37  1  0.25882518  0.53136360  0.82382206  1
  H  H38  1  0.25668243  0.86562778  0.82217154  1
  H  H39  1  0.73610754  0.19841837  0.81864218  1
  H  H40  1  0.74373754  0.53077624  0.82316611  1
  H  H41  1  0.73895416  0.86238028  0.81904527  1
  H  H42  1  0.25201755  0.13589119  0.32012035  1
  H  H43  1  0.23039251  0.47266970  0.32121770  1
  H  H44  1  0.25213776  0.80111583  0.32551192  1
  H  H45  1  0.75955863  0.13909442  0.32649517  1
  H  H46  1  0.76672975  0.46962453  0.32052455  1
  H  H47  1  0.74553801  0.80169741  0.31833006  1
  H  H48  1  0.13215095  0.05261970  0.61343832  1
  H  H49  1  0.12650094  0.38780625  0.61089185  1
  H  H50  1  0.12136428  0.72128649  0.60803502  1
  H  H51  1  0.63170515  0.05140158  0.62220438  1
  H  H52  1  0.62611036  0.38517246  0.61368350  1
  H  H53  1  0.61570461  0.72427803  0.59748229  1
  H  H54  1  0.37111515  0.28075585  0.11987430  1
  H  H55  1  0.37820107  0.61338608  0.10768509  1
  H  H56  1  0.38069004  0.94133537  0.09902373  1
  H  H57  1  0.87502921  0.27806095  0.10860720  1
  H  H58  1  0.88221576  0.60738636  0.09368968  1
  H  H59  1  0.88278809  0.94385226  0.09830647  1
  H  H60  1  0.38384435  0.05857371  0.90574819  1
  H  H61  1  0.36478077  0.38288967  0.87438599  1
  H  H62  1  0.36567909  0.71843124  0.88565639  1
  H  H63  1  0.87528003  0.05157021  0.87909000  1
  H  H64  1  0.86554823  0.38836462  0.88082071  1
  H  H65  1  0.86641412  0.71776221  0.88222094  1
  H  H66  1  0.12100626  0.27579793  0.39951710  1
  H  H67  1  0.12949176  0.62186098  0.36864266  1
  H  H68  1  0.12868095  0.94904754  0.37817380  1
  H  H69  1  0.62585250  0.28290892  0.37560565  1
  H  H70  1  0.62326497  0.61000516  0.40047005  1
  H  H71  1  0.63014341  0.94662224  0.39024521  1
  H  H72  1  0.37413634  0.22338954  0.61187660  1
  H  H73  1  0.37004504  0.55617801  0.60467443  1
  H  H74  1  0.36894350  0.88410210  0.61660303  1
  H  H75  1  0.87296423  0.21856789  0.60761663  1
  H  H76  1  0.87293679  0.55275563  0.61715742  1
  H  H77  1  0.86466279  0.89273948  0.59630697  1
  H  H78  1  0.12121690  0.11437913  0.12099154  1
  H  H79  1  0.13697503  0.43911640  0.09522584  1
  H  H80  1  0.13889641  0.77495661  0.09438874  1
  H  H81  1  0.62470695  0.10995422  0.10505557  1
  H  H82  1  0.64017133  0.44524890  0.09162479  1
  H  H83  1  0.62845497  0.77967662  0.11202254  1
  H  H84  1  0.12753351  0.21624930  0.87940650  1
  H  H85  1  0.11953522  0.55123510  0.87704546  1
  H  H86  1  0.11781426  0.88459229  0.87668339  1
  H  H87  1  0.63558561  0.22467118  0.90489421  1
  H  H88  1  0.62101083  0.55615896  0.89416152  1
  H  H89  1  0.61844327  0.88693850  0.89337136  1
  H  H90  1  0.36700106  0.10917831  0.39670213  1
  H  H91  1  0.37349240  0.45110473  0.36769209  1
  H  H92  1  0.37698693  0.77998938  0.39340982  1
  H  H93  1  0.86378666  0.10767922  0.40918603  1
  H  H94  1  0.86856479  0.44061237  0.40659292  1
  H  H95  1  0.88171357  0.78134302  0.37854942  1
  H  H96  1  0.38092242  0.27516925  0.40854424  1
  H  H97  1  0.37688985  0.62020493  0.37265288  1
  H  H98  1  0.38050913  0.94520245  0.39408272  1
  H  H99  1  0.87422377  0.28185985  0.37505416  1
  H  H100  1  0.88600677  0.61042059  0.40800209  1
  H  H101  1  0.88302389  0.94383906  0.40461159  1
  H  H102  1  0.12032078  0.06264051  0.90776276  1
  H  H103  1  0.11334588  0.39109503  0.89791646  1
  H  H104  1  0.11417579  0.72371482  0.89970434  1
  H  H105  1  0.62906362  0.04849989  0.87796206  1
  H  H106  1  0.60975960  0.39532042  0.90561827  1
  H  H107  1  0.61419016  0.72171405  0.89873311  1
  H  H108  1  0.12423032  0.27779725  0.10566041  1
  H  H109  1  0.12857340  0.61485733  0.11657516  1
  H  H110  1  0.13113166  0.94832799  0.11656823  1
  H  H111  1  0.61766781  0.27531539  0.09553041  1
  H  H112  1  0.62735480  0.61114813  0.10670230  1
  H  H113  1  0.62796404  0.94877992  0.11836441  1
  H  H114  1  0.38424319  0.05722003  0.59897146  1
  H  H115  1  0.37760669  0.39073235  0.60291232  1
  H  H116  1  0.36801836  0.71987799  0.61869847  1
  H  H117  1  0.88393154  0.05910397  0.59798164  1
  H  H118  1  0.87703140  0.38547183  0.61373581  1
  H  H119  1  0.87283675  0.72169033  0.60583339  1
  H  H120  1  0.11895193  0.11483615  0.38359734  1
  H  H121  1  0.13089841  0.44034965  0.40807593  1
  H  H122  1  0.12853644  0.77893827  0.39361394  1
  H  H123  1  0.61922100  0.11841486  0.37877629  1
  H  H124  1  0.62431267  0.44860346  0.37127009  1
  H  H125  1  0.63403358  0.77616497  0.39896590  1
  H  H126  1  0.37246433  0.22769648  0.90878685  1
  H  H127  1  0.36469798  0.55963003  0.90842404  1
  H  H128  1  0.36339900  0.89291871  0.90647197  1
  H  H129  1  0.87920190  0.21243627  0.86767091  1
  H  H130  1  0.87025889  0.55538406  0.89193220  1
  H  H131  1  0.86744343  0.88680388  0.88591725  1
  H  H132  1  0.36855333  0.11028397  0.10044988  1
  H  H133  1  0.38222315  0.45435700  0.11644184  1
  H  H134  1  0.38456700  0.78405862  0.12607767  1
  H  H135  1  0.87313159  0.11190154  0.11032757  1
  H  H136  1  0.88410857  0.44930032  0.12436366  1
  H  H137  1  0.87715008  0.77742027  0.10759901  1
  H  H138  1  0.12455007  0.21661721  0.61349538  1
  H  H139  1  0.12160986  0.55433702  0.61431765  1
  H  H140  1  0.12052317  0.88775525  0.60430544  1
  H  H141  1  0.62461162  0.22366874  0.60753492  1
  H  H142  1  0.62313641  0.55178509  0.61231450  1
  H  H143  1  0.61893826  0.88432673  0.62477173  1
  H  H144  1  0.09786293  0.08314371  0.50596077  1
  H  H145  1  0.83229352  0.58142874  0.50520535  1
  H  H146  1  0.17049895  0.24173804  0.50118831  1
  H  H147  1  0.45007574  0.08681466  0.49174379  1
  H  H148  1  0.79163721  0.91997228  0.49335110  1
  H  H149  1  0.60625198  0.08601756  0.98225584  1
  H  H150  1  0.89617198  0.41399616  0.98944858  1
  H  H151  1  0.92397496  0.40283679  0.50492395  1
  H  H152  1  0.32241607  0.24096839  0.50417109  1
  H  H153  1  0.63580349  0.08610418  0.48933857  1
  H  H154  1  0.05081890  0.41899640  1.00571529  1
  H  H155  1  0.45901477  0.25152051  0.50846470  1
  H  H156  1  0.89665049  0.08398552  0.98751683  1
  H  H157  1  0.36582039  0.41962162  0.48096800  1
  H  H158  1  0.71242042  0.24900032  1.00885043  1
  H  H159  1  0.07640356  0.41544124  0.50071891  1
  H  H160  1  0.39423107  0.58967795  0.48598801  1
  H  H161  1  0.54708922  0.75111904  0.49512439  1
  H  H162  1  0.21235388  0.74619607  -0.00846596  1
  H  H163  1  0.53425832  0.42092036  1.00557098  1
  H  H164  1  0.54447380  0.24986580  -0.00485739  1
  H  H165  1  0.71820660  0.41822448  -0.00653738  1
  H  H166  1  0.36769436  0.75506789  0.01563013  1
  H  H167  1  0.30053988  0.08243014  -0.00465806  1
  H  H168  1  0.04849247  0.75111717  1.00252830  1
  H  H169  1  0.07653209  0.24823321  0.00167997  1
  H  H170  1  0.67252809  0.57516205  0.49979073  1
  H  H171  1  0.59128655  0.41499222  0.50046771  1
  H  H172  1  0.35874733  0.41740240  0.00899240  1
  H  H173  1  0.67295045  0.91666861  1.00012134  1
  H  H174  1  0.10354889  0.91951002  0.00793964  1
  H  H175  1  0.78933850  0.41252369  0.50776332  1
  H  H176  1  0.94546886  0.91233180  -0.00774502  1
  H  H177  1  0.70186178  0.74760526  0.50384673  1
  H  H178  1  0.05382883  0.24955591  0.50763164  1
  H  H179  1  0.55334117  0.58387868  0.50728196  1
  H  H180  1  0.10169340  0.58593689  0.00822215  1
  H  H181  1  0.18018082  0.91356072  0.49771856  1
  H  H182  1  0.21037356  0.42244908  -0.00746019  1
  H  H183  1  0.95752384  0.91608398  0.50395335  1
  H  H184  1  0.21216842  0.42180651  0.50668132  1
  H  H185  1  0.91320318  0.24472381  -0.00091791  1
  H  H186  1  0.42996939  0.91486801  0.50284123  1
  H  H187  1  0.67530893  0.74606716  0.00344026  1
  H  H188  1  0.96573423  0.58800115  0.51234976  1
  H  H189  1  0.45962699  0.07266542  1.00617296  1
  H  H190  1  0.15784472  0.58881367  0.50447870  1
  H  H191  1  0.58851751  0.91836325  0.49580445  1
  Pb  Pb192  1  0.25054253  0.04620966  0.75511121  1
  Pb  Pb193  1  0.24323588  0.38306053  0.74836356  1
  Pb  Pb194  1  0.24682034  0.71338877  0.75502215  1
  Pb  Pb195  1  0.75070945  0.04624142  0.74518938  1
  Pb  Pb196  1  0.74688840  0.37894481  0.75653913  1
  Pb  Pb197  1  0.74172387  0.71541011  0.74671128  1
  Pb  Pb198  1  0.25480858  0.28409333  0.25919883  1
  Pb  Pb199  1  0.25362192  0.61979799  0.24498031  1
  Pb  Pb200  1  0.25330236  0.95359317  0.24976405  1
  Pb  Pb201  1  0.74765264  0.28677584  0.24264792  1
  Pb  Pb202  1  0.75418242  0.61903022  0.25495089  1
  Pb  Pb203  1  0.75817045  0.95095627  0.25069861  1
  Pb  Pb204  1  0.00058264  0.21157140  0.74857507  1
  Pb  Pb205  1  -0.00719992  0.54953548  0.75179033  1
  Pb  Pb206  1  -0.00314707  0.88018850  0.74362485  1
  Pb  Pb207  1  0.49786157  0.21500620  0.75568336  1
  Pb  Pb208  1  0.49672289  0.54603884  0.75249630  1
  Pb  Pb209  1  0.49593644  0.88031539  0.75475348  1
  Pb  Pb210  1  -0.00074056  0.12065113  0.25526345  1
  Pb  Pb211  1  0.00125557  0.44885470  0.25884177  1
  Pb  Pb212  1  0.00778984  0.78487597  0.23851474  1
  Pb  Pb213  1  0.50490682  0.11696496  0.24432744  1
  Pb  Pb214  1  0.50364831  0.45426063  0.23731974  1
  Pb  Pb215  1  0.50392990  0.78641625  0.26004196  1
  C  C216  1  0.00538482  0.04605380  0.62744231  1
  C  C217  1  0.00201994  0.37674850  0.63421163  1
  C  C218  1  -0.00339979  0.71304610  0.63171468  1
  C  C219  1  0.50310735  0.04680457  0.63113653  1
  C  C220  1  0.50095160  0.37991219  0.62917924  1
  C  C221  1  0.49593298  0.71225526  0.63005963  1
  C  C222  1  0.00018434  0.28674545  0.12880833  1
  C  C223  1  0.00121859  0.61909036  0.12901797  1
  C  C224  1  0.00385491  0.95486636  0.12921325  1
  C  C225  1  0.49922015  0.28589138  0.13164486  1
  C  C226  1  0.50305599  0.62133161  0.12992861  1
  C  C227  1  0.50067327  0.95341764  0.13133385  1
  C  C228  1  0.00293692  0.04744609  0.87196125  1
  C  C229  1  -0.00805261  0.37932343  0.86779747  1
  C  C230  1  -0.00629120  0.71050366  0.86920764  1
  C  C231  1  0.50128836  0.04424962  0.87017402  1
  C  C232  1  0.49337354  0.37943415  0.86858144  1
  C  C233  1  0.49239075  0.71148312  0.86946419  1
  C  C234  1  0.00245837  0.28541364  0.36625690  1
  C  C235  1  0.00005813  0.62239371  0.36783153  1
  C  C236  1  0.00074104  0.95530402  0.36792295  1
  C  C237  1  0.49747396  0.28954867  0.37088374  1
  C  C238  1  0.50474369  0.62145941  0.36600654  1
  C  C239  1  0.50484902  0.95394467  0.36976592  1
  C  C240  1  0.25032233  0.21004562  0.63447618  1
  C  C241  1  0.24734749  0.54644901  0.63252302  1
  C  C242  1  0.24229740  0.87746153  0.63402862  1
  C  C243  1  0.74831334  0.21129946  0.63196371  1
  C  C244  1  0.74734639  0.54564185  0.63594714  1
  C  C245  1  0.74697132  0.88015223  0.63308321  1
  C  C246  1  0.24876967  0.12113339  0.13386788  1
  C  C247  1  0.25529678  0.45456529  0.12850403  1
  C  C248  1  0.25635842  0.78788706  0.13204412  1
  C  C249  1  0.74788346  0.11896662  0.13089812  1
  C  C250  1  0.75641131  0.45803508  0.13060302  1
  C  C251  1  0.75354865  0.78732145  0.13305325  1
  C  C252  1  0.25539269  0.21353158  0.87167196  1
  C  C253  1  0.24780500  0.54737879  0.87027287  1
  C  C254  1  0.24602209  0.88085844  0.86900742  1
  C  C255  1  0.75037715  0.21184278  0.86560450  1
  C  C256  1  0.74526282  0.54741961  0.87004666  1
  C  C257  1  0.74167476  0.87833200  0.86638962  1
  C  C258  1  0.24558312  0.12047326  0.36722144  1
  C  C259  1  0.24475557  0.45622296  0.36737762  1
  C  C260  1  0.25261789  0.78633924  0.37346776  1
  C  C261  1  0.74689337  0.12232321  0.37249825  1
  C  C262  1  0.75284821  0.45377098  0.36688107  1
  C  C263  1  0.75395937  0.78647243  0.36553936  1
  C  C264  1  0.95709235  0.25611124  0.03727434  1
  C  C265  1  0.01941269  0.40829190  0.96292457  1
  C  C266  1  0.44325770  0.59817968  0.45364850  1
  C  C267  1  0.23991037  0.75884034  0.03543211  1
  C  C268  1  0.18929383  0.57394117  0.95661374  1
  C  C269  1  0.76352077  0.42436912  0.46288978  1
  C  C270  1  0.94283145  0.26200567  0.45419261  1
  C  C271  1  0.74005749  0.23769592  0.96455003  1
  C  C272  1  0.46582978  0.40725026  0.53473894  1
  C  C273  1  0.70993642  0.57894240  0.96153691  1
  C  C274  1  0.54744830  0.40564128  0.53666151  1
  C  C275  1  0.43907265  0.74309000  0.54252343  1
  C  C276  1  0.81960810  0.23296175  0.95027019  1
  C  C277  1  0.04012005  0.40481548  0.54114459  1
  C  C278  1  0.20392336  0.57671971  0.54216180  1
  C  C279  1  0.27258205  0.08963538  0.46136409  1
  C  C280  1  0.76265516  0.90810441  0.53699908  1
  C  C281  1  0.79143062  0.57035821  0.54283575  1
  C  C282  1  0.47792785  0.92136537  0.03730318  1
  C  C283  1  0.97754440  0.92457085  0.03430101  1
  C  C284  1  0.52420121  0.59492110  0.46363468  1
  C  C285  1  0.44607025  0.74025032  0.95932754  1
  C  C286  1  0.21325424  0.75925466  0.46525525  1
  C  C287  1  0.56181588  0.25814003  0.45499254  1
  C  C288  1  0.71475044  0.75771156  0.04165923  1
  C  C289  1  0.07061009  0.60218147  0.45175248  1
  C  C290  1  0.73279341  0.75922473  0.46104610  1
  C  C291  1  0.02245541  0.08125430  0.96783705  1
  C  C292  1  0.27078292  0.24662475  0.96639173  1
  C  C293  1  0.48213110  0.07480793  0.53393183  1
  C  C294  1  0.56288821  0.07215539  0.54354294  1
  C  C295  1  0.21489997  0.90390204  0.53910983  1
  C  C296  1  0.70958660  0.56859776  0.54066979  1
  C  C297  1  0.42962475  0.40444322  0.95482585  1
  C  C298  1  0.97569831  0.07984136  0.53345915  1
  C  C299  1  0.53866879  0.58899550  0.03868319  1
  C  C300  1  0.29370512  0.75968544  0.46514177  1
  C  C301  1  0.93920011  0.74233217  0.95702065  1
  C  C302  1  0.02316169  0.26008895  0.46443585  1
  C  C303  1  0.20760413  0.23667723  0.54220894  1
  C  C304  1  0.18857510  0.90670859  0.95585578  1
  C  C305  1  0.99167332  0.59788586  0.46720929  1
  C  C306  1  0.71002328  0.90601734  0.96005913  1
  C  C307  1  0.31331075  0.42793394  0.44962260  1
  C  C308  1  0.76425792  0.08862343  0.46831953  1
  C  C309  1  0.78926318  0.09543008  0.03738212  1
  C  C310  1  0.46771616  0.92603351  0.46333693  1
  C  C311  1  0.27000300  0.09337965  0.03847818  1
  N  N312  1  0.05431313  0.07620355  0.53950324  1
  N  N313  1  0.05667132  0.92627768  0.04174127  1
  N  N314  1  0.50759294  0.40875423  0.96383256  1
  N  N315  1  0.26563587  0.57724621  0.96781737  1
  N  N316  1  0.81154951  0.76110081  0.45455667  1
  N  N317  1  0.78935133  0.90648586  0.95803216  1
  N  N318  1  0.68691377  0.09356918  0.45733059  1
  N  N319  1  0.01787016  0.74328420  0.96189582  1
  N  N320  1  0.68598496  0.42627568  0.45086300  1
  N  N321  1  0.03696331  0.25627670  0.03741548  1
  N  N322  1  0.78769429  0.24141225  0.53965174  1
  N  N323  1  0.28315048  0.57660198  0.53843454  1
  N  N324  1  0.05465171  0.59328467  0.04208423  1
  N  N325  1  0.29403546  0.90354475  0.54306165  1
  N  N326  1  0.54734298  0.92646280  0.46073008  1
  N  N327  1  0.56090761  0.06732426  0.95593222  1
  N  N328  1  0.96051921  0.40410509  0.54301655  1
  N  N329  1  0.55525699  0.92397696  0.04209515  1
  N  N330  1  0.51788901  0.25810554  0.03750037  1
  N  N331  1  0.71160949  0.24273924  0.53952323  1
  N  N332  1  0.48302880  0.07983485  0.96262619  1
  N  N333  1  0.81895384  0.42698855  0.04710038  1
  N  N334  1  0.31232019  0.43188268  0.04151412  1
  N  N335  1  0.97734347  0.59059042  0.03301960  1
  N  N336  1  0.48400589  0.25704944  0.46517519  1
  N  N337  1  0.19516666  0.09244008  0.45810640  1
  N  N338  1  0.71132297  0.09567243  0.03442590  1
  N  N339  1  0.52347605  0.74185639  0.96481505  1
  N  N340  1  0.23538232  0.42404671  0.46253277  1
  N  N341  1  0.95990883  0.73943741  0.53753698  1
  N  N342  1  0.78740059  0.57866951  0.96220879  1
  N  N343  1  0.79392887  0.75699426  0.03996615  1
  N  N344  1  0.23518416  0.41932673  0.03622721  1
  N  N345  1  0.26502370  0.90973152  0.96665155  1
  N  N346  1  0.74219633  0.42509685  0.03753421  1
  N  N347  1  0.31796524  0.76236716  0.04701237  1
  N  N348  1  0.28712365  0.24015576  0.54301183  1
  N  N349  1  0.44039448  0.25993787  0.04425146  1
  N  N350  1  0.94477854  0.07609612  0.95742643  1
  N  N351  1  0.03596299  0.73974485  0.53835505  1
  N  N352  1  0.46135936  0.58902567  0.03798085  1
  N  N353  1  0.19404736  0.24284914  0.95847178  1
  N  N354  1  0.51767848  0.74342765  0.53631553  1
  N  N355  1  0.68431982  0.90568514  0.54624605  1
  N  N356  1  0.19130730  0.09401844  0.04530207  1
  N  N357  1  0.94039556  0.40694065  0.95580845  1
  N  N358  1  0.06084013  0.92581287  0.45353480  1
  N  N359  1  0.98338130  0.92350202  0.46100386  1
  N  N360  1  0.07329717  0.05443023  0.59703716  1
  N  N361  1  0.06611427  0.38926953  0.59809809  1
  N  N362  1  0.06040059  0.72339146  0.59652535  1
  N  N363  1  0.57491115  0.05551391  0.60281387  1
  N  N364  1  0.56796416  0.38875889  0.59668124  1
  N  N365  1  0.55383543  0.72251493  0.58939470  1
  N  N366  1  0.42932547  0.27615214  0.10329854  1
  N  N367  1  0.43886224  0.60931784  0.09614363  1
  N  N368  1  0.44211990  0.93921712  0.09047451  1
  N  N369  1  0.93439885  0.27422668  0.09462140  1
  N  N370  1  0.94427335  0.60657038  0.08745792  1
  N  N371  1  0.94425359  0.94171595  0.08873800  1
  N  N372  1  0.44598191  0.05487553  0.91290488  1
  N  N373  1  0.42028430  0.38711126  0.89529216  1
  N  N374  1  0.42429725  0.72224947  0.90115438  1
  N  N375  1  0.93225191  0.05469730  0.89853546  1
  N  N376  1  0.92361674  0.38723469  0.89787874  1
  N  N377  1  0.92396305  0.72273401  0.89951158  1
  N  N378  1  0.05980751  0.27484864  0.40822632  1
  N  N379  1  0.07502611  0.61668335  0.39158819  1
  N  N380  1  0.07088057  0.94403251  0.39502664  1
  N  N381  1  0.57022723  0.27722440  0.39637942  1
  N  N382  1  0.56149026  0.60953755  0.40863925  1
  N  N383  1  0.56999855  0.94425513  0.40332649  1
  N  N384  1  0.31352874  0.22023613  0.59895373  1
  N  N385  1  0.30855621  0.55765319  0.59508908  1
  N  N386  1  0.30911621  0.88699152  0.60215450  1
  N  N387  1  0.81214831  0.22193761  0.59684403  1
  N  N388  1  0.81358532  0.55619855  0.60233578  1
  N  N389  1  0.80237399  0.89257792  0.58982807  1
  N  N390  1  0.17995430  0.11124491  0.10471602  1
  N  N391  1  0.19902061  0.44256785  0.08688431  1
  N  N392  1  0.20130817  0.77453349  0.08815996  1
  N  N393  1  0.68561517  0.11076706  0.09414678  1
  N  N394  1  0.70268987  0.44635590  0.08710486  1
  N  N395  1  0.68837258  0.77593666  0.09845873  1
  N  N396  1  0.18473724  0.22224424  0.89776200  1
  N  N397  1  0.17576105  0.55638446  0.89693604  1
  N  N398  1  0.17427864  0.88958178  0.89621397  1
  N  N399  1  0.69785413  0.22431049  0.91040219  1
  N  N400  1  0.68121880  0.56005670  0.90613751  1
  N  N401  1  0.67926787  0.88906958  0.90409320  1
  N  N402  1  0.30570607  0.10683990  0.40678968  1
  N  N403  1  0.31875249  0.44601100  0.39020844  1
  N  N404  1  0.31833516  0.77604195  0.40890467  1
  N  N405  1  0.80185345  0.10655362  0.41596618  1
  N  N406  1  0.80617888  0.44127484  0.41167012  1
  N  N407  1  0.82283368  0.77768309  0.39498891  1
  N  N408  1  0.44318828  0.27874736  0.41426849  1
  N  N409  1  0.43290417  0.61456189  0.39308809  1
  N  N410  1  0.44113560  0.94259709  0.40667902  1
  N  N411  1  0.93079336  0.27694032  0.39504630  1
  N  N412  1  0.94816529  0.61049611  0.41325635  1
  N  N413  1  0.94524723  0.94398886  0.41024253  1
  N  N414  1  0.05887222  0.06334637  0.91500097  1
  N  N415  1  0.05176412  0.39157610  0.90815417  1
  N  N416  1  0.05262489  0.72192229  0.90859872  1
  N  N417  1  0.57183109  0.05529123  0.89585106  1
  N  N418  1  0.54757433  0.39159174  0.91130142  1
  N  N419  1  0.55223875  0.72342875  0.90752828  1
  N  N420  1  0.06333155  0.27597062  0.09343258  1
  N  N421  1  0.07025541  0.61016537  0.10036411  1
  N  N422  1  0.07236575  0.94576128  0.09986273  1
  N  N423  1  0.55542287  0.27530006  0.08966426  1
  N  N424  1  0.56725187  0.60838116  0.09408161  1
  N  N425  1  0.56937576  0.94415780  0.10226124  1
  N  N426  1  0.44573632  0.05863820  0.58983434  1
  N  N427  1  0.43816376  0.39186262  0.59093620  1
  N  N428  1  0.42555936  0.72444554  0.60081545  1
  N  N429  1  0.94520170  0.06124073  0.58788252  1
  N  N430  1  0.93729513  0.38355287  0.59944501  1
  N  N431  1  0.93375283  0.72313435  0.59546223  1
  N  N432  1  0.17823595  0.11176117  0.39821389  1
  N  N433  1  0.19293067  0.44517019  0.41260189  1
  N  N434  1  0.18762917  0.77528643  0.40943277  1
  N  N435  1  0.67574748  0.11445928  0.39823448  1
  N  N436  1  0.68109705  0.44440459  0.39113874  1
  N  N437  1  0.69589010  0.77464708  0.40688040  1
  N  N438  1  0.31078024  0.22910465  0.91468780  1
  N  N439  1  0.30222295  0.56045361  0.91262475  1
  N  N440  1  0.30085796  0.89317882  0.91125747  1
  N  N441  1  0.82490883  0.21768021  0.89037054  1
  N  N442  1  0.80958445  0.55900789  0.90387230  1
  N  N443  1  0.80714602  0.88934401  0.89942098  1
  N  N444  1  0.30693632  0.10972098  0.09239511  1
  N  N445  1  0.32532860  0.44459031  0.10116498  1
  N  N446  1  0.32761454  0.78085264  0.10615071  1
  N  N447  1  0.81352045  0.10951221  0.09583421  1
  N  N448  1  0.82752271  0.44572222  0.10558634  1
  N  N449  1  0.81644340  0.77536603  0.09740410  1
  N  N450  1  0.18428508  0.22033814  0.59956173  1
  N  N451  1  0.18097296  0.55844888  0.59982406  1
  N  N452  1  0.18160410  0.88863541  0.59476417  1
  N  N453  1  0.68552023  0.22407522  0.59667866  1
  N  N454  1  0.68328024  0.55363297  0.59897847  1
  N  N455  1  0.67640368  0.88854355  0.60641902  1
  Cl  Cl456  1  0.25658883  0.05585812  0.62228941  1
  Cl  Cl457  1  0.25084288  0.39291585  0.60825156  1
  Cl  Cl458  1  0.24316716  0.71953177  0.62487168  1
  Cl  Cl459  1  0.76040606  0.05567115  0.61165703  1
  Cl  Cl460  1  0.75681643  0.39080898  0.62243493  1
  Cl  Cl461  1  0.74110906  0.72387389  0.61007097  1
  Cl  Cl462  1  0.24534427  0.28384550  0.12644571  1
  Cl  Cl463  1  0.25272235  0.61631391  0.11436134  1
  Cl  Cl464  1  0.25574554  0.94647235  0.11905969  1
  Cl  Cl465  1  0.74145575  0.27972697  0.10705757  1
  Cl  Cl466  1  0.75528761  0.60870461  0.12202993  1
  Cl  Cl467  1  0.75711387  0.94804099  0.11877284  1
  Cl  Cl468  1  0.26054452  0.06153207  0.89109817  1
  Cl  Cl469  1  0.23524120  0.39437704  0.88965242  1
  Cl  Cl470  1  0.23796686  0.72428639  0.89107852  1
  Cl  Cl471  1  0.75140065  0.05228104  0.87704204  1
  Cl  Cl472  1  0.73268098  0.39763397  0.89847813  1
  Cl  Cl473  1  0.73651996  0.71976036  0.87955585  1
  Cl  Cl474  1  0.25711352  0.27193898  0.40094656  1
  Cl  Cl475  1  0.25314026  0.61575681  0.37429890  1
  Cl  Cl476  1  0.25629063  0.94729954  0.38356140  1
  Cl  Cl477  1  0.75020920  0.28641471  0.36991119  1
  Cl  Cl478  1  0.75297663  0.60852314  0.39086096  1
  Cl  Cl479  1  0.75954127  0.94666286  0.38981545  1
  Cl  Cl480  1  -0.00122631  0.21800683  0.61459892  1
  Cl  Cl481  1  -0.00287422  0.54886846  0.61749384  1
  Cl  Cl482  1  -0.01129049  0.89578823  0.60481127  1
  Cl  Cl483  1  0.49624927  0.23011588  0.61179956  1
  Cl  Cl484  1  0.49655807  0.55580778  0.61692896  1
  Cl  Cl485  1  0.49290068  0.88643860  0.61804905  1
  Cl  Cl486  1  -0.00492563  0.11222230  0.12103104  1
  Cl  Cl487  1  0.01674626  0.43947380  0.11603863  1
  Cl  Cl488  1  0.01468405  0.77472932  0.10037176  1
  Cl  Cl489  1  0.49597319  0.10457802  0.10484689  1
  Cl  Cl490  1  0.51888649  0.44303861  0.09789484  1
  Cl  Cl491  1  0.50699447  0.78462690  0.12971899  1
  Cl  Cl492  1  0.00449107  0.21809683  0.88310004  1
  Cl  Cl493  1  -0.00578050  0.55185318  0.88283132  1
  Cl  Cl494  1  -0.00846155  0.88665406  0.87961454  1
  Cl  Cl495  1  0.50777571  0.22575829  0.89470668  1
  Cl  Cl496  1  0.49336829  0.55102508  0.88427005  1
  Cl  Cl497  1  0.48955552  0.89034575  0.88683239  1
  Cl  Cl498  1  -0.00968990  0.11011026  0.39053838  1
  Cl  Cl499  1  -0.00373321  0.43665237  0.39971353  1
  Cl  Cl500  1  0.00527286  0.78361341  0.36907889  1
  Cl  Cl501  1  0.49003833  0.11619803  0.37832248  1
  Cl  Cl502  1  0.49875273  0.44649394  0.36667752  1
  Cl  Cl503  1  0.51151303  0.77684124  0.39732315  1
  Cl  Cl504  1  0.36183976  0.14864795  0.75084320  1
  Cl  Cl505  1  0.35739945  0.48053555  0.75384021  1
  Cl  Cl506  1  0.35646291  0.81552213  0.74909702  1
  Cl  Cl507  1  0.86182583  0.14643627  0.75407995  1
  Cl  Cl508  1  0.86102016  0.47799877  0.75662249  1
  Cl  Cl509  1  0.85805908  0.81431478  0.75265281  1
  Cl  Cl510  1  0.13648834  0.18758953  0.25148516  1
  Cl  Cl511  1  0.14331307  0.51924980  0.24753859  1
  Cl  Cl512  1  0.14356287  0.85197324  0.24671217  1
  Cl  Cl513  1  0.63741284  0.18605375  0.25249686  1
  Cl  Cl514  1  0.64173457  0.51793869  0.25344662  1
  Cl  Cl515  1  0.63922182  0.85506655  0.25499790  1
  Cl  Cl516  1  0.14195149  0.14932368  0.75407103  1
  Cl  Cl517  1  0.13804145  0.47794127  0.75204471  1
  Cl  Cl518  1  0.13545693  0.81485427  0.75598308  1
  Cl  Cl519  1  0.63583007  0.14609960  0.74842852  1
  Cl  Cl520  1  0.63981036  0.48193010  0.74880892  1
  Cl  Cl521  1  0.63706973  0.81355515  0.74207126  1
  Cl  Cl522  1  0.35651726  0.18697750  0.24814211  1
  Cl  Cl523  1  0.36476937  0.51927459  0.24450914  1
  Cl  Cl524  1  0.36521304  0.85239425  0.25267477  1
  Cl  Cl525  1  0.85818837  0.18543394  0.25175778  1
  Cl  Cl526  1  0.86451350  0.51633941  0.24874803  1
  Cl  Cl527  1  0.85733917  0.85169097  0.24927771  1
  Cl  Cl528  1  0.10798141  0.31483412  0.74943530  1
  Cl  Cl529  1  0.10956784  0.64583650  0.75386896  1
  Cl  Cl530  1  0.10830137  0.98158428  0.75048776  1
  Cl  Cl531  1  0.60752907  0.31650142  0.74888905  1
  Cl  Cl532  1  0.60491345  0.64899898  0.74818708  1
  Cl  Cl533  1  0.61364479  0.97834182  0.74814884  1
  Cl  Cl534  1  0.39151701  0.01774808  0.25037139  1
  Cl  Cl535  1  0.38838660  0.35488261  0.24275653  1
  Cl  Cl536  1  0.39013168  0.68729469  0.24993086  1
  Cl  Cl537  1  0.89459733  0.01633289  0.24760670  1
  Cl  Cl538  1  0.89538909  0.35318265  0.24466009  1
  Cl  Cl539  1  0.89291343  0.68555963  0.24628064  1
  Cl  Cl540  1  0.38632337  0.31480035  0.75057368  1
  Cl  Cl541  1  0.38465088  0.64694964  0.74829376  1
  Cl  Cl542  1  0.39374530  0.98490814  0.74935607  1
  Cl  Cl543  1  0.88689731  0.31186222  0.75693414  1
  Cl  Cl544  1  0.89103020  0.64632305  0.74823090  1
  Cl  Cl545  1  0.88954673  0.98287459  0.75259368  1
  Cl  Cl546  1  0.11420618  0.02075859  0.25089329  1
  Cl  Cl547  1  0.11240036  0.35220973  0.25433249  1
  Cl  Cl548  1  0.11286549  0.68457945  0.24565198  1
  Cl  Cl549  1  0.61008599  0.02198800  0.24966773  1
  Cl  Cl550  1  0.60859373  0.35073307  0.25074723  1
  Cl  Cl551  1  0.61390692  0.68496688  0.25087785  1
