# generated using pymatgen
data_H8PbC4(N3Cl2)2
_symmetry_space_group_name_H-M   'P 1'
_cell_length_a   16.62494894
_cell_length_b   22.51461820
_cell_length_c   21.59495936
_cell_angle_alpha   89.99852294
_cell_angle_beta   90.02182625
_cell_angle_gamma   90.00027845
_symmetry_Int_Tables_number   1
_chemical_formula_structural   H8PbC4(N3Cl2)2
_chemical_formula_sum   'H192 Pb24 C96 N144 Cl96'
_cell_volume   8083.08724004
_cell_formula_units_Z   24
loop_
 _symmetry_equiv_pos_site_id
 _symmetry_equiv_pos_as_xyz
  1  'x, y, z'
loop_
 _atom_site_type_symbol
 _atom_site_label
 _atom_site_symmetry_multiplicity
 _atom_site_fract_x
 _atom_site_fract_y
 _atom_site_fract_z
 _atom_site_occupancy
  H  H0  1  0.00555256  0.03273498  0.68270568  1
  H  H1  1  0.01514898  0.36266065  0.68011894  1
  H  H2  1  0.00528218  0.69452149  0.67697623  1
  H  H3  1  0.50804871  0.03148066  0.67675858  1
  H  H4  1  0.48062815  0.36475918  0.67086152  1
  H  H5  1  0.48812171  0.69599203  0.68127466  1
  H  H6  1  0.00879141  0.30661144  0.17873191  1
  H  H7  1  -0.00069246  0.63603011  0.17901219  1
  H  H8  1  0.01405928  0.97026445  0.17701536  1
  H  H9  1  0.50940780  0.30538513  0.17829478  1
  H  H10  1  0.50049103  0.63833232  0.17507360  1
  H  H11  1  0.48550285  0.97184807  0.17643083  1
  H  H12  1  0.00527778  0.03178520  0.82194151  1
  H  H13  1  0.00302811  0.36167828  0.81805263  1
  H  H14  1  -0.01143171  0.69861502  0.81972527  1
  H  H15  1  0.50628237  0.03072359  0.82083510  1
  H  H16  1  0.49919849  0.36323331  0.81698402  1
  H  H17  1  0.49836751  0.69127565  0.82254345  1
  H  H18  1  0.00001443  0.30276077  0.32324058  1
  H  H19  1  0.01195281  0.63266606  0.32415082  1
  H  H20  1  -0.01439176  0.96673776  0.32325176  1
  H  H21  1  0.49884948  0.30646512  0.32585813  1
  H  H22  1  0.49832978  0.63784950  0.32555724  1
  H  H23  1  0.51867501  0.96824814  0.32016281  1
  H  H24  1  0.25236797  0.19212173  0.67720881  1
  H  H25  1  0.23985109  0.53056349  0.67511252  1
  H  H26  1  0.25148162  0.86601614  0.67649692  1
  H  H27  1  0.75107416  0.19686304  0.67887303  1
  H  H28  1  0.75462029  0.52771157  0.67957606  1
  H  H29  1  0.74376891  0.86166769  0.68147642  1
  H  H30  1  0.25474606  0.13827011  0.17624856  1
  H  H31  1  0.25756046  0.47125794  0.18037539  1
  H  H32  1  0.25314542  0.80036408  0.18088917  1
  H  H33  1  0.74171707  0.13507165  0.17723811  1
  H  H34  1  0.75104290  0.47148376  0.18276939  1
  H  H35  1  0.75198662  0.80544905  0.18199680  1
  H  H36  1  0.24871758  0.19525242  0.81689054  1
  H  H37  1  0.25538850  0.52924921  0.82262430  1
  H  H38  1  0.24510656  0.85774724  0.81720099  1
  H  H39  1  0.74133195  0.19310432  0.82120057  1
  H  H40  1  0.74259664  0.53198259  0.82159372  1
  H  H41  1  0.75174832  0.86285568  0.82330576  1
  H  H42  1  0.23921377  0.13724310  0.31735943  1
  H  H43  1  0.24239422  0.46816343  0.32002329  1
  H  H44  1  0.23726533  0.80350597  0.32091609  1
  H  H45  1  0.74713162  0.13804117  0.31995716  1
  H  H46  1  0.75808965  0.47322245  0.31990348  1
  H  H47  1  0.75372556  0.80069765  0.31924370  1
  H  H48  1  0.11053901  0.05831066  0.59953645  1
  H  H49  1  0.12270817  0.39242343  0.59903260  1
  H  H50  1  0.11584309  0.72118416  0.59521731  1
  H  H51  1  0.61854172  0.05728295  0.59689043  1
  H  H52  1  0.62406720  0.37911204  0.62632542  1
  H  H53  1  0.61974290  0.71938473  0.61771452  1
  H  H54  1  0.37100441  0.28290800  0.12348419  1
  H  H55  1  0.37281623  0.61270058  0.10792229  1
  H  H56  1  0.38194022  0.94199806  0.09007153  1
  H  H57  1  0.87211475  0.28264484  0.12469543  1
  H  H58  1  0.87035277  0.61341786  0.11354239  1
  H  H59  1  0.87280101  0.94979104  0.12655269  1
  H  H60  1  0.36942996  0.05234521  0.88092573  1
  H  H61  1  0.37646411  0.38894421  0.88960166  1
  H  H62  1  0.38051629  0.72160167  0.89518166  1
  H  H63  1  0.86646802  0.04896593  0.87761799  1
  H  H64  1  0.87962348  0.38722044  0.89068174  1
  H  H65  1  0.88697427  0.72437097  0.90496764  1
  H  H66  1  0.12512532  0.27642377  0.39113383  1
  H  H67  1  0.11713590  0.60827842  0.40704391  1
  H  H68  1  0.12992966  0.94979940  0.37132878  1
  H  H69  1  0.62511096  0.28281378  0.39345756  1
  H  H70  1  0.61870298  0.60681798  0.39636470  1
  H  H71  1  0.61630018  0.94257048  0.40813152  1
  H  H72  1  0.37183447  0.22310578  0.60434633  1
  H  H73  1  0.37807587  0.54843124  0.61770049  1
  H  H74  1  0.36894660  0.88991628  0.60306393  1
  H  H75  1  0.87359072  0.22123366  0.60815064  1
  H  H76  1  0.88134916  0.55403767  0.61197947  1
  H  H77  1  0.87004203  0.88243676  0.61267086  1
  H  H78  1  0.13347675  0.11005210  0.10556513  1
  H  H79  1  0.12320910  0.44988291  0.12076644  1
  H  H80  1  0.11924034  0.78043066  0.11997992  1
  H  H81  1  0.63603362  0.10733471  0.09221244  1
  H  H82  1  0.62528515  0.45040516  0.11396753  1
  H  H83  1  0.61956992  0.78385331  0.12105590  1
  H  H84  1  0.13293669  0.22111445  0.89247057  1
  H  H85  1  0.12594208  0.55465387  0.88883241  1
  H  H86  1  0.12492694  0.88928018  0.88966389  1
  H  H87  1  0.63525657  0.22390443  0.90434725  1
  H  H88  1  0.63177494  0.55812516  0.90304621  1
  H  H89  1  0.62664368  0.88697238  0.89350890  1
  H  H90  1  0.37782437  0.11594512  0.37439342  1
  H  H91  1  0.37710993  0.44863750  0.38015404  1
  H  H92  1  0.37855575  0.78638859  0.37482873  1
  H  H93  1  0.88011876  0.11659738  0.38162874  1
  H  H94  1  0.87591758  0.44645049  0.39716877  1
  H  H95  1  0.87660221  0.77542541  0.39245742  1
  H  H96  1  0.37711874  0.27873554  0.39673632  1
  H  H97  1  0.37022692  0.61410892  0.39226798  1
  H  H98  1  0.37425841  0.95396730  0.36601780  1
  H  H99  1  0.87676080  0.28162406  0.39518662  1
  H  H100  1  0.87252407  0.61655240  0.37612192  1
  H  H101  1  0.88663051  0.94175057  0.41232619  1
  H  H102  1  0.11371276  0.05819466  0.90228306  1
  H  H103  1  0.12848049  0.38877450  0.88550421  1
  H  H104  1  0.13157272  0.71374014  0.86934611  1
  H  H105  1  0.61613244  0.05727988  0.90362089  1
  H  H106  1  0.62509962  0.38576920  0.88905057  1
  H  H107  1  0.62915915  0.71814753  0.88677781  1
  H  H108  1  0.11828686  0.27544077  0.09767438  1
  H  H109  1  0.11889629  0.60963042  0.10449877  1
  H  H110  1  0.11724194  0.94240258  0.09040740  1
  H  H111  1  0.61528823  0.27462359  0.09411330  1
  H  H112  1  0.62163696  0.61123719  0.10338358  1
  H  H113  1  0.62594621  0.94982644  0.12403552  1
  H  H114  1  0.37205984  0.04978262  0.62095888  1
  H  H115  1  0.38317344  0.39523802  0.58347366  1
  H  H116  1  0.37148578  0.72163277  0.60414901  1
  H  H117  1  0.86428130  0.04747524  0.62927491  1
  H  H118  1  0.87540583  0.38168716  0.62437501  1
  H  H119  1  0.86895766  0.71769939  0.62041727  1
  H  H120  1  0.13107055  0.11243543  0.40037945  1
  H  H121  1  0.12899370  0.44743554  0.39815698  1
  H  H122  1  0.13482742  0.77165648  0.40722268  1
  H  H123  1  0.63240149  0.11071112  0.39899115  1
  H  H124  1  0.62759913  0.44684330  0.38534290  1
  H  H125  1  0.62767989  0.77914657  0.38836861  1
  H  H126  1  0.38117182  0.21772349  0.87691592  1
  H  H127  1  0.37430054  0.55638452  0.89728067  1
  H  H128  1  0.37412739  0.88281784  0.88192212  1
  H  H129  1  0.88080401  0.21655570  0.87376828  1
  H  H130  1  0.87850284  0.55282396  0.88183469  1
  H  H131  1  0.87533125  0.89015902  0.89319035  1
  H  H132  1  0.38250458  0.11340931  0.10950778  1
  H  H133  1  0.37166364  0.44901127  0.10311121  1
  H  H134  1  0.36694071  0.77574480  0.10016842  1
  H  H135  1  0.88095616  0.11380981  0.12186715  1
  H  H136  1  0.87484513  0.44743819  0.11410102  1
  H  H137  1  0.86810901  0.78140539  0.10647579  1
  H  H138  1  0.12360490  0.21979772  0.61401639  1
  H  H139  1  0.13203484  0.55939325  0.59309032  1
  H  H140  1  0.12041714  0.88629539  0.61338798  1
  H  H141  1  0.62511935  0.22116774  0.60920407  1
  H  H142  1  0.63236178  0.55374178  0.60726482  1
  H  H143  1  0.62230935  0.89064686  0.61105166  1
  H  H144  1  0.43153570  0.26479993  0.50178214  1
  H  H145  1  0.18070601  0.90939379  0.99539006  1
  H  H146  1  0.61882228  0.41260002  0.51132400  1
  H  H147  1  0.31229758  0.41846406  -0.00487392  1
  H  H148  1  0.21550535  0.74528386  0.50441722  1
  H  H149  1  0.67392211  0.74895010  0.49780446  1
  H  H150  1  0.04628384  0.08651151  1.00894430  1
  H  H151  1  0.43051318  0.75401848  0.49977162  1
  H  H152  1  0.84155196  0.58571830  0.50291996  1
  H  H153  1  0.71129132  0.24726829  1.00524683  1
  H  H154  1  0.17157606  0.58141866  0.99506184  1
  H  H155  1  0.12180674  0.92153170  0.48319692  1
  H  H156  1  0.04517975  0.74632025  0.49366694  1
  H  H157  1  0.04762409  0.25258837  -0.00355294  1
  H  H158  1  0.33928763  0.08268844  0.00448958  1
  H  H159  1  0.86037058  0.08298422  0.01152569  1
  H  H160  1  0.05308315  0.42587993  0.49588739  1
  H  H161  1  0.81543881  0.88897222  0.50513193  1
  H  H162  1  0.96347505  0.75125127  1.00937524  1
  H  H163  1  0.03756193  0.91810096  -0.00818166  1
  H  H164  1  0.14850989  0.74876967  0.00748866  1
  H  H165  1  0.20270987  0.08281061  0.50400734  1
  H  H166  1  0.89944389  0.41561059  0.51806975  1
  H  H167  1  0.66676142  0.42072813  0.00399522  1
  H  H168  1  0.92782714  0.24019812  0.49237879  1
  H  H169  1  0.31952476  0.91986557  0.49378824  1
  H  H170  1  0.57902736  0.23885598  0.49065100  1
  H  H171  1  0.64955065  0.75509963  0.00856483  1
  H  H172  1  0.03809946  0.08463819  0.49357594  1
  H  H173  1  0.56192768  0.58985556  0.50126712  1
  H  H174  1  0.08585610  0.41978411  0.99462376  1
  H  H175  1  0.19025198  0.41993665  0.50744922  1
  H  H176  1  0.19122728  0.25002911  1.00133176  1
  H  H177  1  0.68413148  0.94205207  0.52045480  1
  H  H178  1  0.08186028  0.25797544  0.49664646  1
  H  H179  1  0.96688349  0.91713236  0.51370207  1
  H  H180  1  0.84958088  0.08387209  0.49294235  1
  H  H181  1  0.83091745  0.41882357  0.00342528  1
  H  H182  1  0.53622456  0.91606113  0.51035602  1
  H  H183  1  0.46258360  0.91647584  -0.00734641  1
  H  H184  1  0.84823698  0.58020884  0.98970790  1
  H  H185  1  0.35177727  0.24707482  0.98966403  1
  H  H186  1  0.39479929  0.08100501  0.50648573  1
  H  H187  1  0.53820260  0.25138485  -0.00534585  1
  H  H188  1  0.33384576  0.91107802  0.99390317  1
  H  H189  1  0.81053929  0.75399547  -0.00307599  1
  H  H190  1  0.89315268  0.25139046  0.01119726  1
  H  H191  1  0.41179073  0.57505875  0.49353609  1
  Pb  Pb192  1  0.24866527  0.04811068  0.75064577  1
  Pb  Pb193  1  0.25187047  0.38107930  0.74207036  1
  Pb  Pb194  1  0.25202156  0.71300020  0.73890140  1
  Pb  Pb195  1  0.74464257  0.04572441  0.75079566  1
  Pb  Pb196  1  0.75456578  0.38232808  0.75627222  1
  Pb  Pb197  1  0.74962708  0.71351496  0.75504171  1
  Pb  Pb198  1  0.25258070  0.28440680  0.24950432  1
  Pb  Pb199  1  0.24993414  0.61935398  0.25019104  1
  Pb  Pb200  1  0.25092242  0.95244064  0.23222322  1
  Pb  Pb201  1  0.74851271  0.28596943  0.24612521  1
  Pb  Pb202  1  0.74662267  0.62022548  0.24963443  1
  Pb  Pb203  1  0.75253502  0.95210107  0.26884203  1
  Pb  Pb204  1  0.00011520  0.21290574  0.74963096  1
  Pb  Pb205  1  0.00487551  0.54892202  0.74614541  1
  Pb  Pb206  1  -0.00163879  0.87977502  0.75469052  1
  Pb  Pb207  1  0.50678540  0.21768948  0.74904055  1
  Pb  Pb208  1  0.50220008  0.54627464  0.74923939  1
  Pb  Pb209  1  0.49830301  0.87890706  0.75201392  1
  Pb  Pb210  1  0.00229524  0.11842172  0.25263534  1
  Pb  Pb211  1  0.00044060  0.45198959  0.25748092  1
  Pb  Pb212  1  0.00112485  0.78418615  0.25668765  1
  Pb  Pb213  1  0.50637907  0.11710451  0.24854627  1
  Pb  Pb214  1  0.49931605  0.45306141  0.24592653  1
  Pb  Pb215  1  0.49974927  0.78684884  0.24690981  1
  C  C216  1  -0.00643446  0.04617338  0.63535572  1
  C  C217  1  0.00382515  0.37876972  0.63342905  1
  C  C218  1  -0.00305358  0.70971157  0.62988386  1
  C  C219  1  0.49865845  0.04643509  0.62960772  1
  C  C220  1  0.49717469  0.37990191  0.62496963  1
  C  C221  1  0.49315049  0.71196656  0.63407698  1
  C  C222  1  -0.00029373  0.28980416  0.13199585  1
  C  C223  1  -0.00365909  0.62018317  0.13181479  1
  C  C224  1  0.00165242  0.95541752  0.13029012  1
  C  C225  1  0.49869105  0.28915803  0.13173103  1
  C  C226  1  0.49809095  0.62136869  0.12831381  1
  C  C227  1  0.49706095  0.95581187  0.12992132  1
  C  C228  1  -0.00472175  0.04640763  0.86922293  1
  C  C229  1  0.00346163  0.37897126  0.86490676  1
  C  C230  1  0.00238264  0.71238446  0.86669414  1
  C  C231  1  0.49721049  0.04618375  0.86798029  1
  C  C232  1  0.50042629  0.37897209  0.86444359  1
  C  C233  1  0.50305926  0.70968627  0.86859960  1
  C  C234  1  0.00056313  0.28686152  0.37083223  1
  C  C235  1  0.00000853  0.61899637  0.37131361  1
  C  C236  1  0.00152174  0.95241009  0.36988828  1
  C  C237  1  0.50028729  0.28930007  0.37285819  1
  C  C238  1  0.49580730  0.62005066  0.37234909  1
  C  C239  1  0.50298103  0.95512222  0.36693592  1
  C  C240  1  0.24945654  0.21087043  0.63123113  1
  C  C241  1  0.25042376  0.54564430  0.62832398  1
  C  C242  1  0.24728872  0.88091041  0.62887441  1
  C  C243  1  0.74963161  0.21229119  0.63157670  1
  C  C244  1  0.75602382  0.54472701  0.63269705  1
  C  C245  1  0.74550776  0.87797210  0.63415382  1
  C  C246  1  0.25729778  0.12088787  0.12952599  1
  C  C247  1  0.25109395  0.45652927  0.13291694  1
  C  C248  1  0.24632319  0.78564529  0.13337201  1
  C  C249  1  0.75346074  0.11905642  0.13070547  1
  C  C250  1  0.75029738  0.45575465  0.13519475  1
  C  C251  1  0.74626126  0.78981964  0.13459762  1
  C  C252  1  0.25465349  0.21071981  0.86433356  1
  C  C253  1  0.25150991  0.54579724  0.86967324  1
  C  C254  1  0.24752255  0.87524967  0.86410005  1
  C  C255  1  0.75223858  0.20902281  0.86784168  1
  C  C256  1  0.75138655  0.54688524  0.86888317  1
  C  C257  1  0.75106697  0.87946160  0.87021197  1
  C  C258  1  0.24967383  0.12195047  0.36437373  1
  C  C259  1  0.24934331  0.45468128  0.36780568  1
  C  C260  1  0.24987814  0.78781618  0.36742735  1
  C  C261  1  0.75331466  0.12187031  0.36697421  1
  C  C262  1  0.75393280  0.45639431  0.36680338  1
  C  C263  1  0.75299084  0.78564972  0.36697905  1
  C  C264  1  0.22515992  0.23837130  0.96004002  1
  C  C265  1  0.46577466  0.74142088  0.54010082  1
  C  C266  1  0.71378605  0.75967530  0.45943988  1
  C  C267  1  0.30696939  0.23726483  0.95435226  1
  C  C268  1  0.79053871  0.42913320  0.04150336  1
  C  C269  1  0.01486088  0.07425112  0.96654850  1
  C  C270  1  0.20485233  0.24519430  0.54255837  1
  C  C271  1  0.56676684  0.40512096  0.54130748  1
  C  C272  1  0.00899390  0.07253913  0.53692977  1
  C  C273  1  0.93415146  0.07006557  0.95686283  1
  C  C274  1  0.51041442  0.92853942  0.46583494  1
  C  C275  1  0.52280064  0.07535516  0.53389806  1
  C  C276  1  0.93733393  0.59546670  0.45753629  1
  C  C277  1  0.23178070  0.57559182  0.53270971  1
  C  C278  1  0.99155961  0.92697280  0.46806421  1
  C  C279  1  0.44198529  0.07239225  0.54055797  1
  C  C280  1  0.04300474  0.40848480  0.95637512  1
  C  C281  1  0.01683991  0.59214542  0.46795984  1
  C  C282  1  0.69440626  0.76456073  0.04406838  1
  C  C283  1  0.93828225  0.73907452  0.54263299  1
  C  C284  1  0.07018129  0.73448704  0.95153496  1
  C  C285  1  0.78612524  0.23935533  0.53813915  1
  C  C286  1  0.43137099  0.93311233  0.45000896  1
  C  C287  1  0.95182755  0.59277277  0.04049332  1
  C  C288  1  0.93528978  0.92697602  0.04589429  1
  C  C289  1  0.23173465  0.09380062  0.46017629  1
  C  C290  1  0.27760682  0.42934115  0.03626878  1
  C  C291  1  0.99081546  0.73902624  0.96540093  1
  C  C292  1  0.79643977  0.57472343  0.54153384  1
  C  C293  1  0.19608881  0.75901393  0.04406831  1
  C  C294  1  0.22325838  0.42994552  0.46525482  1
  C  C295  1  0.80232938  0.09425347  0.45637299  1
  C  C296  1  0.19728180  0.90665837  0.53785169  1
  C  C297  1  0.02424251  0.41111455  0.53841443  1
  C  C298  1  0.27882462  0.90839034  0.53295827  1
  C  C299  1  0.77627493  0.76383892  0.03854025  1
  C  C300  1  0.53153607  0.58915807  0.03659904  1
  C  C301  1  0.29416507  0.90370324  0.95460047  1
  C  C302  1  0.30414303  0.43073445  0.45725411  1
  C  C303  1  0.94030271  0.26016250  0.04621444  1
  C  C304  1  0.70830986  0.43012025  0.04164175  1
  C  C305  1  0.92907202  0.06828083  0.54906755  1
  C  C306  1  0.81520472  0.23844834  0.95271042  1
  C  C307  1  0.19640244  0.43010322  0.04398705  1
  C  C308  1  0.78762227  0.91082241  0.96171570  1
  C  C309  1  0.48710643  0.41045392  0.52792843  1
  C  C310  1  0.47273301  0.74421879  0.96035372  1
  C  C311  1  0.21933589  0.08869338  0.03648256  1
  N  N312  1  0.96318619  0.26698237  0.46489305  1
  N  N313  1  0.01297381  0.92541750  0.03499128  1
  N  N314  1  0.70743168  0.90510372  0.54179900  1
  N  N315  1  0.48522960  0.92418794  0.03641671  1
  N  N316  1  0.96350273  0.40816541  0.95837040  1
  N  N317  1  0.28761620  0.57443053  0.96337589  1
  N  N318  1  0.28244068  0.24637622  0.53816385  1
  N  N319  1  0.70824408  0.23894076  0.53731111  1
  N  N320  1  0.71706876  0.57534347  0.53922422  1
  N  N321  1  0.45416368  0.58959276  0.03673533  1
  N  N322  1  0.54303931  0.26642710  0.46478036  1
  N  N323  1  0.30991990  0.09418417  0.45100414  1
  N  N324  1  0.51354439  0.25739541  0.03835494  1
  N  N325  1  0.21462728  0.90704982  0.95589096  1
  N  N326  1  0.54027616  0.40606148  0.95766054  1
  N  N327  1  0.46352192  0.40684524  0.95807974  1
  N  N328  1  0.04179545  0.25403408  0.45987974  1
  N  N329  1  0.94585529  0.40679875  0.54810068  1
  N  N330  1  0.31561173  0.76445819  0.45261691  1
  N  N331  1  0.45186642  0.59453269  0.46287250  1
  N  N332  1  0.01920307  0.25692257  0.03845421  1
  N  N333  1  0.02971233  0.59113745  0.03647089  1
  N  N334  1  0.71035812  0.90988840  0.96321253  1
  N  N335  1  0.54502305  0.74030871  0.54381982  1
  N  N336  1  0.70855459  0.42575806  0.45682121  1
  N  N337  1  0.27481165  0.75786318  0.03700733  1
  N  N338  1  0.06874937  0.92928221  0.45326997  1
  N  N339  1  0.23899592  0.75893381  0.46211382  1
  N  N340  1  0.44278136  0.07352801  0.95643459  1
  N  N341  1  0.55011179  0.74308832  0.95853760  1
  N  N342  1  0.80300907  0.57200130  0.95639167  1
  N  N343  1  0.73738215  0.24037729  0.96233736  1
  N  N344  1  0.01656571  0.73964154  0.53547638  1
  N  N345  1  0.20980153  0.57455195  0.95873161  1
  N  N346  1  0.72356404  0.09191517  0.46244170  1
  N  N347  1  0.73390151  0.08935934  0.03462548  1
  N  N348  1  0.53023973  0.58249464  0.46121333  1
  N  N349  1  0.72546475  0.57386677  0.96504864  1
  N  N350  1  0.56196258  0.92693511  0.04631687  1
  N  N351  1  0.51872264  0.07550258  0.96386727  1
  N  N352  1  0.43651388  0.26049228  0.04694450  1
  N  N353  1  0.29826260  0.09082699  0.03909742  1
  N  N354  1  0.78488723  0.42607511  0.46086325  1
  N  N355  1  0.30851708  0.57107734  0.53939677  1
  N  N356  1  0.78944489  0.90694087  0.54400601  1
  N  N357  1  0.79304711  0.75912023  0.46138022  1
  N  N358  1  0.46361033  0.25485380  0.46261925  1
  N  N359  1  0.81063143  0.09131790  0.04565541  1
  N  N360  1  0.04837206  0.05831942  0.59216073  1
  N  N361  1  0.06067191  0.39354884  0.59134593  1
  N  N362  1  0.05382003  0.71939171  0.58827774  1
  N  N363  1  0.55691655  0.05976221  0.58752524  1
  N  N364  1  0.57108736  0.38646005  0.60243079  1
  N  N365  1  0.56011479  0.72220378  0.60269231  1
  N  N366  1  0.42787012  0.27832488  0.10557985  1
  N  N367  1  0.43306883  0.61012694  0.09507128  1
  N  N368  1  0.44375495  0.94406489  0.08607369  1
  N  N369  1  0.92818834  0.27878464  0.10491957  1
  N  N370  1  0.92948391  0.61011919  0.09847534  1
  N  N371  1  0.92827453  0.94469989  0.10513505  1
  N  N372  1  0.42820212  0.05567677  0.89675982  1
  N  N373  1  0.43772528  0.39008502  0.90054684  1
  N  N374  1  0.44135602  0.72428426  0.90639364  1
  N  N375  1  0.92304155  0.05371277  0.89737606  1
  N  N376  1  0.94069930  0.39011309  0.90088773  1
  N  N377  1  0.94925384  0.72497839  0.91097129  1
  N  N378  1  0.06516839  0.27735308  0.40524033  1
  N  N379  1  0.05543648  0.60649218  0.41528769  1
  N  N380  1  0.07422517  0.94456932  0.39293297  1
  N  N381  1  0.56527089  0.27622939  0.40546521  1
  N  N382  1  0.55792439  0.60850671  0.40867035  1
  N  N383  1  0.55432947  0.94269047  0.41266912  1
  N  N384  1  0.31036774  0.22443374  0.59471739  1
  N  N385  1  0.32022871  0.55236560  0.60024270  1
  N  N386  1  0.30857626  0.89213373  0.59117917  1
  N  N387  1  0.81369464  0.22342464  0.59506588  1
  N  N388  1  0.82144596  0.55679684  0.59874417  1
  N  N389  1  0.81000840  0.88175019  0.59858446  1
  N  N390  1  0.19368341  0.10713181  0.09259908  1
  N  N391  1  0.18104628  0.44597004  0.10259817  1
  N  N392  1  0.17728867  0.77596968  0.10306438  1
  N  N393  1  0.69842032  0.10633127  0.08775315  1
  N  N394  1  0.68492934  0.44633279  0.10021797  1
  N  N395  1  0.67743624  0.78032814  0.10385802  1
  N  N396  1  0.19396848  0.22167643  0.90363541  1
  N  N397  1  0.18593369  0.55582303  0.90266754  1
  N  N398  1  0.18592584  0.88617746  0.90107038  1
  N  N399  1  0.69749609  0.21908687  0.91090533  1
  N  N400  1  0.69374172  0.55840901  0.91011308  1
  N  N401  1  0.68726540  0.89008027  0.90493262  1
  N  N402  1  0.31968866  0.11170592  0.39139964  1
  N  N403  1  0.31936108  0.44534962  0.39839423  1
  N  N404  1  0.32175611  0.78194064  0.39373978  1
  N  N405  1  0.82187814  0.11217475  0.39785045  1
  N  N406  1  0.81415405  0.44553733  0.40540721  1
  N  N407  1  0.81582109  0.77488043  0.40310920  1
  N  N408  1  0.43752206  0.28000252  0.40918180  1
  N  N409  1  0.43022765  0.60820070  0.40482325  1
  N  N410  1  0.42780513  0.94891681  0.39028828  1
  N  N411  1  0.93736343  0.27558856  0.40597920  1
  N  N412  1  0.92742409  0.61140692  0.39798904  1
  N  N413  1  0.94915359  0.94107163  0.41632158  1
  N  N414  1  0.05202983  0.05921945  0.91072866  1
  N  N415  1  0.06866307  0.39091955  0.89918678  1
  N  N416  1  0.07685593  0.71887457  0.89180335  1
  N  N417  1  0.55376441  0.05853951  0.90936102  1
  N  N418  1  0.56420931  0.38934989  0.89951174  1
  N  N419  1  0.56929359  0.72136892  0.89996977  1
  N  N420  1  0.05582537  0.27833192  0.09029120  1
  N  N421  1  0.05729884  0.60867166  0.09464040  1
  N  N422  1  0.05500697  0.94526794  0.08602246  1
  N  N423  1  0.55285037  0.27759825  0.08860219  1
  N  N424  1  0.56137204  0.60834036  0.09158729  1
  N  N425  1  0.56888362  0.94511910  0.10502133  1
  N  N426  1  0.42822407  0.05448407  0.60124768  1
  N  N427  1  0.44513564  0.39525530  0.57830870  1
  N  N428  1  0.43253239  0.72405399  0.59510463  1
  N  N429  1  0.92014377  0.05265015  0.60864182  1
  N  N430  1  0.93351521  0.38666095  0.60641185  1
  N  N431  1  0.92591240  0.72151696  0.60139076  1
  N  N432  1  0.19324600  0.11046726  0.40715645  1
  N  N433  1  0.18993132  0.44504365  0.40822161  1
  N  N434  1  0.19737186  0.77310204  0.41077356  1
  N  N435  1  0.69467767  0.10928216  0.40643593  1
  N  N436  1  0.68790010  0.44391242  0.39863811  1
  N  N437  1  0.68767177  0.77608475  0.40196428  1
  N  N438  1  0.32374410  0.22032505  0.89477514  1
  N  N439  1  0.31324640  0.55770659  0.90712586  1
  N  N440  1  0.31488176  0.88601163  0.89713553  1
  N  N441  1  0.82484617  0.22034249  0.89381449  1
  N  N442  1  0.81997166  0.55542084  0.89837313  1
  N  N443  1  0.81551615  0.89252955  0.90569091  1
  N  N444  1  0.32241514  0.11093876  0.09628391  1
  N  N445  1  0.31055444  0.44594905  0.09299181  1
  N  N446  1  0.30445918  0.77449497  0.09307158  1
  N  N447  1  0.82365266  0.10947071  0.10394834  1
  N  N448  1  0.81505997  0.44478543  0.09999159  1
  N  N449  1  0.80720106  0.77927005  0.09535705  1
  N  N450  1  0.18241026  0.22401672  0.59895706  1
  N  N451  1  0.19392075  0.56020694  0.58593856  1
  N  N452  1  0.17874307  0.89018471  0.59637126  1
  N  N453  1  0.68556234  0.22187417  0.59690168  1
  N  N454  1  0.69363169  0.55613490  0.59655691  1
  N  N455  1  0.68335208  0.89577223  0.60089694  1
  Cl  Cl456  1  0.23464875  0.05876829  0.61608555  1
  Cl  Cl457  1  0.25012610  0.39175239  0.60803605  1
  Cl  Cl458  1  0.23904056  0.72391377  0.59885759  1
  Cl  Cl459  1  0.73793668  0.04786866  0.61815024  1
  Cl  Cl460  1  0.75502932  0.38145140  0.62592630  1
  Cl  Cl461  1  0.74344537  0.72258198  0.62299614  1
  Cl  Cl462  1  0.23871999  0.27515818  0.11389473  1
  Cl  Cl463  1  0.24313355  0.60920957  0.11584000  1
  Cl  Cl464  1  0.24603957  0.94059154  0.09356946  1
  Cl  Cl465  1  0.73493670  0.26828967  0.10223759  1
  Cl  Cl466  1  0.74742129  0.61151004  0.11801336  1
  Cl  Cl467  1  0.74943380  0.95142970  0.13793532  1
  Cl  Cl468  1  0.24229920  0.05453685  0.88606150  1
  Cl  Cl469  1  0.25406292  0.39018402  0.87665413  1
  Cl  Cl470  1  0.25976570  0.71869170  0.86916541  1
  Cl  Cl471  1  0.73804244  0.05368368  0.88218096  1
  Cl  Cl472  1  0.75081028  0.38445073  0.89156502  1
  Cl  Cl473  1  0.76094934  0.72269711  0.88975628  1
  Cl  Cl474  1  0.24991479  0.27770830  0.38151782  1
  Cl  Cl475  1  0.24587383  0.61518532  0.38461937  1
  Cl  Cl476  1  0.25003251  0.95105435  0.36414753  1
  Cl  Cl477  1  0.75243227  0.28197528  0.37836060  1
  Cl  Cl478  1  0.74031574  0.60977034  0.38121530  1
  Cl  Cl479  1  0.75639288  0.93989681  0.40546404  1
  Cl  Cl480  1  -0.00088930  0.22401349  0.61308195  1
  Cl  Cl481  1  0.00809565  0.55471336  0.61270418  1
  Cl  Cl482  1  -0.00710261  0.88674298  0.61861339  1
  Cl  Cl483  1  0.49700347  0.22587738  0.61071296  1
  Cl  Cl484  1  0.50709240  0.55589917  0.61126327  1
  Cl  Cl485  1  0.49935520  0.88888153  0.61759872  1
  Cl  Cl486  1  0.00928855  0.11276730  0.11851178  1
  Cl  Cl487  1  -0.00123371  0.44830333  0.12693075  1
  Cl  Cl488  1  -0.00810073  0.78384154  0.12349864  1
  Cl  Cl489  1  0.50944847  0.11385311  0.11538907  1
  Cl  Cl490  1  0.49888752  0.45046235  0.11798343  1
  Cl  Cl491  1  0.48927547  0.78010725  0.11514065  1
  Cl  Cl492  1  0.01018960  0.22849682  0.88711994  1
  Cl  Cl493  1  0.00258828  0.55578661  0.87915444  1
  Cl  Cl494  1  0.00376470  0.89500504  0.89350315  1
  Cl  Cl495  1  0.51554731  0.23036813  0.89288740  1
  Cl  Cl496  1  0.50437614  0.55805693  0.88138382  1
  Cl  Cl497  1  0.49740581  0.88948076  0.89028908  1
  Cl  Cl498  1  0.00844501  0.11418707  0.38781056  1
  Cl  Cl499  1  -0.00147250  0.44207090  0.39485520  1
  Cl  Cl500  1  0.01336417  0.77296251  0.39808559  1
  Cl  Cl501  1  0.50909869  0.11506573  0.38330764  1
  Cl  Cl502  1  0.50313792  0.44508770  0.38095960  1
  Cl  Cl503  1  0.50420215  0.78016569  0.37977734  1
  Cl  Cl504  1  0.35925942  0.14701578  0.75176546  1
  Cl  Cl505  1  0.35895109  0.48414105  0.74631181  1
  Cl  Cl506  1  0.35682989  0.81670209  0.74468100  1
  Cl  Cl507  1  0.86457278  0.14265847  0.75283545  1
  Cl  Cl508  1  0.86236676  0.47624570  0.75830368  1
  Cl  Cl509  1  0.86184997  0.81397400  0.74595906  1
  Cl  Cl510  1  0.13796377  0.18532793  0.24896153  1
  Cl  Cl511  1  0.13960181  0.51671873  0.24903973  1
  Cl  Cl512  1  0.13826888  0.85236399  0.24858366  1
  Cl  Cl513  1  0.64580945  0.18096498  0.25027455  1
  Cl  Cl514  1  0.63580401  0.51924787  0.25264457  1
  Cl  Cl515  1  0.63963965  0.85260178  0.24925761  1
  Cl  Cl516  1  0.13771771  0.14880052  0.75154532  1
  Cl  Cl517  1  0.13945850  0.48112097  0.75067438  1
  Cl  Cl518  1  0.13647020  0.81242309  0.74618085  1
  Cl  Cl519  1  0.64241479  0.15157721  0.74907826  1
  Cl  Cl520  1  0.64418495  0.48314137  0.74865730  1
  Cl  Cl521  1  0.64194336  0.81721225  0.75397439  1
  Cl  Cl522  1  0.35864243  0.18855100  0.24866498  1
  Cl  Cl523  1  0.36095117  0.51879802  0.25625989  1
  Cl  Cl524  1  0.36059176  0.85298048  0.25413802  1
  Cl  Cl525  1  0.86654582  0.18828827  0.24489989  1
  Cl  Cl526  1  0.85738235  0.51941395  0.25199357  1
  Cl  Cl527  1  0.86138013  0.85240581  0.25710526  1
  Cl  Cl528  1  0.10958161  0.31459094  0.74780851  1
  Cl  Cl529  1  0.11277849  0.64726326  0.75294275  1
  Cl  Cl530  1  0.10818499  0.98119742  0.75333877  1
  Cl  Cl531  1  0.60747547  0.31359515  0.73995139  1
  Cl  Cl532  1  0.61125029  0.64896763  0.74728112  1
  Cl  Cl533  1  0.60345817  0.98331275  0.74777129  1
  Cl  Cl534  1  0.38368931  0.02259168  0.25048648  1
  Cl  Cl535  1  0.38763934  0.35216476  0.24907493  1
  Cl  Cl536  1  0.38842783  0.68570216  0.25327701  1
  Cl  Cl537  1  0.89184237  0.01679910  0.25227330  1
  Cl  Cl538  1  0.88464533  0.35352360  0.24611073  1
  Cl  Cl539  1  0.88647972  0.68590474  0.25822998  1
  Cl  Cl540  1  0.39017891  0.31540918  0.74791429  1
  Cl  Cl541  1  0.38955289  0.64710072  0.74634478  1
  Cl  Cl542  1  0.38318906  0.97859855  0.75055827  1
  Cl  Cl543  1  0.88675050  0.31159852  0.74934677  1
  Cl  Cl544  1  0.88942617  0.64747328  0.74673997  1
  Cl  Cl545  1  0.88459025  0.97974887  0.75067594  1
  Cl  Cl546  1  0.11286386  0.01749808  0.24932803  1
  Cl  Cl547  1  0.10196304  0.35127713  0.25454544  1
  Cl  Cl548  1  0.10600199  0.68436712  0.24934302  1
  Cl  Cl549  1  0.60457244  0.01741230  0.24788912  1
  Cl  Cl550  1  0.60802249  0.34974838  0.25120742  1
  Cl  Cl551  1  0.60805635  0.68521289  0.24879836  1
