# generated using pymatgen
data_H8PbC4(N3Cl2)2
_symmetry_space_group_name_H-M   'P 1'
_cell_length_a   16.62715137
_cell_length_b   22.51123069
_cell_length_c   21.59196605
_cell_angle_alpha   89.99886470
_cell_angle_beta   90.01856407
_cell_angle_gamma   89.98921252
_symmetry_Int_Tables_number   1
_chemical_formula_structural   H8PbC4(N3Cl2)2
_chemical_formula_sum   'H192 Pb24 C96 N144 Cl96'
_cell_volume   8081.82137410
_cell_formula_units_Z   24
loop_
 _symmetry_equiv_pos_site_id
 _symmetry_equiv_pos_as_xyz
  1  'x, y, z'
loop_
 _atom_site_type_symbol
 _atom_site_label
 _atom_site_symmetry_multiplicity
 _atom_site_fract_x
 _atom_site_fract_y
 _atom_site_fract_z
 _atom_site_occupancy
  H  H0  1  0.00572945  0.03244533  0.67801881  1
  H  H1  1  -0.00562510  0.36431895  0.68086987  1
  H  H2  1  0.01199197  0.69687372  0.68143815  1
  H  H3  1  0.49800718  0.03229194  0.67453761  1
  H  H4  1  0.50748726  0.36046057  0.68018412  1
  H  H5  1  0.49513403  0.69695578  0.68072666  1
  H  H6  1  0.01014453  0.30299107  0.17900517  1
  H  H7  1  0.00228410  0.63857985  0.18131811  1
  H  H8  1  -0.01018688  0.96814761  0.18193116  1
  H  H9  1  0.49411244  0.30685414  0.17523199  1
  H  H10  1  0.50213707  0.63593734  0.17972226  1
  H  H11  1  0.51018712  0.96634902  0.18461399  1
  H  H12  1  -0.00473858  0.02997447  0.82134577  1
  H  H13  1  0.00304925  0.36257320  0.82183866  1
  H  H14  1  0.01500230  0.69727635  0.82564416  1
  H  H15  1  0.49594562  0.03281403  0.82164938  1
  H  H16  1  0.50555065  0.36476614  0.82103375  1
  H  H17  1  0.49531619  0.69399187  0.81868759  1
  H  H18  1  -0.00728720  0.30342326  0.32054364  1
  H  H19  1  0.00199390  0.63512808  0.32351387  1
  H  H20  1  -0.00577319  0.97092286  0.32306890  1
  H  H21  1  0.49926897  0.30103258  0.31915304  1
  H  H22  1  0.49428023  0.63512009  0.32201480  1
  H  H23  1  0.50115380  0.97231425  0.32274345  1
  H  H24  1  0.24828059  0.19836915  0.67885798  1
  H  H25  1  0.25681347  0.53081669  0.68106959  1
  H  H26  1  0.25308722  0.86555829  0.67969278  1
  H  H27  1  0.74314147  0.19547419  0.68148554  1
  H  H28  1  0.74893405  0.53109012  0.67627474  1
  H  H29  1  0.75020090  0.86139765  0.67614031  1
  H  H30  1  0.24564140  0.13697664  0.18041801  1
  H  H31  1  0.24535661  0.47146219  0.17974971  1
  H  H32  1  0.25261918  0.80406439  0.17993885  1
  H  H33  1  0.75460573  0.13651539  0.17841563  1
  H  H34  1  0.75366991  0.46719381  0.17512213  1
  H  H35  1  0.73877178  0.79975087  0.18067101  1
  H  H36  1  0.25748060  0.19564782  0.82201146  1
  H  H37  1  0.24756215  0.53128513  0.81832434  1
  H  H38  1  0.26159813  0.86210640  0.82224481  1
  H  H39  1  0.73464214  0.20063214  0.82528382  1
  H  H40  1  0.74488815  0.53048266  0.82080930  1
  H  H41  1  0.74149968  0.86704526  0.81476285  1
  H  H42  1  0.24560153  0.13823244  0.32333471  1
  H  H43  1  0.25704252  0.46955896  0.31645665  1
  H  H44  1  0.24601448  0.80179153  0.31719147  1
  H  H45  1  0.75171245  0.13687371  0.32299011  1
  H  H46  1  0.74270748  0.47155906  0.32173924  1
  H  H47  1  0.73596588  0.79997389  0.32315649  1
  H  H48  1  0.11542608  0.05981136  0.59493599  1
  H  H49  1  0.12194711  0.38566721  0.61324443  1
  H  H50  1  0.11826897  0.72497064  0.59655769  1
  H  H51  1  0.62075986  0.05236197  0.60493747  1
  H  H52  1  0.61731915  0.39014979  0.59870672  1
  H  H53  1  0.62178622  0.72111126  0.61071401  1
  H  H54  1  0.38357439  0.27405682  0.09562273  1
  H  H55  1  0.37535201  0.61362809  0.11114349  1
  H  H56  1  0.37877054  0.94740408  0.12156108  1
  H  H57  1  0.87517665  0.28478598  0.11896780  1
  H  H58  1  0.87816516  0.61370295  0.10944626  1
  H  H59  1  0.88099971  0.94342874  0.10073527  1
  H  H60  1  0.38453307  0.05602954  0.90014536  1
  H  H61  1  0.37189299  0.38623317  0.88423827  1
  H  H62  1  0.36767592  0.72024027  0.88712379  1
  H  H63  1  0.88711874  0.06077202  0.90357731  1
  H  H64  1  0.86768767  0.38395903  0.88307676  1
  H  H65  1  0.87362850  0.71297595  0.87369624  1
  H  H66  1  0.12131332  0.27862290  0.38643494  1
  H  H67  1  0.13087044  0.61424622  0.39081423  1
  H  H68  1  0.13383387  0.94960915  0.37536688  1
  H  H69  1  0.61960179  0.27789687  0.39483218  1
  H  H70  1  0.63587458  0.61921444  0.37213196  1
  H  H71  1  0.63388717  0.94759963  0.38501286  1
  H  H72  1  0.37719296  0.21767575  0.61284443  1
  H  H73  1  0.36438248  0.55630460  0.59825205  1
  H  H74  1  0.36423727  0.89285148  0.60000994  1
  H  H75  1  0.87383217  0.21855682  0.61606736  1
  H  H76  1  0.86158067  0.55895093  0.59636015  1
  H  H77  1  0.86364520  0.89011442  0.59763082  1
  H  H78  1  0.11641746  0.11326249  0.11467407  1
  H  H79  1  0.13541798  0.44418547  0.09925740  1
  H  H80  1  0.12774399  0.77879982  0.10976200  1
  H  H81  1  0.61481146  0.11928498  0.12326923  1
  H  H82  1  0.62772854  0.44767631  0.10833618  1
  H  H83  1  0.62895194  0.77569829  0.09650693  1
  H  H84  1  0.12157297  0.21874545  0.87875411  1
  H  H85  1  0.12324275  0.55588720  0.88726007  1
  H  H86  1  0.12158895  0.88264443  0.87508241  1
  H  H87  1  0.62897549  0.22656599  0.90761419  1
  H  H88  1  0.62347888  0.55235252  0.89433358  1
  H  H89  1  0.62237980  0.88739170  0.88931408  1
  H  H90  1  0.38161500  0.11546948  0.38082917  1
  H  H91  1  0.37870999  0.44348125  0.39134895  1
  H  H92  1  0.38338178  0.78195600  0.37669092  1
  H  H93  1  0.87714323  0.11013518  0.39200253  1
  H  H94  1  0.87942457  0.44825971  0.37678224  1
  H  H95  1  0.87363188  0.78378167  0.37603900  1
  H  H96  1  0.37117058  0.27743000  0.38517820  1
  H  H97  1  0.39134706  0.60916963  0.40612805  1
  H  H98  1  0.38700811  0.94631785  0.40239051  1
  H  H99  1  0.87320810  0.27784056  0.39633475  1
  H  H100  1  0.88252415  0.60815050  0.39642985  1
  H  H101  1  0.88832745  0.94146029  0.40657312  1
  H  H102  1  0.13363676  0.05017813  0.87594788  1
  H  H103  1  0.11504983  0.39042845  0.90273866  1
  H  H104  1  0.11636065  0.72628456  0.91091787  1
  H  H105  1  0.63232613  0.05341801  0.87923763  1
  H  H106  1  0.61886139  0.38967929  0.90179223  1
  H  H107  1  0.61639783  0.71905570  0.89378585  1
  H  H108  1  0.12191324  0.27403041  0.09821466  1
  H  H109  1  0.12732680  0.61471636  0.11164998  1
  H  H110  1  0.12741908  0.94956865  0.12754501  1
  H  H111  1  0.63053182  0.28490852  0.11866263  1
  H  H112  1  0.62461872  0.61126502  0.10658882  1
  H  H113  1  0.62782008  0.94760202  0.10829241  1
  H  H114  1  0.37277065  0.05483023  0.60803782  1
  H  H115  1  0.37038576  0.38200714  0.62466327  1
  H  H116  1  0.37258616  0.72166830  0.60884087  1
  H  H117  1  0.86892505  0.05008913  0.61857079  1
  H  H118  1  0.87314718  0.39065571  0.60685603  1
  H  H119  1  0.87347158  0.71644603  0.62575481  1
  H  H120  1  0.13421345  0.10776024  0.40270309  1
  H  H121  1  0.13059399  0.44563019  0.38629058  1
  H  H122  1  0.13594231  0.77551583  0.39863327  1
  H  H123  1  0.62838712  0.11248024  0.39358011  1
  H  H124  1  0.63334363  0.44229992  0.40341921  1
  H  H125  1  0.62882990  0.77580988  0.40615319  1
  H  H126  1  0.36848830  0.22299612  0.90311079  1
  H  H127  1  0.37208788  0.55452749  0.88979988  1
  H  H128  1  0.36723695  0.89340695  0.90508833  1
  H  H129  1  0.87387663  0.21650023  0.87796207  1
  H  H130  1  0.87256652  0.55126188  0.88592268  1
  H  H131  1  0.87154589  0.88437574  0.87957915  1
  H  H132  1  0.36520213  0.11272155  0.10469776  1
  H  H133  1  0.38288520  0.44785189  0.12339889  1
  H  H134  1  0.37689414  0.77840243  0.10979192  1
  H  H135  1  0.86062910  0.11057458  0.09439081  1
  H  H136  1  0.87625208  0.44591034  0.10473368  1
  H  H137  1  0.87510175  0.78148232  0.12153226  1
  H  H138  1  0.12751496  0.22263740  0.60399425  1
  H  H139  1  0.11850769  0.55096148  0.62399260  1
  H  H140  1  0.11684808  0.88680086  0.62085329  1
  H  H141  1  0.62535284  0.21810707  0.60530131  1
  H  H142  1  0.61485435  0.55348048  0.61468316  1
  H  H143  1  0.61620900  0.88610979  0.61694584  1
  H  H144  1  0.57121315  0.93367428  -0.00444639  1
  H  H145  1  0.46547674  0.58148912  0.51038642  1
  H  H146  1  0.42127626  0.58468441  0.00144174  1
  H  H147  1  0.78835103  0.08574450  -0.01037618  1
  H  H148  1  0.29805725  0.24778063  1.00516392  1
  H  H149  1  0.85604796  0.75326692  0.49161732  1
  H  H150  1  0.94095121  0.59251989  0.50207016  1
  H  H151  1  0.94944078  0.91702851  -0.00649985  1
  H  H152  1  0.67598507  0.89923949  1.00285639  1
  H  H153  1  0.70140814  0.74259090  -0.00127298  1
  H  H154  1  0.09028475  0.57897215  0.49416134  1
  H  H155  1  0.34127369  0.24801476  0.50171794  1
  H  H156  1  0.68397230  0.24715571  0.49809706  1
  H  H157  1  0.79682618  0.91776260  0.49528172  1
  H  H158  1  0.45477373  0.24740218  -0.00589008  1
  H  H159  1  0.04116507  0.74694476  0.49643542  1
  H  H160  1  0.54780832  0.41099806  0.49679773  1
  H  H161  1  0.93116912  0.24956979  0.49815122  1
  H  H162  1  0.18146137  0.25364095  0.50199291  1
  H  H163  1  0.11402279  0.08201461  0.98885755  1
  H  H164  1  0.08048556  0.58634027  0.00211729  1
  H  H165  1  0.39403889  0.41505674  0.51263693  1
  H  H166  1  0.10869594  0.92045374  0.01308836  1
  H  H167  1  0.29848636  0.91997340  0.49345500  1
  H  H168  1  0.20397702  0.08109961  0.50483480  1
  H  H169  1  0.44816056  0.08643449  1.00794853  1
  H  H170  1  0.90031984  0.25289202  0.00672462  1
  H  H171  1  0.45551274  0.92324142  0.50576965  1
  H  H172  1  0.07766477  0.41509346  0.50291103  1
  H  H173  1  0.83416179  0.57903442  0.99931096  1
  H  H174  1  0.63074601  0.08847072  0.01243234  1
  H  H175  1  0.64042383  0.58555729  0.50338559  1
  H  H176  1  0.35653496  0.42175133  0.01431132  1
  H  H177  1  0.95813093  0.08397450  1.00428070  1
  H  H178  1  0.20509358  0.74911548  0.50364844  1
  H  H179  1  0.42380403  0.75011214  0.50051442  1
  H  H180  1  0.88409690  0.74784254  -0.01249181  1
  H  H181  1  0.29351801  0.58247956  0.49386906  1
  H  H182  1  0.04466579  0.41662896  1.00408081  1
  H  H183  1  0.32720117  0.74659361  0.00211274  1
  H  H184  1  0.14196645  0.91242198  0.51013361  1
  H  H185  1  0.04170000  0.08571233  0.49513293  1
  H  H186  1  0.20184231  0.41575356  -0.00625951  1
  H  H187  1  0.96348992  0.91744077  0.50709473  1
  H  H188  1  0.29060003  0.91731428  1.00591102  1
  H  H189  1  0.41311280  0.92390330  0.00660561  1
  H  H190  1  0.70517950  0.41692367  0.50453197  1
  H  H191  1  0.83479091  0.90293058  0.99533357  1
  Pb  Pb192  1  0.24604722  0.05093965  0.74392641  1
  Pb  Pb193  1  0.24429586  0.37999974  0.75620688  1
  Pb  Pb194  1  0.24695324  0.71376576  0.74958253  1
  Pb  Pb195  1  0.74941701  0.04622092  0.75434014  1
  Pb  Pb196  1  0.75066644  0.38174237  0.74300490  1
  Pb  Pb197  1  0.74157860  0.71510149  0.75497598  1
  Pb  Pb198  1  0.25161559  0.28401774  0.24588465  1
  Pb  Pb199  1  0.25723866  0.61949044  0.25516865  1
  Pb  Pb200  1  0.25670452  0.95419845  0.25067243  1
  Pb  Pb201  1  0.75250537  0.28789270  0.25733967  1
  Pb  Pb202  1  0.75628883  0.61854299  0.24668967  1
  Pb  Pb203  1  0.75560111  0.94806282  0.25134359  1
  Pb  Pb204  1  -0.00302907  0.21299740  0.74354292  1
  Pb  Pb205  1  -0.00339889  0.54994506  0.74495456  1
  Pb  Pb206  1  -0.00459748  0.88013470  0.74335140  1
  Pb  Pb207  1  0.50114148  0.21570797  0.75714791  1
  Pb  Pb208  1  0.49504159  0.54564731  0.74946291  1
  Pb  Pb209  1  0.49105915  0.88458989  0.75030583  1
  Pb  Pb210  1  -0.00248526  0.11746479  0.24908671  1
  Pb  Pb211  1  0.00519409  0.45281880  0.24304704  1
  Pb  Pb212  1  0.00982096  0.78428841  0.25879281  1
  Pb  Pb213  1  0.50340295  0.12181273  0.24899739  1
  Pb  Pb214  1  0.50457776  0.45291857  0.26092490  1
  Pb  Pb215  1  0.50570921  0.78547151  0.24888244  1
  C  C216  1  -0.00298083  0.04729462  0.63067788  1
  C  C217  1  -0.00367447  0.38014399  0.63347099  1
  C  C218  1  0.00161477  0.71186705  0.63445915  1
  C  C219  1  0.49707136  0.04690942  0.62683324  1
  C  C220  1  0.49862270  0.37627086  0.63306322  1
  C  C221  1  0.49656295  0.71320319  0.63343349  1
  C  C222  1  0.00265014  0.28734660  0.13186952  1
  C  C223  1  0.00248281  0.62246342  0.13399208  1
  C  C224  1  -0.00008148  0.95403021  0.13442501  1
  C  C225  1  0.50233969  0.28997984  0.12873845  1
  C  C226  1  0.50076972  0.62038941  0.13224699  1
  C  C227  1  0.50535044  0.95367956  0.13619799  1
  C  C228  1  0.00515986  0.04605388  0.86830785  1
  C  C229  1  -0.00445860  0.37858939  0.86888548  1
  C  C230  1  0.00056786  0.71266287  0.87185325  1
  C  C231  1  0.50418111  0.04756690  0.86915258  1
  C  C232  1  0.49862181  0.37982949  0.86854796  1
  C  C233  1  0.49316425  0.71094782  0.86571190  1
  C  C234  1  -0.00456540  0.28687790  0.36761317  1
  C  C235  1  0.00538091  0.61911962  0.37099071  1
  C  C236  1  0.00537145  0.95503457  0.36973612  1
  C  C237  1  0.49694973  0.28586004  0.36657919  1
  C  C238  1  0.50744297  0.62105465  0.36911193  1
  C  C239  1  0.50726692  0.95635381  0.36994951  1
  C  C240  1  0.25056915  0.21351222  0.63100128  1
  C  C241  1  0.24601659  0.54562982  0.63392441  1
  C  C242  1  0.24375145  0.88057161  0.63231424  1
  C  C243  1  0.74770188  0.21088483  0.63402133  1
  C  C244  1  0.74106350  0.54742667  0.62925384  1
  C  C245  1  0.74360348  0.87759551  0.62925012  1
  C  C246  1  0.24259040  0.12078721  0.13335339  1
  C  C247  1  0.25531484  0.45510187  0.13296774  1
  C  C248  1  0.25243243  0.78734707  0.13289895  1
  C  C249  1  0.74253083  0.12136707  0.13141977  1
  C  C250  1  0.75249139  0.45355460  0.12676789  1
  C  C251  1  0.74730811  0.78569543  0.13306711  1
  C  C252  1  0.24944028  0.21103831  0.86909401  1
  C  C253  1  0.24792113  0.54697701  0.86555485  1
  C  C254  1  0.25057144  0.87769964  0.86905010  1
  C  C255  1  0.74612963  0.21467248  0.87238571  1
  C  C256  1  0.74755633  0.54453894  0.86869754  1
  C  C257  1  0.74526748  0.87969326  0.86323676  1
  C  C258  1  0.25356975  0.12168468  0.37003177  1
  C  C259  1  0.25566104  0.45365040  0.36387686  1
  C  C260  1  0.25547895  0.78689360  0.36445509  1
  C  C261  1  0.75271353  0.12000656  0.36983295  1
  C  C262  1  0.75154405  0.45559110  0.36847670  1
  C  C263  1  0.74720176  0.78654868  0.37053800  1
  C  C264  1  0.71067479  0.56942000  0.96338325  1
  C  C265  1  0.97917016  0.92740381  0.03704764  1
  C  C266  1  0.19114931  0.24133437  0.95618090  1
  C  C267  1  0.71640941  0.08811104  0.46108878  1
  C  C268  1  0.06848142  0.92633990  0.45501835  1
  C  C269  1  0.46126386  0.59418908  0.04006670  1
  C  C270  1  0.45557542  0.93334942  0.04366009  1
  C  C271  1  0.71001429  0.42944558  0.03501248  1
  C  C272  1  0.56226463  0.07311302  0.95770836  1
  C  C273  1  0.23210197  0.42650653  0.03703515  1
  C  C274  1  0.26785957  0.90815566  0.53632698  1
  C  C275  1  0.44022266  0.40507507  0.54680691  1
  C  C276  1  0.93487171  0.73918003  0.95682500  1
  C  C277  1  0.29774105  0.23885324  0.53929991  1
  C  C278  1  0.56139832  0.25908216  0.04222543  1
  C  C279  1  0.79218227  0.56955504  0.96207013  1
  C  C280  1  0.68804596  0.90848960  0.54137829  1
  C  C281  1  0.79312868  0.89746525  0.95700670  1
  C  C282  1  0.71888633  0.23753424  0.53948558  1
  C  C283  1  0.28852429  0.75828553  0.04079610  1
  C  C284  1  0.45451806  0.07376964  0.53520080  1
  C  C285  1  0.23548409  0.76034436  0.46041398  1
  C  C286  1  0.95033698  0.26189070  0.04279293  1
  C  C287  1  0.04035438  0.59587485  0.04130007  1
  C  C288  1  0.06564174  0.07369618  0.95437651  1
  C  C289  1  0.81153609  0.42490239  0.45470131  1
  C  C290  1  0.03726479  0.40578125  0.54133636  1
  C  C291  1  0.49431144  0.59371378  0.46682891  1
  C  C292  1  0.57495043  0.59790254  0.45489883  1
  C  C293  1  0.71134961  0.89716602  0.96063097  1
  C  C294  1  0.48113392  0.07488429  0.96607184  1
  C  C295  1  0.19874624  0.09357916  0.04218350  1
  C  C296  1  0.06012441  0.92932165  0.04667356  1
  C  C297  1  0.31170721  0.09041728  0.45701884  1
  C  C298  1  0.53721052  0.93533858  0.03850299  1
  C  C299  1  0.18689999  0.90651826  0.95401062  1
  C  C300  1  0.76012479  0.09551457  0.03409178  1
  C  C301  1  0.79024275  0.42865258  0.03396246  1
  C  C302  1  0.80764976  0.76216981  0.45871700  1
  C  C303  1  0.01464689  0.74350521  0.96828416  1
  C  C304  1  0.53539894  0.07300488  0.53410415  1
  C  C305  1  0.26375014  0.57131168  0.53735746  1
  C  C306  1  0.20915281  0.57549122  0.95790457  1
  C  C307  1  0.46189145  0.74008636  0.54008862  1
  C  C308  1  0.72700355  0.75972418  0.46752104  1
  C  C309  1  0.45339563  0.25807022  0.45803735  1
  C  C310  1  0.72860270  0.24289367  0.96842629  1
  C  C311  1  0.80817475  0.23953562  0.95858835  1
  N  N312  1  0.18519762  0.56887846  0.54553651  1
  N  N313  1  0.96576378  0.25956719  0.46011932  1
  N  N314  1  0.31421253  0.76279623  0.45333183  1
  N  N315  1  0.79377583  0.08736090  0.46188964  1
  N  N316  1  0.93954319  0.73634010  0.54830137  1
  N  N317  1  0.99029652  0.92370401  0.46427202  1
  N  N318  1  0.01695377  0.40744921  0.96231774  1
  N  N319  1  0.93939427  0.40492235  0.95702306  1
  N  N320  1  0.96098362  0.59477834  0.04053004  1
  N  N321  1  0.54107983  0.74071462  0.54071472  1
  N  N322  1  0.52725106  0.74160884  0.95893868  1
  N  N323  1  0.51919109  0.40766217  0.53898898  1
  N  N324  1  0.28703191  0.57489518  0.95995517  1
  N  N325  1  0.23313592  0.08908831  0.46348636  1
  N  N326  1  0.68187438  0.09691183  0.04534168  1
  N  N327  1  0.93777882  0.07204925  0.54296049  1
  N  N328  1  0.48336375  0.92829827  0.46339309  1
  N  N329  1  0.53095143  0.25811907  0.46236343  1
  N  N330  1  0.21400523  0.42627989  0.45661605  1
  N  N331  1  0.27602055  0.09231873  0.03767315  1
  N  N332  1  0.48308634  0.25648252  0.03555198  1
  N  N333  1  0.56117183  0.92921161  0.45883911  1
  N  N334  1  0.21793927  0.23953378  0.53730418  1
  N  N335  1  0.20922253  0.75867226  0.04017359  1
  N  N336  1  0.76652747  0.90912247  0.53580034  1
  N  N337  1  0.97187421  0.58549700  0.46151269  1
  N  N338  1  0.52411685  0.40826327  0.96418479  1
  N  N339  1  0.95805296  0.40775735  0.53892067  1
  N  N340  1  0.72846874  0.75935140  0.03820432  1
  N  N341  1  0.79808003  0.23880388  0.54310096  1
  N  N342  1  0.44807245  0.40697235  0.95845414  1
  N  N343  1  0.26947454  0.24117644  0.96343571  1
  N  N344  1  0.26477717  0.90992588  0.96337599  1
  N  N345  1  0.01649297  0.74098893  0.54015206  1
  N  N346  1  0.29068118  0.42615956  0.45823693  1
  N  N347  1  0.45066128  0.74181594  0.95688337  1
  N  N348  1  0.73334336  0.42451351  0.46278896  1
  N  N349  1  0.69053790  0.57524837  0.54075620  1
  N  N350  1  0.04420563  0.26000022  0.45861915  1
  N  N351  1  0.98677901  0.07785503  0.96245540  1
  N  N352  1  0.05019986  0.59713645  0.46224707  1
  N  N353  1  0.31076787  0.42717498  0.04646184  1
  N  N354  1  0.18895988  0.90536170  0.54420779  1
  N  N355  1  0.01502903  0.07558323  0.53673804  1
  N  N356  1  0.54049499  0.59251492  0.03832195  1
  N  N357  1  0.02894075  0.25804557  0.03536462  1
  N  N358  1  0.76832711  0.57719676  0.53436383  1
  N  N359  1  0.80556711  0.76253743  0.04523053  1
  N  N360  1  0.05303094  0.05933104  0.58911991  1
  N  N361  1  0.06232861  0.38942173  0.59913689  1
  N  N362  1  0.05598967  0.72286162  0.59120902  1
  N  N363  1  0.56137587  0.05687169  0.59003362  1
  N  N364  1  0.55513772  0.38660312  0.59127709  1
  N  N365  1  0.56086077  0.72397364  0.59893520  1
  N  N366  1  0.44543003  0.27733879  0.08797148  1
  N  N367  1  0.43522685  0.61072746  0.09750064  1
  N  N368  1  0.43712409  0.94496153  0.10446845  1
  N  N369  1  0.93309703  0.27935934  0.10177955  1
  N  N370  1  0.93920154  0.61144818  0.09853827  1
  N  N371  1  0.94263648  0.94299991  0.09204478  1
  N  N372  1  0.44592007  0.05883772  0.90977971  1
  N  N373  1  0.43084546  0.38963724  0.89900614  1
  N  N374  1  0.42827918  0.72311282  0.89901610  1
  N  N375  1  0.94950879  0.05788401  0.91037604  1
  N  N376  1  0.92655161  0.38799521  0.89853619  1
  N  N377  1  0.92754035  0.72014875  0.89592044  1
  N  N378  1  0.06165615  0.27649604  0.40052286  1
  N  N379  1  0.07126311  0.60805209  0.40339058  1
  N  N380  1  0.07816295  0.94422612  0.39570571  1
  N  N381  1  0.55817751  0.27576650  0.40401768  1
  N  N382  1  0.58128359  0.61443623  0.39471496  1
  N  N383  1  0.57538640  0.94503272  0.40002757  1
  N  N384  1  0.31794248  0.22219864  0.59747779  1
  N  N385  1  0.30231764  0.55734948  0.59115380  1
  N  N386  1  0.30227570  0.89308957  0.59095039  1
  N  N387  1  0.81414393  0.22201628  0.60228901  1
  N  N388  1  0.79932043  0.55981384  0.58892816  1
  N  N389  1  0.80197399  0.88807046  0.58914140  1
  N  N390  1  0.17544022  0.11006624  0.10023321  1
  N  N391  1  0.19744316  0.44282474  0.09099851  1
  N  N392  1  0.18857186  0.77665471  0.09784820  1
  N  N393  1  0.67179530  0.11179871  0.10550091  1
  N  N394  1  0.68633882  0.44431438  0.09162663  1
  N  N395  1  0.69126440  0.77311653  0.09153751  1
  N  N396  1  0.17860697  0.22341514  0.89758002  1
  N  N397  1  0.18308584  0.55873965  0.90092585  1
  N  N398  1  0.17763301  0.88784417  0.89526222  1
  N  N399  1  0.69038972  0.22765498  0.91581074  1
  N  N400  1  0.68382658  0.55449243  0.90699589  1
  N  N401  1  0.68264699  0.88678237  0.90179658  1
  N  N402  1  0.32436010  0.10980234  0.39887438  1
  N  N403  1  0.31766652  0.44338614  0.40087806  1
  N  N404  1  0.32475910  0.77901845  0.39337119  1
  N  N405  1  0.81669110  0.10744522  0.40370350  1
  N  N406  1  0.82306902  0.44351912  0.39629866  1
  N  N407  1  0.81876028  0.77890319  0.39727214  1
  N  N408  1  0.43029992  0.27475453  0.40014501  1
  N  N409  1  0.45338549  0.60830967  0.41257518  1
  N  N410  1  0.44894433  0.94691516  0.41052753  1
  N  N411  1  0.93468300  0.27557914  0.40526808  1
  N  N412  1  0.94361246  0.60960549  0.40837187  1
  N  N413  1  0.95079238  0.94414465  0.41255291  1
  N  N414  1  0.07693418  0.05551534  0.89539739  1
  N  N415  1  0.05302532  0.39032049  0.90958337  1
  N  N416  1  0.05444876  0.72744459  0.91719879  1
  N  N417  1  0.57551522  0.05675492  0.89832931  1
  N  N418  1  0.55686517  0.39122598  0.90882928  1
  N  N419  1  0.55473915  0.72260647  0.90265211  1
  N  N420  1  0.06004429  0.27403041  0.09168038  1
  N  N421  1  0.06714950  0.61225237  0.09856888  1
  N  N422  1  0.07133521  0.94574683  0.10731099  1
  N  N423  1  0.57352980  0.27901438  0.10015993  1
  N  N424  1  0.56344534  0.60895579  0.09613393  1
  N  N425  1  0.56712485  0.94743360  0.09657731  1
  N  N426  1  0.43112479  0.05810309  0.59197405  1
  N  N427  1  0.42741360  0.38719758  0.60561855  1
  N  N428  1  0.43287787  0.72366377  0.59687402  1
  N  N429  1  0.92697554  0.05561491  0.60203072  1
  N  N430  1  0.93422282  0.39179026  0.59688533  1
  N  N431  1  0.93071764  0.72107906  0.60768383  1
  N  N432  1  0.19618381  0.11025429  0.41072694  1
  N  N433  1  0.19129926  0.44282064  0.39833549  1
  N  N434  1  0.19815866  0.77508600  0.40632505  1
  N  N435  1  0.68839288  0.10784598  0.40575684  1
  N  N436  1  0.69520106  0.44526389  0.41032204  1
  N  N437  1  0.69064988  0.77426502  0.41443447  1
  N  N438  1  0.30651464  0.22043279  0.91063730  1
  N  N439  1  0.31114671  0.55687756  0.90105845  1
  N  N440  1  0.30531183  0.88900941  0.91181539  1
  N  N441  1  0.81844508  0.22236591  0.89932256  1
  N  N442  1  0.81389637  0.55408894  0.90199203  1
  N  N443  1  0.81288107  0.88681163  0.89625767  1
  N  N444  1  0.30343549  0.10941270  0.09604901  1
  N  N445  1  0.32475936  0.44600685  0.10509284  1
  N  N446  1  0.31670926  0.77569782  0.09747126  1
  N  N447  1  0.79832683  0.11029021  0.08751172  1
  N  N448  1  0.81711968  0.44322311  0.09001151  1
  N  N449  1  0.81710980  0.77862854  0.10409245  1
  N  N450  1  0.18902043  0.22504766  0.59420760  1
  N  N451  1  0.17594755  0.55337110  0.60621403  1
  N  N452  1  0.17460139  0.88742329  0.60313236  1
  N  N453  1  0.68647356  0.22108292  0.59495995  1
  N  N454  1  0.67338638  0.55730478  0.59906216  1
  N  N455  1  0.67360851  0.88966495  0.59939565  1
  Cl  Cl456  1  0.23576811  0.05894245  0.60219883  1
  Cl  Cl457  1  0.24555804  0.38093863  0.62553605  1
  Cl  Cl458  1  0.24072842  0.72577649  0.61227848  1
  Cl  Cl459  1  0.74496205  0.04501406  0.62439419  1
  Cl  Cl460  1  0.73972985  0.39481548  0.60251030  1
  Cl  Cl461  1  0.74531340  0.71896629  0.62298533  1
  Cl  Cl462  1  0.25899416  0.27237211  0.10292670  1
  Cl  Cl463  1  0.25113154  0.61397303  0.12440702  1
  Cl  Cl464  1  0.25578625  0.94118936  0.11448662  1
  Cl  Cl465  1  0.75318015  0.28540106  0.12732767  1
  Cl  Cl466  1  0.75162837  0.61438208  0.11231214  1
  Cl  Cl467  1  0.75519365  0.94320694  0.11703025  1
  Cl  Cl468  1  0.26076732  0.04764202  0.87433769  1
  Cl  Cl469  1  0.23929583  0.38864965  0.89361790  1
  Cl  Cl470  1  0.24278053  0.72236836  0.88307938  1
  Cl  Cl471  1  0.76474168  0.05884640  0.88993448  1
  Cl  Cl472  1  0.74200097  0.38495061  0.87505691  1
  Cl  Cl473  1  0.73616744  0.71856352  0.89402926  1
  Cl  Cl474  1  0.24548490  0.27423366  0.38426453  1
  Cl  Cl475  1  0.25999004  0.61147960  0.39175028  1
  Cl  Cl476  1  0.26497556  0.94648647  0.38758215  1
  Cl  Cl477  1  0.74793625  0.27973159  0.39276120  1
  Cl  Cl478  1  0.76390348  0.61016327  0.37797143  1
  Cl  Cl479  1  0.76599964  0.94022097  0.39329706  1
  Cl  Cl480  1  0.00233307  0.22173275  0.60778599  1
  Cl  Cl481  1  -0.01463759  0.56208561  0.60623567  1
  Cl  Cl482  1  -0.01307993  0.89334253  0.60207386  1
  Cl  Cl483  1  0.50101065  0.21623532  0.62564823  1
  Cl  Cl484  1  0.48852042  0.55240274  0.61363494  1
  Cl  Cl485  1  0.48594846  0.89436801  0.60997576  1
  Cl  Cl486  1  -0.01530241  0.10742812  0.10896260  1
  Cl  Cl487  1  0.01342641  0.44140393  0.10558314  1
  Cl  Cl488  1  0.00312141  0.77961627  0.12735860  1
  Cl  Cl489  1  0.48775122  0.11872870  0.11368679  1
  Cl  Cl490  1  0.50468621  0.44658938  0.13064212  1
  Cl  Cl491  1  0.50846039  0.77975351  0.11741961  1
  Cl  Cl492  1  -0.00158752  0.21472669  0.87322836  1
  Cl  Cl493  1  0.00085512  0.55254786  0.87663767  1
  Cl  Cl494  1  -0.00406779  0.88692299  0.87465727  1
  Cl  Cl495  1  0.49181354  0.22775649  0.89777635  1
  Cl  Cl496  1  0.49618889  0.55447171  0.88136807  1
  Cl  Cl497  1  0.49135338  0.89478990  0.88531829  1
  Cl  Cl498  1  0.01096879  0.10658203  0.39116648  1
  Cl  Cl499  1  0.00790714  0.44891339  0.37635322  1
  Cl  Cl500  1  0.01589227  0.77309789  0.39915284  1
  Cl  Cl501  1  0.50573258  0.11823467  0.37697939  1
  Cl  Cl502  1  0.50845517  0.43717612  0.39916171  1
  Cl  Cl503  1  0.50733761  0.77985080  0.38311159  1
  Cl  Cl504  1  0.35288802  0.14710277  0.74617873  1
  Cl  Cl505  1  0.35493506  0.48052973  0.75226060  1
  Cl  Cl506  1  0.35477491  0.81627203  0.74799762  1
  Cl  Cl507  1  0.85975875  0.14754617  0.74682694  1
  Cl  Cl508  1  0.85374759  0.47740855  0.74445993  1
  Cl  Cl509  1  0.86008816  0.81184132  0.75043041  1
  Cl  Cl510  1  0.14424707  0.18692481  0.25008712  1
  Cl  Cl511  1  0.14290364  0.52007367  0.24936805  1
  Cl  Cl512  1  0.14326438  0.85457545  0.25141336  1
  Cl  Cl513  1  0.64185335  0.18671177  0.24509159  1
  Cl  Cl514  1  0.64265136  0.51904512  0.25282262  1
  Cl  Cl515  1  0.64520196  0.85403093  0.25101733  1
  Cl  Cl516  1  0.13643239  0.14389427  0.75298881  1
  Cl  Cl517  1  0.13268595  0.48084719  0.74418782  1
  Cl  Cl518  1  0.13172940  0.81286045  0.74623703  1
  Cl  Cl519  1  0.63798244  0.14716080  0.75801907  1
  Cl  Cl520  1  0.63389292  0.48035359  0.74410497  1
  Cl  Cl521  1  0.63909526  0.81449463  0.74714089  1
  Cl  Cl522  1  0.36306003  0.18651230  0.25325801  1
  Cl  Cl523  1  0.36467882  0.51961662  0.24918594  1
  Cl  Cl524  1  0.36675028  0.85290908  0.25093885  1
  Cl  Cl525  1  0.86078260  0.18372433  0.25420323  1
  Cl  Cl526  1  0.86675520  0.51788046  0.24813080  1
  Cl  Cl527  1  0.86300772  0.85459297  0.25291899  1
  Cl  Cl528  1  0.10953581  0.31158395  0.75203140  1
  Cl  Cl529  1  0.10414393  0.64506445  0.74770483  1
  Cl  Cl530  1  0.10936951  0.97877613  0.74632790  1
  Cl  Cl531  1  0.60218925  0.31233160  0.74944423  1
  Cl  Cl532  1  0.60806797  0.64535797  0.74704212  1
  Cl  Cl533  1  0.61183417  0.97956475  0.75520800  1
  Cl  Cl534  1  0.39006237  0.02236548  0.24846712  1
  Cl  Cl535  1  0.38798968  0.35506863  0.25095080  1
  Cl  Cl536  1  0.39299255  0.68670523  0.25425135  1
  Cl  Cl537  1  0.89765482  0.02035141  0.25298027  1
  Cl  Cl538  1  0.89318774  0.35234053  0.25212071  1
  Cl  Cl539  1  0.89143150  0.68868887  0.25210770  1
  Cl  Cl540  1  0.38139385  0.31225926  0.75277966  1
  Cl  Cl541  1  0.38664224  0.64903896  0.74680845  1
  Cl  Cl542  1  0.39207054  0.98178971  0.74164265  1
  Cl  Cl543  1  0.88806644  0.31506710  0.74756279  1
  Cl  Cl544  1  0.88240009  0.64776925  0.75294769  1
  Cl  Cl545  1  0.88992312  0.98278314  0.74942905  1
  Cl  Cl546  1  0.11811506  0.02148011  0.25088241  1
  Cl  Cl547  1  0.11391493  0.35041552  0.24993480  1
  Cl  Cl548  1  0.10977049  0.68687544  0.25790566  1
  Cl  Cl549  1  0.61089289  0.01949069  0.24953776  1
  Cl  Cl550  1  0.61050101  0.35007700  0.25357364  1
  Cl  Cl551  1  0.61739341  0.68514432  0.25241687  1
