# generated using pymatgen
data_H8PbC4(N3Cl2)2
_symmetry_space_group_name_H-M   'P 1'
_cell_length_a   16.62303766
_cell_length_b   22.51204831
_cell_length_c   21.59202529
_cell_angle_alpha   90.00138466
_cell_angle_beta   89.97826009
_cell_angle_gamma   89.99390099
_symmetry_Int_Tables_number   1
_chemical_formula_structural   H8PbC4(N3Cl2)2
_chemical_formula_sum   'H192 Pb24 C96 N144 Cl96'
_cell_volume   8080.13742182
_cell_formula_units_Z   24
loop_
 _symmetry_equiv_pos_site_id
 _symmetry_equiv_pos_as_xyz
  1  'x, y, z'
loop_
 _atom_site_type_symbol
 _atom_site_label
 _atom_site_symmetry_multiplicity
 _atom_site_fract_x
 _atom_site_fract_y
 _atom_site_fract_z
 _atom_site_occupancy
  H  H0  1  -0.00943927  0.02812635  0.67551454  1
  H  H1  1  0.00783593  0.36135011  0.67990644  1
  H  H2  1  -0.00381997  0.69596589  0.67715865  1
  H  H3  1  0.50783891  0.02921606  0.67985954  1
  H  H4  1  0.50351351  0.36279422  0.67985698  1
  H  H5  1  0.50348904  0.69623500  0.67802928  1
  H  H6  1  -0.00524212  0.30172573  0.17898866  1
  H  H7  1  0.00047793  0.63247859  0.18026570  1
  H  H8  1  -0.00343179  0.97353588  0.17764315  1
  H  H9  1  0.49444669  0.30268957  0.17640145  1
  H  H10  1  0.50444304  0.63698785  0.17492446  1
  H  H11  1  0.50391319  0.96845956  0.17632704  1
  H  H12  1  0.00310943  0.03225784  0.82179568  1
  H  H13  1  0.00290046  0.36056130  0.81838713  1
  H  H14  1  -0.01108487  0.69570452  0.81817465  1
  H  H15  1  0.50336140  0.03020816  0.82325075  1
  H  H16  1  0.50705072  0.36469578  0.82090135  1
  H  H17  1  0.51032498  0.69628134  0.82485602  1
  H  H18  1  -0.01601048  0.30326010  0.32743357  1
  H  H19  1  0.01220263  0.63615513  0.31851725  1
  H  H20  1  -0.00537048  0.96774746  0.32396453  1
  H  H21  1  0.51204391  0.30372945  0.32079438  1
  H  H22  1  0.48722606  0.63457846  0.31775605  1
  H  H23  1  0.50061118  0.97117802  0.32014657  1
  H  H24  1  0.25911197  0.19792217  0.68177849  1
  H  H25  1  0.24989312  0.52951434  0.68236723  1
  H  H26  1  0.25144712  0.86186539  0.67546266  1
  H  H27  1  0.74396265  0.19989263  0.67939143  1
  H  H28  1  0.74855920  0.52882450  0.67761463  1
  H  H29  1  0.74138699  0.86295603  0.68073084  1
  H  H30  1  0.24700796  0.13517546  0.18017795  1
  H  H31  1  0.24225068  0.47046429  0.17487933  1
  H  H32  1  0.24103209  0.80414093  0.17868715  1
  H  H33  1  0.74649232  0.13784538  0.17737803  1
  H  H34  1  0.75846089  0.46979361  0.18116444  1
  H  H35  1  0.76297453  0.79945697  0.18509342  1
  H  H36  1  0.25531870  0.19476278  0.82597503  1
  H  H37  1  0.24199310  0.53134261  0.82184389  1
  H  H38  1  0.23600172  0.86606077  0.81974417  1
  H  H39  1  0.75221740  0.19604251  0.82550404  1
  H  H40  1  0.75567214  0.52876917  0.82053982  1
  H  H41  1  0.76258763  0.86585546  0.81907709  1
  H  H42  1  0.24903596  0.13871865  0.32193559  1
  H  H43  1  0.24756193  0.46833616  0.31867935  1
  H  H44  1  0.27022794  0.80013723  0.32450097  1
  H  H45  1  0.75328314  0.13933195  0.32281360  1
  H  H46  1  0.75362841  0.47108751  0.32040839  1
  H  H47  1  0.73744226  0.80361628  0.32464136  1
  H  H48  1  0.13084169  0.04513864  0.62117158  1
  H  H49  1  0.12441198  0.38793918  0.60153896  1
  H  H50  1  0.11949642  0.72169965  0.60702993  1
  H  H51  1  0.62691144  0.05802277  0.60411573  1
  H  H52  1  0.62884293  0.38829915  0.61198359  1
  H  H53  1  0.61499922  0.72406656  0.59640908  1
  H  H54  1  0.38478541  0.27546551  0.09469282  1
  H  H55  1  0.37077408  0.61322161  0.11515420  1
  H  H56  1  0.37907444  0.94169863  0.10827693  1
  H  H57  1  0.88658502  0.27444526  0.09577528  1
  H  H58  1  0.87482472  0.61346876  0.11231833  1
  H  H59  1  0.88148253  0.94471353  0.10025639  1
  H  H60  1  0.36616360  0.05012826  0.88051543  1
  H  H61  1  0.36927251  0.38223319  0.87747494  1
  H  H62  1  0.37012906  0.71784746  0.87583011  1
  H  H63  1  0.86707712  0.05463045  0.87936715  1
  H  H64  1  0.87289570  0.38417586  0.88530759  1
  H  H65  1  0.87101713  0.71775339  0.89489665  1
  H  H66  1  0.12551205  0.28604751  0.37401803  1
  H  H67  1  0.12122138  0.61201493  0.40131875  1
  H  H68  1  0.12459283  0.94902193  0.39014085  1
  H  H69  1  0.62297511  0.27544462  0.40051904  1
  H  H70  1  0.62520546  0.61596768  0.37644215  1
  H  H71  1  0.62162225  0.94449387  0.39364387  1
  H  H72  1  0.37384638  0.22493491  0.60149359  1
  H  H73  1  0.37511316  0.55185909  0.61370607  1
  H  H74  1  0.37382643  0.88705175  0.60323435  1
  H  H75  1  0.87835923  0.21841644  0.61859135  1
  H  H76  1  0.87458982  0.55415396  0.60876308  1
  H  H77  1  0.87310185  0.88714649  0.61744228  1
  H  H78  1  0.13370679  0.10817664  0.10025561  1
  H  H79  1  0.13388841  0.44297991  0.09360030  1
  H  H80  1  0.13341578  0.77747454  0.09611605  1
  H  H81  1  0.63933346  0.10940159  0.09508015  1
  H  H82  1  0.62814061  0.44749691  0.11697437  1
  H  H83  1  0.63038558  0.78014562  0.12370117  1
  H  H84  1  0.11908236  0.21574770  0.88416275  1
  H  H85  1  0.13271946  0.55607792  0.90223148  1
  H  H86  1  0.12393568  0.89278308  0.90160598  1
  H  H87  1  0.61857021  0.22094464  0.88559720  1
  H  H88  1  0.62699613  0.55364872  0.88699294  1
  H  H89  1  0.62208221  0.88368655  0.87429461  1
  H  H90  1  0.36863186  0.11028136  0.39371779  1
  H  H91  1  0.37384134  0.44605821  0.38811047  1
  H  H92  1  0.37447469  0.77492231  0.40848747  1
  H  H93  1  0.86495395  0.11156396  0.40325994  1
  H  H94  1  0.87424596  0.44549869  0.39169620  1
  H  H95  1  0.88114059  0.78412071  0.36997342  1
  H  H96  1  0.37627110  0.28354096  0.37926537  1
  H  H97  1  0.37809408  0.61231852  0.40136082  1
  H  H98  1  0.37304017  0.94639456  0.38624453  1
  H  H99  1  0.88308639  0.27217242  0.41290562  1
  H  H100  1  0.87417450  0.61517040  0.37628834  1
  H  H101  1  0.87695867  0.93919314  0.39819399  1
  H  H102  1  0.11389493  0.05794715  0.90359956  1
  H  H103  1  0.12198562  0.38716301  0.89235499  1
  H  H104  1  0.12030164  0.71908764  0.88224519  1
  H  H105  1  0.61221708  0.06187897  0.90324256  1
  H  H106  1  0.61665360  0.38864558  0.90116068  1
  H  H107  1  0.61466019  0.72642965  0.90866383  1
  H  H108  1  0.13283220  0.28371004  0.12220321  1
  H  H109  1  0.12293695  0.61224127  0.11036127  1
  H  H110  1  0.12946680  0.94820984  0.11815542  1
  H  H111  1  0.63170090  0.28233844  0.11829650  1
  H  H112  1  0.61854000  0.60754640  0.09841102  1
  H  H113  1  0.62729349  0.94758138  0.10454135  1
  H  H114  1  0.37830231  0.04931851  0.61360688  1
  H  H115  1  0.38002163  0.38822032  0.60819179  1
  H  H116  1  0.36799280  0.71952857  0.61812834  1
  H  H117  1  0.88591207  0.06352351  0.59361461  1
  H  H118  1  0.87655689  0.38331721  0.61414402  1
  H  H119  1  0.87007398  0.72138235  0.60857341  1
  H  H120  1  0.12046832  0.11493298  0.38885091  1
  H  H121  1  0.12439526  0.44416015  0.39133703  1
  H  H122  1  0.13051197  0.78448852  0.37551509  1
  H  H123  1  0.61806142  0.11265678  0.37934781  1
  H  H124  1  0.62508883  0.44985085  0.38582053  1
  H  H125  1  0.63921737  0.77233993  0.41251122  1
  H  H126  1  0.36563798  0.22637008  0.90388220  1
  H  H127  1  0.37982793  0.54981203  0.87776522  1
  H  H128  1  0.37069715  0.88696484  0.88191646  1
  H  H129  1  0.86658327  0.22515413  0.90190027  1
  H  H130  1  0.87674493  0.55362891  0.89340627  1
  H  H131  1  0.86746285  0.89270489  0.90372280  1
  H  H132  1  0.38055716  0.11499343  0.11636225  1
  H  H133  1  0.38015500  0.44966407  0.11908754  1
  H  H134  1  0.38000998  0.78011150  0.12423343  1
  H  H135  1  0.88594760  0.11599723  0.12301041  1
  H  H136  1  0.87733371  0.44703602  0.10759034  1
  H  H137  1  0.87920227  0.77997449  0.10732159  1
  H  H138  1  0.12620157  0.21820811  0.61760301  1
  H  H139  1  0.12517848  0.55195314  0.61353059  1
  H  H140  1  0.12470378  0.88531268  0.60841911  1
  H  H141  1  0.62992695  0.22301558  0.60214721  1
  H  H142  1  0.62570412  0.55590585  0.60735465  1
  H  H143  1  0.62476932  0.88931303  0.60462277  1
  H  H144  1  0.93517641  0.92472304  0.50221653  1
  H  H145  1  0.53764047  0.75020272  1.00909157  1
  H  H146  1  0.55167206  0.26323122  0.50314370  1
  H  H147  1  0.82491427  0.41304298  -0.00051245  1
  H  H148  1  0.41841579  0.08130519  0.50391131  1
  H  H149  1  0.19620509  0.58472573  1.00785095  1
  H  H150  1  0.53928801  0.07865410  1.00583682  1
  H  H151  1  0.17057697  0.57919699  0.50131654  1
  H  H152  1  0.32297313  0.91402997  0.49906855  1
  H  H153  1  0.08188677  0.73788743  0.99105936  1
  H  H154  1  0.66252520  0.75623520  0.00842744  1
  H  H155  1  0.32703387  0.41727510  0.49738863  1
  H  H156  1  0.11606641  0.25329585  0.48941069  1
  H  H157  1  0.82606653  0.41595966  0.50077587  1
  H  H158  1  0.04866511  0.58209772  0.50537064  1
  H  H159  1  0.79263602  0.91850745  1.00684124  1
  H  H160  1  0.42702877  0.92742549  0.00170608  1
  H  H161  1  0.54354718  0.75057894  0.49553261  1
  H  H162  1  0.91178586  0.74705748  0.50165012  1
  H  H163  1  0.65213730  0.25241320  0.99280912  1
  H  H164  1  0.40952824  0.23837819  0.47856313  1
  H  H165  1  0.55267035  0.41631859  1.00793302  1
  H  H166  1  0.35875486  0.75429328  0.01303857  1
  H  H167  1  0.14522085  0.24843293  0.99267128  1
  H  H168  1  0.06512905  0.42101901  0.99828675  1
  H  H169  1  0.39920759  0.58089519  0.00716729  1
  H  H170  1  0.08870168  0.91130719  0.49081520  1
  H  H171  1  0.72205923  0.74626244  0.50903149  1
  H  H172  1  0.93017110  0.73292340  1.00629395  1
  H  H173  1  0.86620703  0.08876249  0.01215223  1
  H  H174  1  0.79573862  0.08631051  0.50527387  1
  H  H175  1  0.82140786  0.75969495  -0.00324030  1
  H  H176  1  0.71005032  0.08245819  -0.00972339  1
  H  H177  1  0.66853445  0.57653271  0.99422671  1
  H  H178  1  0.20442607  0.75065312  -0.00920586  1
  H  H179  1  0.96333988  0.08239366  0.49318167  1
  H  H180  1  0.69087591  0.25046234  0.49262539  1
  H  H181  1  0.10965248  0.08596915  0.51706285  1
  H  H182  1  0.07482085  0.75162063  0.49772447  1
  H  H183  1  0.82694947  0.58339971  1.00151992  1
  H  H184  1  0.35876606  0.41557792  0.00998558  1
  H  H185  1  0.94728480  0.91575142  -0.00218445  1
  H  H186  1  0.45068392  0.58523697  0.50618609  1
  H  H187  1  0.39215243  0.08697419  0.98557783  1
  H  H188  1  0.68496255  0.92063943  0.49885328  1
  H  H189  1  0.65990239  0.42031876  0.49717306  1
  H  H190  1  0.33022075  0.58058353  0.50189488  1
  H  H191  1  0.57974980  0.91115453  0.00438058  1
  Pb  Pb192  1  0.24712914  0.04602645  0.75148596  1
  Pb  Pb193  1  0.24242838  0.38274931  0.74870864  1
  Pb  Pb194  1  0.24564408  0.71311203  0.75061028  1
  Pb  Pb195  1  0.74143132  0.05044972  0.74495652  1
  Pb  Pb196  1  0.74837482  0.37894501  0.75182996  1
  Pb  Pb197  1  0.74243319  0.71736423  0.75303874  1
  Pb  Pb198  1  0.25322906  0.28698752  0.24232814  1
  Pb  Pb199  1  0.25643677  0.61766057  0.25690176  1
  Pb  Pb200  1  0.25295515  0.95334241  0.25571118  1
  Pb  Pb201  1  0.75677836  0.28479990  0.25139804  1
  Pb  Pb202  1  0.75071336  0.62052043  0.24124210  1
  Pb  Pb203  1  0.75302384  0.95272437  0.25030346  1
  Pb  Pb204  1  -0.00261789  0.21140501  0.75600093  1
  Pb  Pb205  1  -0.00630924  0.54872754  0.75086517  1
  Pb  Pb206  1  -0.00414633  0.88418553  0.75440457  1
  Pb  Pb207  1  0.49102963  0.21673082  0.74457150  1
  Pb  Pb208  1  0.49936694  0.54652060  0.74984494  1
  Pb  Pb209  1  0.49283019  0.88117507  0.75053540  1
  Pb  Pb210  1  0.00370682  0.11962534  0.25716046  1
  Pb  Pb211  1  0.00311400  0.45297317  0.24514502  1
  Pb  Pb212  1  0.00717514  0.78442587  0.24004016  1
  Pb  Pb213  1  0.50250473  0.11986675  0.24354519  1
  Pb  Pb214  1  0.50481246  0.45119076  0.25264891  1
  Pb  Pb215  1  0.50325189  0.78697547  0.25980522  1
  C  C216  1  0.00263035  0.04503466  0.62917110  1
  C  C217  1  0.00305367  0.37661077  0.63236004  1
  C  C218  1  -0.00526743  0.71264559  0.62991075  1
  C  C219  1  0.50471267  0.04556048  0.63266097  1
  C  C220  1  0.50381724  0.37947391  0.63300697  1
  C  C221  1  0.49582536  0.71231286  0.63103330  1
  C  C222  1  0.00465465  0.28673822  0.13199248  1
  C  C223  1  -0.00070039  0.61923851  0.13213803  1
  C  C224  1  0.00223151  0.95638650  0.13104285  1
  C  C225  1  0.50402975  0.28714658  0.12964511  1
  C  C226  1  0.49738772  0.61979467  0.12838617  1
  C  C227  1  0.50339167  0.95240416  0.12880797  1
  C  C228  1  -0.00531168  0.04743333  0.86887105  1
  C  C229  1  -0.00091802  0.37732540  0.86542225  1
  C  C230  1  -0.00617085  0.71106962  0.86579306  1
  C  C231  1  0.49369095  0.04673682  0.87001877  1
  C  C232  1  0.49788719  0.37872205  0.86844405  1
  C  C233  1  0.49858313  0.71235451  0.87144772  1
  C  C234  1  -0.00139460  0.28720407  0.37338278  1
  C  C235  1  0.00235558  0.62095838  0.36558221  1
  C  C236  1  -0.00121514  0.95194556  0.37153255  1
  C  C237  1  0.50371035  0.28821967  0.36812746  1
  C  C238  1  0.49701012  0.62071675  0.36533760  1
  C  C239  1  0.49874643  0.95415772  0.36687731  1
  C  C240  1  0.25328723  0.21283927  0.63424031  1
  C  C241  1  0.25012505  0.54450237  0.63454709  1
  C  C242  1  0.25044645  0.87729221  0.62792143  1
  C  C243  1  0.75050081  0.21404546  0.63172164  1
  C  C244  1  0.74981222  0.54600829  0.63094054  1
  C  C245  1  0.74666608  0.87967967  0.63379502  1
  C  C246  1  0.25387822  0.12055354  0.13252066  1
  C  C247  1  0.25279209  0.45410322  0.12837040  1
  C  C248  1  0.25226165  0.78799832  0.13198979  1
  C  C249  1  0.75809395  0.12225531  0.13049925  1
  C  C250  1  0.75497384  0.45418261  0.13378783  1
  C  C251  1  0.75720814  0.78649700  0.13681842  1
  C  C252  1  0.24617030  0.21159915  0.87247034  1
  C  C253  1  0.25136479  0.54550687  0.86929239  1
  C  C254  1  0.24345383  0.88115041  0.86717615  1
  C  C255  1  0.74529229  0.21347072  0.87196834  1
  C  C256  1  0.75259539  0.54460599  0.86810790  1
  C  C257  1  0.75017312  0.88033964  0.86616074  1
  C  C258  1  0.24555054  0.12212876  0.36873040  1
  C  C259  1  0.24861552  0.45303250  0.36629526  1
  C  C260  1  0.25799795  0.78634447  0.37162929  1
  C  C261  1  0.74571739  0.12267983  0.36949305  1
  C  C262  1  0.75081780  0.45518683  0.36789459  1
  C  C263  1  0.75255916  0.78801053  0.37079061  1
  C  C264  1  0.68847345  0.09017554  0.45617308  1
  C  C265  1  0.51903020  0.40506731  0.96618900  1
  C  C266  1  0.20481462  0.90382482  0.53510033  1
  C  C267  1  0.94183276  0.07434071  0.95711775  1
  C  C268  1  0.46074147  0.07210627  0.54154278  1
  C  C269  1  0.05654477  0.92446600  0.04309947  1
  C  C270  1  0.29126123  0.56991274  0.54079463  1
  C  C271  1  0.45582983  0.92414507  0.45770417  1
  C  C272  1  0.78734487  0.76608574  0.03925524  1
  C  C273  1  0.47890497  0.59495770  0.46186234  1
  C  C274  1  0.98498185  0.25640244  0.47002252  1
  C  C275  1  0.20930437  0.56958072  0.54064192  1
  C  C276  1  0.02036569  0.59297871  0.46135793  1
  C  C277  1  0.72399277  0.24019731  0.53471659  1
  C  C278  1  0.02948014  0.40800381  0.95823444  1
  C  C279  1  0.27880315  0.09168240  0.46191381  1
  C  C280  1  0.73869394  0.09341993  0.03424151  1
  C  C281  1  0.54381577  0.40977314  0.54147516  1
  C  C282  1  0.70573507  0.76527241  0.04505425  1
  C  C283  1  0.03767831  0.59551238  0.03822657  1
  C  C284  1  0.52586829  0.58681015  0.03358297  1
  C  C285  1  0.27448801  0.75941273  0.46850774  1
  C  C286  1  0.03384961  0.74094312  0.53685484  1
  C  C287  1  0.76442528  0.90651129  0.96295515  1
  C  C288  1  0.77472981  0.24741983  0.96600964  1
  C  C289  1  0.48355371  0.25701065  0.03432990  1
  C  C290  1  0.23060345  0.57272631  0.96684527  1
  C  C291  1  0.78680842  0.42748497  0.46234666  1
  C  C292  1  0.71434387  0.57802347  0.53960767  1
  C  C293  1  0.23219013  0.75995282  0.03541755  1
  C  C294  1  0.27084979  0.24591580  0.96716374  1
  C  C295  1  0.96192129  0.73246939  0.96219037  1
  C  C296  1  0.80513983  0.23890826  0.54221413  1
  C  C297  1  0.06504679  0.26122162  0.45843838  1
  C  C298  1  0.70454973  0.42945023  0.46045507  1
  C  C299  1  0.95657817  0.59615082  0.03892039  1
  C  C300  1  0.43832253  0.40191662  0.95654473  1
  C  C301  1  0.31120626  0.56945096  0.95704796  1
  C  C302  1  0.06051587  0.26049546  0.04458740  1
  C  C303  1  0.19467030  0.76274364  0.45743550  1
  C  C304  1  0.70629127  0.42529406  0.04366500  1
  C  C305  1  0.23118729  0.42207460  0.03229104  1
  C  C306  1  0.71941435  0.90935989  0.53999113  1
  C  C307  1  0.28729182  0.42725651  0.45878031  1
  C  C308  1  0.82301882  0.75947703  0.45239809  1
  C  C309  1  0.43400240  0.74122952  0.95606573  1
  C  C310  1  0.78884495  0.57250867  0.96176010  1
  C  C311  1  0.78768799  0.42487200  0.03894008  1
  N  N312  1  0.44838895  0.26637425  0.45610057  1
  N  N313  1  0.30895265  0.42473475  0.04223757  1
  N  N314  1  0.55722887  0.59533505  0.45335122  1
  N  N315  1  0.46594535  0.40971286  0.53905692  1
  N  N316  1  0.56050396  0.26015620  0.04073208  1
  N  N317  1  0.20799763  0.42653517  0.46039134  1
  N  N318  1  0.04562924  0.93184718  0.46292844  1
  N  N319  1  0.81716990  0.09557701  0.04478113  1
  N  N320  1  0.94205519  0.59344839  0.45277420  1
  N  N321  1  0.70917194  0.57311182  0.95843541  1
  N  N322  1  0.20095107  0.09415346  0.46141323  1
  N  N323  1  0.97786472  0.92387848  0.03823879  1
  N  N324  1  0.19275923  0.24111790  0.95951093  1
  N  N325  1  0.43880585  0.74111535  0.54400085  1
  N  N326  1  0.51451394  0.08229820  0.96201153  1
  N  N327  1  0.95406349  0.74092143  0.53852984  1
  N  N328  1  0.04081486  0.73674840  0.95587244  1
  N  N329  1  0.79870043  0.90920775  0.54396744  1
  N  N330  1  0.03177706  0.40499852  0.53716244  1
  N  N331  1  0.29565965  0.90806483  0.95681756  1
  N  N332  1  0.51631756  0.74261149  0.53791016  1
  N  N333  1  0.53975124  0.07519505  0.53794969  1
  N  N334  1  0.98663506  0.08319037  0.53783287  1
  N  N335  1  0.53346005  0.92359736  0.46144448  1
  N  N336  1  0.06339301  0.06858072  0.54410894  1
  N  N337  1  0.95561510  0.40303392  0.54117853  1
  N  N338  1  0.52746174  0.25396503  0.46040061  1
  N  N339  1  0.01871575  0.07563482  0.96607043  1
  N  N340  1  0.95026683  0.40684128  0.95611761  1
  N  N341  1  0.21940048  0.90961812  0.96315308  1
  N  N342  1  0.28413562  0.90499458  0.53498924  1
  N  N343  1  0.27993957  0.24022139  0.53837688  1
  N  N344  1  0.20393538  0.23895315  0.54404959  1
  N  N345  1  0.44732862  0.58969897  0.04047846  1
  N  N346  1  0.31057214  0.76038306  0.04621227  1
  N  N347  1  0.76667684  0.09174692  0.46355225  1
  N  N348  1  0.43699502  0.06953701  0.95691890  1
  N  N349  1  0.54158061  0.93238927  0.03507184  1
  N  N350  1  0.46321587  0.91938006  0.03946548  1
  N  N351  1  0.79162656  0.57737693  0.53864012  1
  N  N352  1  0.30448362  0.09702996  0.04176975  1
  N  N353  1  0.96756583  0.91708307  0.46240570  1
  N  N354  1  0.69630708  0.24435716  0.95969863  1
  N  N355  1  0.51200528  0.74425054  0.96608832  1
  N  N356  1  0.22844907  0.09315959  0.03669632  1
  N  N357  1  0.74605390  0.75576144  0.46576607  1
  N  N358  1  0.68621574  0.90273988  0.95369400  1
  N  N359  1  0.98392872  0.25703315  0.03479603  1
  N  N360  1  0.07387289  0.05424378  0.60370648  1
  N  N361  1  0.06269999  0.38856015  0.59354689  1
  N  N362  1  0.05912286  0.72433537  0.59398654  1
  N  N363  1  0.56557710  0.05838327  0.59526122  1
  N  N364  1  0.56912913  0.39170241  0.59824780  1
  N  N365  1  0.55277826  0.72316319  0.58973175  1
  N  N366  1  0.44674118  0.27325602  0.08768954  1
  N  N367  1  0.42939594  0.61002594  0.09861849  1
  N  N368  1  0.43908080  0.94299009  0.09417601  1
  N  N369  1  0.94908225  0.27397032  0.09044745  1
  N  N370  1  0.93355826  0.61048197  0.09666586  1
  N  N371  1  0.94316611  0.94498114  0.09176495  1
  N  N372  1  0.42385244  0.05689093  0.89727109  1
  N  N373  1  0.42609486  0.38646763  0.89711861  1
  N  N374  1  0.42552485  0.72307745  0.89683515  1
  N  N375  1  0.92425165  0.05740758  0.89776371  1
  N  N376  1  0.93311801  0.38780412  0.89811506  1
  N  N377  1  0.93200165  0.71905038  0.90571218  1
  N  N378  1  0.07170834  0.27994336  0.39730050  1
  N  N379  1  0.05930367  0.60998221  0.40823473  1
  N  N380  1  0.06532208  0.94226510  0.40343999  1
  N  N381  1  0.56123402  0.27919915  0.40951858  1
  N  N382  1  0.56669991  0.61107315  0.39331587  1
  N  N383  1  0.56034553  0.94243876  0.40352755  1
  N  N384  1  0.31187990  0.22360196  0.59415448  1
  N  N385  1  0.31537463  0.55438557  0.59948877  1
  N  N386  1  0.31286457  0.88763694  0.59182293  1
  N  N387  1  0.82048169  0.22335170  0.60081190  1
  N  N388  1  0.81401264  0.55715064  0.59681330  1
  N  N389  1  0.81369269  0.89070688  0.60278933  1
  N  N390  1  0.19570563  0.10805562  0.09262271  1
  N  N391  1  0.19588963  0.44038590  0.08556756  1
  N  N392  1  0.19540875  0.77623839  0.08879394  1
  N  N393  1  0.70144707  0.10949551  0.08754083  1
  N  N394  1  0.68702956  0.44275180  0.10103163  1
  N  N395  1  0.68837173  0.77789094  0.10585043  1
  N  N396  1  0.17707793  0.21948697  0.90120304  1
  N  N397  1  0.19425895  0.55727141  0.91076195  1
  N  N398  1  0.18583924  0.89288801  0.90789356  1
  N  N399  1  0.67731878  0.22296608  0.90189871  1
  N  N400  1  0.68710859  0.55360551  0.90147119  1
  N  N401  1  0.67928850  0.88708789  0.89296261  1
  N  N402  1  0.30803303  0.10828317  0.40592074  1
  N  N403  1  0.31380556  0.44333606  0.40134130  1
  N  N404  1  0.31301163  0.77384690  0.41585927  1
  N  N405  1  0.80304908  0.11379291  0.41091745  1
  N  N406  1  0.81393066  0.44323771  0.40442877  1
  N  N407  1  0.82727306  0.77827375  0.39326577  1
  N  N408  1  0.43460099  0.27582750  0.39536508  1
  N  N409  1  0.44008633  0.61039688  0.40822024  1
  N  N410  1  0.43232743  0.94238481  0.40042329  1
  N  N411  1  0.94485613  0.27202273  0.41874011  1
  N  N412  1  0.93256331  0.61048769  0.39316307  1
  N  N413  1  0.93780166  0.94099191  0.40930217  1
  N  N414  1  0.05151891  0.05841021  0.90994494  1
  N  N415  1  0.06084383  0.39025495  0.90291770  1
  N  N416  1  0.06052998  0.72167697  0.89701140  1
  N  N417  1  0.55034686  0.05809302  0.91160872  1
  N  N418  1  0.55511150  0.39041226  0.90981251  1
  N  N419  1  0.55271941  0.72321445  0.91471559  1
  N  N420  1  0.07588748  0.27810266  0.10398212  1
  N  N421  1  0.06344271  0.60944711  0.09526589  1
  N  N422  1  0.07188309  0.94384903  0.10066724  1
  N  N423  1  0.57346271  0.27907904  0.10132216  1
  N  N424  1  0.55714473  0.60558494  0.08817378  1
  N  N425  1  0.56699758  0.94127296  0.09374677  1
  N  N426  1  0.43770162  0.05468947  0.59947993  1
  N  N427  1  0.44108816  0.39055828  0.59742784  1
  N  N428  1  0.42660713  0.72358994  0.60238931  1
  N  N429  1  0.94803232  0.05852834  0.58659793  1
  N  N430  1  0.93642768  0.38534255  0.60002210  1
  N  N431  1  0.93027309  0.72232483  0.59561468  1
  N  N432  1  0.18020231  0.11344364  0.40215519  1
  N  N433  1  0.18567218  0.44251428  0.40240919  1
  N  N434  1  0.18519075  0.77890522  0.39809593  1
  N  N435  1  0.67522387  0.10862217  0.39779896  1
  N  N436  1  0.68399446  0.44636060  0.40125687  1
  N  N437  1  0.70165536  0.77616827  0.41611204  1
  N  N438  1  0.30436569  0.22779885  0.91333421  1
  N  N439  1  0.32316016  0.55347284  0.89769178  1
  N  N440  1  0.31161357  0.89036268  0.89729188  1
  N  N441  1  0.80550375  0.22816940  0.91182194  1
  N  N442  1  0.81596337  0.55610195  0.90528127  1
  N  N443  1  0.80509175  0.89285572  0.90975150  1
  N  N444  1  0.32174693  0.11385792  0.10115215  1
  N  N445  1  0.32262883  0.44410738  0.10141736  1
  N  N446  1  0.32254941  0.77867374  0.10529798  1
  N  N447  1  0.82865556  0.11427977  0.10371669  1
  N  N448  1  0.81698913  0.44314714  0.09616437  1
  N  N449  1  0.81826203  0.77902554  0.09682699  1
  N  N450  1  0.18586830  0.22274657  0.60326952  1
  N  N451  1  0.18499534  0.55403368  0.59921090  1
  N  N452  1  0.18399389  0.88757930  0.59303090  1
  N  N453  1  0.69079716  0.22465514  0.59179659  1
  N  N454  1  0.68572030  0.55924384  0.59515251  1
  N  N455  1  0.68599315  0.89172844  0.59478674  1
  Cl  Cl456  1  0.25440094  0.04419837  0.61789743  1
  Cl  Cl457  1  0.25198963  0.38870587  0.61593669  1
  Cl  Cl458  1  0.24295212  0.72059656  0.62040745  1
  Cl  Cl459  1  0.76314603  0.06348926  0.60434892  1
  Cl  Cl460  1  0.75227649  0.38746447  0.61810238  1
  Cl  Cl461  1  0.73752015  0.72624643  0.60466107  1
  Cl  Cl462  1  0.26050019  0.28060755  0.10654212  1
  Cl  Cl463  1  0.24721001  0.61488621  0.12274661  1
  Cl  Cl464  1  0.25665664  0.94358596  0.12543413  1
  Cl  Cl465  1  0.76057899  0.27600099  0.11614806  1
  Cl  Cl466  1  0.74156887  0.60846508  0.10564801  1
  Cl  Cl467  1  0.75546625  0.94722157  0.11123450  1
  Cl  Cl468  1  0.23938835  0.05741952  0.88295518  1
  Cl  Cl469  1  0.24373210  0.38463092  0.88348225  1
  Cl  Cl470  1  0.24251621  0.72220750  0.88679046  1
  Cl  Cl471  1  0.73436534  0.06114855  0.88377593  1
  Cl  Cl472  1  0.74538986  0.38519075  0.88521823  1
  Cl  Cl473  1  0.74231257  0.72335398  0.88861388  1
  Cl  Cl474  1  0.25672428  0.28274080  0.37244833  1
  Cl  Cl475  1  0.24996909  0.61276001  0.39227532  1
  Cl  Cl476  1  0.24929491  0.94520978  0.39261970  1
  Cl  Cl477  1  0.74591699  0.27135962  0.38671272  1
  Cl  Cl478  1  0.74929844  0.62209296  0.37074791  1
  Cl  Cl479  1  0.74979009  0.94533881  0.38483378  1
  Cl  Cl480  1  0.00211163  0.21349592  0.62195447  1
  Cl  Cl481  1  0.00113988  0.55709234  0.61531768  1
  Cl  Cl482  1  0.00052012  0.89131002  0.61405112  1
  Cl  Cl483  1  0.49758949  0.22957378  0.60244761  1
  Cl  Cl484  1  0.49917871  0.55526547  0.61634530  1
  Cl  Cl485  1  0.49766464  0.88670975  0.61921650  1
  Cl  Cl486  1  0.01273375  0.11118153  0.12628416  1
  Cl  Cl487  1  0.01069641  0.44675910  0.11020861  1
  Cl  Cl488  1  0.00763345  0.77723872  0.10290440  1
  Cl  Cl489  1  0.51399561  0.10416610  0.10343562  1
  Cl  Cl490  1  0.50458726  0.45108731  0.11771800  1
  Cl  Cl491  1  0.50584170  0.77559465  0.11491186  1
  Cl  Cl492  1  -0.00792564  0.21823113  0.88378771  1
  Cl  Cl493  1  0.00284430  0.55518954  0.88222826  1
  Cl  Cl494  1  -0.00696553  0.89239907  0.89682717  1
  Cl  Cl495  1  0.49143611  0.21962582  0.87802000  1
  Cl  Cl496  1  0.50561468  0.55917680  0.88372626  1
  Cl  Cl497  1  0.49493144  0.88914081  0.88781633  1
  Cl  Cl498  1  -0.01167634  0.10241145  0.39715351  1
  Cl  Cl499  1  0.00081839  0.44630072  0.37633255  1
  Cl  Cl500  1  0.00503803  0.78279006  0.37354782  1
  Cl  Cl501  1  0.49112705  0.11534134  0.37571811  1
  Cl  Cl502  1  0.49844140  0.44638420  0.38000680  1
  Cl  Cl503  1  0.51554683  0.77276840  0.39810876  1
  Cl  Cl504  1  0.35638713  0.14863529  0.75020727  1
  Cl  Cl505  1  0.36416070  0.47754337  0.75727429  1
  Cl  Cl506  1  0.35975658  0.81254333  0.75438534  1
  Cl  Cl507  1  0.85871270  0.14692121  0.75144749  1
  Cl  Cl508  1  0.85759105  0.48134458  0.75111101  1
  Cl  Cl509  1  0.86077631  0.81418132  0.74354329  1
  Cl  Cl510  1  0.14161223  0.18643666  0.25628056  1
  Cl  Cl511  1  0.14197294  0.51866190  0.24861456  1
  Cl  Cl512  1  0.14412191  0.85044966  0.25448600  1
  Cl  Cl513  1  0.64086829  0.18575282  0.24659330  1
  Cl  Cl514  1  0.63882287  0.52024621  0.25041862  1
  Cl  Cl515  1  0.63918456  0.85259550  0.24489030  1
  Cl  Cl516  1  0.13657427  0.14708202  0.74791703  1
  Cl  Cl517  1  0.14409418  0.48152448  0.74967496  1
  Cl  Cl518  1  0.13626069  0.81486643  0.74973326  1
  Cl  Cl519  1  0.63970622  0.14606410  0.74656169  1
  Cl  Cl520  1  0.63833986  0.48107140  0.75418416  1
  Cl  Cl521  1  0.64158955  0.81327457  0.75463144  1
  Cl  Cl522  1  0.36451396  0.18604701  0.24525494  1
  Cl  Cl523  1  0.35960666  0.52154705  0.24534483  1
  Cl  Cl524  1  0.36503460  0.85191948  0.24893522  1
  Cl  Cl525  1  0.86224073  0.18331696  0.24865841  1
  Cl  Cl526  1  0.85991828  0.51927883  0.25107723  1
  Cl  Cl527  1  0.86100312  0.85295541  0.25546243  1
  Cl  Cl528  1  0.10820965  0.31262205  0.75123788  1
  Cl  Cl529  1  0.10881890  0.64779088  0.75097391  1
  Cl  Cl530  1  0.10772128  0.98015781  0.74514231  1
  Cl  Cl531  1  0.61042896  0.31245214  0.74962466  1
  Cl  Cl532  1  0.60718556  0.65024872  0.75019639  1
  Cl  Cl533  1  0.60851218  0.98042333  0.75394309  1
  Cl  Cl534  1  0.39175671  0.01871798  0.24562794  1
  Cl  Cl535  1  0.38943610  0.35381589  0.24998380  1
  Cl  Cl536  1  0.39211446  0.68662735  0.24310573  1
  Cl  Cl537  1  0.89212055  0.01870699  0.24871455  1
  Cl  Cl538  1  0.89523193  0.34920156  0.25241491  1
  Cl  Cl539  1  0.88632547  0.68946191  0.24829015  1
  Cl  Cl540  1  0.39101227  0.31314087  0.75010972  1
  Cl  Cl541  1  0.38511366  0.64618751  0.75356652  1
  Cl  Cl542  1  0.39051661  0.98294902  0.75706006  1
  Cl  Cl543  1  0.88737168  0.31294024  0.74817077  1
  Cl  Cl544  1  0.89051951  0.64748302  0.74693522  1
  Cl  Cl545  1  0.88921848  0.97980889  0.75146486  1
  Cl  Cl546  1  0.11112747  0.01625527  0.25831532  1
  Cl  Cl547  1  0.11547792  0.35233561  0.25115758  1
  Cl  Cl548  1  0.10662535  0.68597745  0.24747009  1
  Cl  Cl549  1  0.61146384  0.01766473  0.24835281  1
  Cl  Cl550  1  0.60785662  0.35297587  0.24566870  1
  Cl  Cl551  1  0.61098420  0.68546002  0.24603191  1
