# generated using pymatgen
data_H8PbC4(N3Cl2)2
_symmetry_space_group_name_H-M   'P 1'
_cell_length_a   16.62397795
_cell_length_b   22.50560349
_cell_length_c   21.59077538
_cell_angle_alpha   89.99983785
_cell_angle_beta   90.00063162
_cell_angle_gamma   89.99672481
_symmetry_Int_Tables_number   1
_chemical_formula_structural   H8PbC4(N3Cl2)2
_chemical_formula_sum   'H192 Pb24 C96 N144 Cl96'
_cell_volume   8077.81412903
_cell_formula_units_Z   24
loop_
 _symmetry_equiv_pos_site_id
 _symmetry_equiv_pos_as_xyz
  1  'x, y, z'
loop_
 _atom_site_type_symbol
 _atom_site_label
 _atom_site_symmetry_multiplicity
 _atom_site_fract_x
 _atom_site_fract_y
 _atom_site_fract_z
 _atom_site_occupancy
  H  H0  1  0.00375122  0.03301636  0.67873829  1
  H  H1  1  0.00492082  0.36486192  0.68086617  1
  H  H2  1  0.00003203  0.69677498  0.67815877  1
  H  H3  1  0.49798251  0.03415162  0.67979159  1
  H  H4  1  0.50604414  0.36312834  0.67972198  1
  H  H5  1  0.50257098  0.69704495  0.67855137  1
  H  H6  1  -0.00480800  0.30342035  0.17791853  1
  H  H7  1  0.00746434  0.63414650  0.18229518  1
  H  H8  1  0.00129319  0.97038221  0.17798602  1
  H  H9  1  0.50130278  0.30373617  0.17804651  1
  H  H10  1  0.49124753  0.63547204  0.17635643  1
  H  H11  1  0.50278853  0.96847242  0.18031118  1
  H  H12  1  0.00370203  0.03275873  0.82069939  1
  H  H13  1  0.00123729  0.36455757  0.82127480  1
  H  H14  1  0.00342753  0.69762989  0.81845850  1
  H  H15  1  0.49637173  0.03626788  0.82078483  1
  H  H16  1  0.50802388  0.36254517  0.82116561  1
  H  H17  1  0.49785076  0.69813732  0.82052822  1
  H  H18  1  0.00467995  0.30073357  0.32278242  1
  H  H19  1  0.00445913  0.63594608  0.32146447  1
  H  H20  1  -0.00074243  0.96745497  0.31436663  1
  H  H21  1  0.49803558  0.30152964  0.31883453  1
  H  H22  1  0.49276189  0.63428981  0.31789221  1
  H  H23  1  0.50369698  0.96872534  0.31866189  1
  H  H24  1  0.25727087  0.19839495  0.67790143  1
  H  H25  1  0.24408030  0.53185006  0.68116045  1
  H  H26  1  0.24813559  0.86599160  0.68564392  1
  H  H27  1  0.74929085  0.19692022  0.67949660  1
  H  H28  1  0.75110374  0.53202686  0.68120009  1
  H  H29  1  0.75167590  0.86457573  0.68347436  1
  H  H30  1  0.24155645  0.13797495  0.17922148  1
  H  H31  1  0.25058176  0.46851621  0.18051564  1
  H  H32  1  0.24191076  0.80104758  0.18116754  1
  H  H33  1  0.75107749  0.13559256  0.18028608  1
  H  H34  1  0.75166311  0.46816717  0.18017840  1
  H  H35  1  0.75587193  0.80311052  0.18078084  1
  H  H36  1  0.24678655  0.19798436  0.81966722  1
  H  H37  1  0.25545043  0.52952197  0.81767595  1
  H  H38  1  0.24401534  0.86469680  0.82255703  1
  H  H39  1  0.75137359  0.20082197  0.81955610  1
  H  H40  1  0.75238510  0.53098860  0.82040927  1
  H  H41  1  0.74576825  0.86293460  0.82169480  1
  H  H42  1  0.24556872  0.13471436  0.32000095  1
  H  H43  1  0.24185599  0.46918549  0.31825775  1
  H  H44  1  0.25629614  0.80050675  0.32010779  1
  H  H45  1  0.75650577  0.13553024  0.32239176  1
  H  H46  1  0.74864914  0.46908913  0.32198507  1
  H  H47  1  0.74437266  0.80086206  0.31946311  1
  H  H48  1  0.12633821  0.05679442  0.60655964  1
  H  H49  1  0.11572592  0.38962094  0.60009456  1
  H  H50  1  0.12059462  0.72105588  0.60550474  1
  H  H51  1  0.62972916  0.05412643  0.61454584  1
  H  H52  1  0.61450309  0.39204467  0.59686465  1
  H  H53  1  0.61893349  0.72280894  0.60110067  1
  H  H54  1  0.37762733  0.27871593  0.10794702  1
  H  H55  1  0.38711951  0.60355578  0.09274345  1
  H  H56  1  0.36724569  0.94687812  0.12039432  1
  H  H57  1  0.87982028  0.27730483  0.09996326  1
  H  H58  1  0.87720144  0.61540895  0.11672777  1
  H  H59  1  0.86716591  0.95017953  0.11638262  1
  H  H60  1  0.37684189  0.05548039  0.89659654  1
  H  H61  1  0.37548779  0.38499906  0.88420137  1
  H  H62  1  0.37106797  0.72247907  0.88928690  1
  H  H63  1  0.87697420  0.05366860  0.88675077  1
  H  H64  1  0.87371266  0.38701590  0.88948144  1
  H  H65  1  0.86919363  0.71596913  0.87815441  1
  H  H66  1  0.12301209  0.27633248  0.39745034  1
  H  H67  1  0.12135611  0.61024512  0.39831576  1
  H  H68  1  0.12438192  0.94825371  0.38363230  1
  H  H69  1  0.62506321  0.27827580  0.38694876  1
  H  H70  1  0.62336959  0.61430466  0.38283464  1
  H  H71  1  0.62193492  0.94398044  0.39338537  1
  H  H72  1  0.37498357  0.22203335  0.60187924  1
  H  H73  1  0.37469894  0.55349791  0.61399145  1
  H  H74  1  0.37656175  0.88400072  0.61844872  1
  H  H75  1  0.87829207  0.21749895  0.61385784  1
  H  H76  1  0.87691339  0.55365247  0.61321993  1
  H  H77  1  0.87608565  0.88652199  0.61324415  1
  H  H78  1  0.12488027  0.11151697  0.10097356  1
  H  H79  1  0.12688217  0.44482174  0.10809836  1
  H  H80  1  0.13398484  0.77625117  0.09834378  1
  H  H81  1  0.62232357  0.11640129  0.11352097  1
  H  H82  1  0.62639838  0.44511508  0.10850457  1
  H  H83  1  0.63194931  0.77883414  0.10924266  1
  H  H84  1  0.12326459  0.22126307  0.89352348  1
  H  H85  1  0.11963055  0.55029170  0.87846434  1
  H  H86  1  0.13795700  0.89443374  0.90563987  1
  H  H87  1  0.61946932  0.21816461  0.88390526  1
  H  H88  1  0.61829591  0.54956014  0.88115427  1
  H  H89  1  0.63721212  0.89175056  0.90387826  1
  H  H90  1  0.37014062  0.11414642  0.38841597  1
  H  H91  1  0.38081936  0.45123149  0.37267570  1
  H  H92  1  0.37402603  0.77683220  0.39782284  1
  H  H93  1  0.86736497  0.10974639  0.40408534  1
  H  H94  1  0.88371153  0.44962385  0.38271698  1
  H  H95  1  0.88139227  0.78120860  0.37827049  1
  H  H96  1  0.37582192  0.27844887  0.39357305  1
  H  H97  1  0.37410426  0.61223876  0.39154521  1
  H  H98  1  0.37419645  0.94900006  0.38490553  1
  H  H99  1  0.87419392  0.27852225  0.38741014  1
  H  H100  1  0.87314168  0.61423957  0.38509339  1
  H  H101  1  0.87497296  0.94905130  0.38483763  1
  H  H102  1  0.12635522  0.05412063  0.89314943  1
  H  H103  1  0.12277079  0.38800473  0.89409904  1
  H  H104  1  0.11740386  0.72187424  0.89603734  1
  H  H105  1  0.62569285  0.05425935  0.88851030  1
  H  H106  1  0.62392073  0.38857854  0.89787528  1
  H  H107  1  0.62084675  0.72089387  0.89140755  1
  H  H108  1  0.12786371  0.28093433  0.11710245  1
  H  H109  1  0.12612124  0.61106422  0.10892647  1
  H  H110  1  0.11425125  0.94339805  0.09908194  1
  H  H111  1  0.62658197  0.27890635  0.10791185  1
  H  H112  1  0.63158020  0.61991453  0.12203064  1
  H  H113  1  0.61527027  0.94272037  0.10112732  1
  H  H114  1  0.38204223  0.05742462  0.60160575  1
  H  H115  1  0.36806405  0.38201100  0.62439733  1
  H  H116  1  0.37066906  0.72004823  0.61648512  1
  H  H117  1  0.87724575  0.05465735  0.60849109  1
  H  H118  1  0.86848710  0.38488912  0.62085836  1
  H  H119  1  0.87208625  0.72023344  0.61035486  1
  H  H120  1  0.12064983  0.11377230  0.39058902  1
  H  H121  1  0.13467150  0.44547916  0.40037879  1
  H  H122  1  0.12620629  0.77845241  0.38619718  1
  H  H123  1  0.62069048  0.11534466  0.38028780  1
  H  H124  1  0.63651360  0.44134784  0.40160145  1
  H  H125  1  0.63328923  0.77482183  0.39956988  1
  H  H126  1  0.37200375  0.22052112  0.89158237  1
  H  H127  1  0.36718014  0.55491830  0.89789836  1
  H  H128  1  0.38354542  0.88530661  0.87548619  1
  H  H129  1  0.86868822  0.22145146  0.89463579  1
  H  H130  1  0.86664227  0.55367364  0.89771189  1
  H  H131  1  0.88234580  0.88571656  0.87934765  1
  H  H132  1  0.37267669  0.11547813  0.11334079  1
  H  H133  1  0.37618411  0.44470277  0.11132249  1
  H  H134  1  0.38041154  0.78133685  0.12395822  1
  H  H135  1  0.87060457  0.11244632  0.10458282  1
  H  H136  1  0.87530672  0.44621584  0.10636897  1
  H  H137  1  0.88072101  0.77861743  0.11152091  1
  H  H138  1  0.12643829  0.21723722  0.61576026  1
  H  H139  1  0.12633352  0.55558029  0.60333011  1
  H  H140  1  0.12722698  0.88764323  0.61360824  1
  H  H141  1  0.62969724  0.22249692  0.60454582  1
  H  H142  1  0.62765862  0.55467957  0.61163919  1
  H  H143  1  0.62586346  0.88925426  0.61315238  1
  H  H144  1  0.85376559  0.75159831  0.48581412  1
  H  H145  1  0.69870066  0.74614725  0.50558147  1
  H  H146  1  0.89960983  0.91671933  0.01089151  1
  H  H147  1  0.54334733  0.41508657  0.49615703  1
  H  H148  1  0.05721781  0.74660501  1.00515097  1
  H  H149  1  0.67013899  0.58389009  0.50143949  1
  H  H150  1  0.82483391  0.90377595  0.49866697  1
  H  H151  1  0.58592620  0.08610567  0.99362204  1
  H  H152  1  0.32608868  0.08671501  0.50128565  1
  H  H153  1  0.07425040  0.58173555  -0.00078860  1
  H  H154  1  0.17840719  0.90275639  0.49906947  1
  H  H155  1  0.42660602  0.58273425  0.50123041  1
  H  H156  1  0.32915498  0.41381399  0.00260012  1
  H  H157  1  0.04656232  0.93012913  -0.00493892  1
  H  H158  1  0.55616775  0.90103459  0.48836425  1
  H  H159  1  0.41481693  0.74939835  0.99500817  1
  H  H160  1  0.91144046  0.24830988  0.49356071  1
  H  H161  1  0.57261209  0.74963310  1.00173790  1
  H  H162  1  0.15797878  0.24660892  0.50190264  1
  H  H163  1  0.80846522  0.58131892  1.00609395  1
  H  H164  1  0.42469816  0.95443360  0.49333821  1
  H  H165  1  0.20513431  0.74853872  -0.00586146  1
  H  H166  1  0.91718034  0.08442707  0.99905746  1
  H  H167  1  0.07890127  0.93633680  0.49956581  1
  H  H168  1  0.81253217  0.24759543  1.00593057  1
  H  H169  1  0.59489436  0.08148046  0.50757251  1
  H  H170  1  0.85282286  0.41473345  0.48821491  1
  H  H171  1  0.38770816  0.41544146  0.51091326  1
  H  H172  1  0.04768377  0.41926585  0.49515879  1
  H  H173  1  0.67485170  0.91338344  0.50686898  1
  H  H174  1  0.30038127  0.58164177  1.00360830  1
  H  H175  1  0.70604276  0.42424437  0.50497777  1
  H  H176  1  0.94490962  0.25192226  -0.00375812  1
  H  H177  1  0.92246281  0.93840988  0.50057813  1
  H  H178  1  0.57985516  0.24809030  0.49621316  1
  H  H179  1  0.61497004  0.58232900  0.01427664  1
  H  H180  1  0.46580091  0.58562735  -0.00747972  1
  H  H181  1  0.89509727  0.74336910  0.99216723  1
  H  H182  1  0.55072393  0.91625330  -0.00618713  1
  H  H183  1  0.20432554  0.41761866  0.50708100  1
  H  H184  1  0.71036752  0.91453826  1.00524843  1
  H  H185  1  0.83802620  0.58273836  0.50234808  1
  H  H186  1  0.16831961  0.74932594  0.49216801  1
  H  H187  1  0.33604265  0.89383549  0.50276432  1
  H  H188  1  0.39394261  0.92133643  0.01001106  1
  H  H189  1  0.21179657  0.91926954  1.00609917  1
  H  H190  1  0.55513278  0.74697429  0.49676433  1
  H  H191  1  0.43557232  0.09303112  0.99679297  1
  Pb  Pb192  1  0.24576953  0.04793818  0.74731607  1
  Pb  Pb193  1  0.24617796  0.37836322  0.75061278  1
  Pb  Pb194  1  0.24405052  0.71563919  0.75118550  1
  Pb  Pb195  1  0.74642848  0.04801016  0.75041237  1
  Pb  Pb196  1  0.74212191  0.38166218  0.74483231  1
  Pb  Pb197  1  0.74769273  0.71216099  0.74479897  1
  Pb  Pb198  1  0.25178671  0.28778027  0.25461348  1
  Pb  Pb199  1  0.25636824  0.61775531  0.24541171  1
  Pb  Pb200  1  0.24991859  0.95410988  0.24779151  1
  Pb  Pb201  1  0.75456508  0.28511417  0.24738390  1
  Pb  Pb202  1  0.75503923  0.61945201  0.25270917  1
  Pb  Pb203  1  0.74909516  0.95350232  0.25134657  1
  Pb  Pb204  1  -0.00626158  0.21483759  0.75354078  1
  Pb  Pb205  1  -0.00219236  0.54507746  0.75025026  1
  Pb  Pb206  1  -0.00392084  0.88204964  0.75322303  1
  Pb  Pb207  1  0.49622525  0.21296886  0.74641567  1
  Pb  Pb208  1  0.49226220  0.54838050  0.75415715  1
  Pb  Pb209  1  0.50032339  0.88200772  0.74689489  1
  Pb  Pb210  1  -0.00012822  0.12094345  0.24804999  1
  Pb  Pb211  1  0.00570321  0.45225897  0.25205912  1
  Pb  Pb212  1  0.00606216  0.78500909  0.24586569  1
  Pb  Pb213  1  0.49958814  0.12132836  0.24514881  1
  Pb  Pb214  1  0.50800773  0.45100284  0.25458343  1
  Pb  Pb215  1  0.50367031  0.78502296  0.25365229  1
  C  C216  1  0.00223183  0.04814392  0.63122869  1
  C  C217  1  -0.00420518  0.37941687  0.63343715  1
  C  C218  1  -0.00283900  0.71238356  0.63092672  1
  C  C219  1  0.50362560  0.04876542  0.63207243  1
  C  C220  1  0.49631535  0.37792685  0.63231866  1
  C  C221  1  0.49770003  0.71231314  0.63116674  1
  C  C222  1  0.00073648  0.28831505  0.13050078  1
  C  C223  1  0.00394948  0.61988154  0.13445872  1
  C  C224  1  -0.00604630  0.95486545  0.13062800  1
  C  C225  1  0.50212811  0.28740047  0.13099523  1
  C  C226  1  0.50358518  0.61983650  0.12957856  1
  C  C227  1  0.49419609  0.95332124  0.13292548  1
  C  C228  1  0.00171890  0.04734321  0.86839803  1
  C  C229  1  -0.00092913  0.37978003  0.86866789  1
  C  C230  1  -0.00366166  0.71216663  0.86615530  1
  C  C231  1  0.49961001  0.04980578  0.86907199  1
  C  C232  1  0.50216676  0.37862738  0.86812588  1
  C  C233  1  0.49619719  0.71397480  0.86814122  1
  C  C234  1  0.00016074  0.28524889  0.37020596  1
  C  C235  1  -0.00032879  0.62036366  0.36863341  1
  C  C236  1  -0.00051486  0.95453040  0.36281461  1
  C  C237  1  0.49952321  0.28601419  0.36639681  1
  C  C238  1  0.49644228  0.62004200  0.36575522  1
  C  C239  1  0.49968595  0.95381042  0.36640793  1
  C  C240  1  0.25221173  0.21290396  0.63022747  1
  C  C241  1  0.24854514  0.54668428  0.63343862  1
  C  C242  1  0.25093427  0.87973840  0.63747829  1
  C  C243  1  0.75223899  0.21245355  0.63222083  1
  C  C244  1  0.75197319  0.54704215  0.63336134  1
  C  C245  1  0.75074578  0.87965489  0.63560208  1
  C  C246  1  0.24639233  0.12188639  0.13201333  1
  C  C247  1  0.25116138  0.45276589  0.13305274  1
  C  C248  1  0.25257573  0.78645949  0.13389823  1
  C  C249  1  0.74809554  0.12122673  0.13257917  1
  C  C250  1  0.75109624  0.45358830  0.13227886  1
  C  C251  1  0.75595735  0.78748835  0.13353403  1
  C  C252  1  0.24730631  0.21277231  0.86742198  1
  C  C253  1  0.24712336  0.54496564  0.86484265  1
  C  C254  1  0.25513320  0.87992307  0.86949749  1
  C  C255  1  0.74676794  0.21361678  0.86772652  1
  C  C256  1  0.74604889  0.54468166  0.86824140  1
  C  C257  1  0.75518958  0.87880662  0.86863832  1
  C  C258  1  0.24597937  0.12044280  0.36788964  1
  C  C259  1  0.25242199  0.45543953  0.36568620  1
  C  C260  1  0.25201605  0.78515757  0.36766164  1
  C  C261  1  0.74824040  0.12025487  0.36946717  1
  C  C262  1  0.75657751  0.45359839  0.36934032  1
  C  C263  1  0.75374698  0.78583668  0.36682971  1
  C  C264  1  0.71220253  0.57345359  0.53922259  1
  C  C265  1  0.29625799  0.89547100  0.54254099  1
  C  C266  1  0.03141195  0.74067535  0.53718765  1
  C  C267  1  0.77246361  0.57022561  0.96540944  1
  C  C268  1  0.79460584  0.57309219  0.53978125  1
  C  C269  1  0.52960371  0.40906620  0.96196922  1
  C  C270  1  0.70359054  0.09656525  0.04034755  1
  C  C271  1  0.95923725  0.93814313  0.45894654  1
  C  C272  1  0.69633282  0.23614679  0.95894826  1
  C  C273  1  0.21428922  0.89836822  0.54087003  1
  C  C274  1  0.23420155  0.42905639  0.46384302  1
  C  C275  1  0.03287715  0.40802948  0.96162031  1
  C  C276  1  0.26905776  0.57176977  0.96043855  1
  C  C277  1  0.69440113  0.09367867  0.45798146  1
  C  C278  1  0.28436539  0.23946811  0.53506131  1
  C  C279  1  0.31430905  0.43155761  0.45264627  1
  C  C280  1  0.04017117  0.07378444  0.96235313  1
  C  C281  1  0.03430903  0.25564686  0.46510669  1
  C  C282  1  0.20296364  0.23793441  0.53808729  1
  C  C283  1  0.53488404  0.74033977  0.96177686  1
  C  C284  1  0.28616974  0.09574867  0.46256305  1
  C  C285  1  0.79505998  0.75854862  0.04123151  1
  C  C286  1  0.51970527  0.92615405  0.03699731  1
  C  C287  1  0.05449336  0.25876136  0.04155075  1
  C  C288  1  0.53965391  0.25889464  0.45819148  1
  C  C289  1  0.94197963  0.73476998  0.95684385  1
  C  C290  1  0.44495525  0.74071797  0.54123538  1
  C  C291  1  0.69139355  0.56753094  0.95829939  1
  C  C292  1  0.79697285  0.23941159  0.54094722  1
  C  C293  1  0.72951266  0.75836545  0.46288736  1
  C  C294  1  0.95557075  0.59480033  0.04301247  1
  C  C295  1  0.02378451  0.73685800  0.96309627  1
  C  C296  1  0.20458889  0.09572395  0.46156608  1
  C  C297  1  0.43598578  0.40563024  0.54615360  1
  C  C298  1  0.23475836  0.75962458  0.03767405  1
  C  C299  1  0.95278416  0.59243492  0.45882349  1
  C  C300  1  0.95852589  0.07391021  0.96169934  1
  C  C301  1  0.03679415  0.59307199  0.03869316  1
  C  C302  1  0.01693147  0.40610795  0.53759691  1
  C  C303  1  0.31784979  0.90772636  0.95518566  1
  C  C304  1  0.46538898  0.25673781  0.03930864  1
  C  C305  1  0.28937462  0.42500845  0.04101273  1
  C  C306  1  0.46406506  0.59361953  0.46162883  1
  C  C307  1  0.54543331  0.59465524  0.45698576  1
  C  C308  1  0.04122090  0.93752278  0.45847946  1
  C  C309  1  0.03749146  0.07561438  0.53804690  1
  C  C310  1  0.79112679  0.90384413  0.54181620  1
  C  C311  1  0.77747458  0.23753677  0.96463184  1
  N  N312  1  0.95531831  0.25713157  0.46043008  1
  N  N313  1  0.46033955  0.25913508  0.46072752  1
  N  N314  1  0.19024876  0.57126893  0.95379074  1
  N  N315  1  0.45149779  0.93122960  0.45777894  1
  N  N316  1  0.54557950  0.06915514  0.96083463  1
  N  N317  1  0.29357284  0.09424763  0.04101374  1
  N  N318  1  0.73699030  0.90866909  0.96246990  1
  N  N319  1  0.21031025  0.23890943  0.96154675  1
  N  N320  1  0.48870966  0.58379015  0.03712731  1
  N  N321  1  0.45204204  0.40826417  0.95881424  1
  N  N322  1  0.56533563  0.59770557  0.04436507  1
  N  N323  1  0.29433152  0.57190526  0.54132160  1
  N  N324  1  0.21795059  0.57232495  0.53780685  1
  N  N325  1  0.28652347  0.23912501  0.96090099  1
  N  N326  1  0.46627658  0.06824964  0.96442606  1
  N  N327  1  0.21005157  0.42516823  0.03940707  1
  N  N328  1  0.45519372  0.74126027  0.95956743  1
  N  N329  1  0.23973851  0.91024926  0.96441204  1
  N  N330  1  0.80835779  0.76177271  0.45483478  1
  N  N331  1  0.80990196  0.43247152  0.45796427  1
  N  N332  1  0.51479345  0.40927423  0.53816351  1
  N  N333  1  0.21722400  0.09262655  0.03720287  1
  N  N334  1  0.78802805  0.42852572  0.03778118  1
  N  N335  1  0.01989094  0.92407002  0.03764341  1
  N  N336  1  0.53423357  0.93569691  0.46228229  1
  N  N337  1  0.81431817  0.90403587  0.95600488  1
  N  N338  1  0.95551768  0.40767167  0.96154711  1
  N  N339  1  0.97578028  0.25870330  0.03674407  1
  N  N340  1  0.03018279  0.59079452  0.46437966  1
  N  N341  1  0.96038562  0.07479535  0.53725579  1
  N  N342  1  0.52370962  0.74068057  0.53711988  1
  N  N343  1  0.71730257  0.75898700  0.03904123  1
  N  N344  1  0.94186838  0.93488887  0.04129027  1
  N  N345  1  0.54274359  0.25668122  0.03805753  1
  N  N346  1  0.55008038  0.07194405  0.54197269  1
  N  N347  1  0.73215309  0.42083613  0.46173034  1
  N  N348  1  0.31331904  0.76151867  0.04584911  1
  N  N349  1  0.77141679  0.09081894  0.46651786  1
  N  N350  1  0.95344796  0.74076149  0.53800562  1
  N  N351  1  0.78132350  0.09470123  0.03631309  1
  N  N352  1  0.44059386  0.92801101  0.04454017  1
  N  N353  1  0.71180755  0.90757206  0.54407513  1
  N  N354  1  0.71921427  0.24201533  0.53684045  1
  N  N355  1  0.47163212  0.07292613  0.53617988  1
  N  N356  1  0.20832199  0.76160411  0.45819497  1
  N  N357  1  0.28622408  0.76048348  0.46324555  1
  N  N358  1  0.71196571  0.42753249  0.03867131  1
  N  N359  1  0.93829297  0.40266265  0.54410444  1
  N  N360  1  0.06624690  0.05941821  0.59454468  1
  N  N361  1  0.05359991  0.39133046  0.59188807  1
  N  N362  1  0.06005680  0.72377127  0.59335823  1
  N  N363  1  0.57029590  0.05792701  0.60020081  1
  N  N364  1  0.55208199  0.38910461  0.59021495  1
  N  N365  1  0.55741020  0.72129445  0.59177830  1
  N  N366  1  0.43764306  0.27517350  0.09524647  1
  N  N367  1  0.44951917  0.60727459  0.08630900  1
  N  N368  1  0.42541031  0.94586957  0.10335630  1
  N  N369  1  0.94151450  0.27885760  0.09084612  1
  N  N370  1  0.93612258  0.61079869  0.10084527  1
  N  N371  1  0.92564383  0.94403562  0.10130391  1
  N  N372  1  0.43809260  0.06015503  0.90652827  1
  N  N373  1  0.43500358  0.38896598  0.89878256  1
  N  N374  1  0.43155976  0.72462090  0.90197927  1
  N  N375  1  0.93586972  0.05747586  0.90210227  1
  N  N376  1  0.93417885  0.38996815  0.90234063  1
  N  N377  1  0.92675172  0.71960344  0.89632304  1
  N  N378  1  0.06226115  0.27320611  0.40921280  1
  N  N379  1  0.05955453  0.60863146  0.40689040  1
  N  N380  1  0.06497848  0.94721008  0.39845035  1
  N  N381  1  0.56527002  0.27506781  0.40054323  1
  N  N382  1  0.56461732  0.61037789  0.39894537  1
  N  N383  1  0.56051299  0.93898265  0.40271078  1
  N  N384  1  0.31418757  0.22448927  0.59051979  1
  N  N385  1  0.31453228  0.55608531  0.60060679  1
  N  N386  1  0.31762557  0.88472553  0.60300116  1
  N  N387  1  0.81923555  0.22184251  0.59874187  1
  N  N388  1  0.81743973  0.55682841  0.59875196  1
  N  N389  1  0.81604939  0.88836949  0.59918342  1
  N  N390  1  0.18665000  0.10943009  0.09342408  1
  N  N391  1  0.18795416  0.44241922  0.09714145  1
  N  N392  1  0.19607375  0.77474641  0.09122281  1
  N  N393  1  0.68121246  0.11219779  0.09878099  1
  N  N394  1  0.68735452  0.44292956  0.09716634  1
  N  N395  1  0.69298933  0.77743600  0.09787680  1
  N  N396  1  0.18432145  0.22219063  0.90375815  1
  N  N397  1  0.17844715  0.55463036  0.89416666  1
  N  N398  1  0.20020597  0.89067178  0.91216695  1
  N  N399  1  0.67812858  0.22201651  0.90048567  1
  N  N400  1  0.67591104  0.55252259  0.89913444  1
  N  N401  1  0.69938083  0.88967677  0.91082072  1
  N  N402  1  0.31075536  0.11112447  0.40306021  1
  N  N403  1  0.32519564  0.44726010  0.39319661  1
  N  N404  1  0.31291159  0.77572886  0.40657817  1
  N  N405  1  0.80508448  0.10783224  0.41010539  1
  N  N406  1  0.82541231  0.44305568  0.39815922  1
  N  N407  1  0.82301500  0.77834964  0.39564751  1
  N  N408  1  0.43714770  0.27589804  0.40323107  1
  N  N409  1  0.43462863  0.60950169  0.40357878  1
  N  N410  1  0.43353891  0.95192131  0.40025895  1
  N  N411  1  0.93379860  0.27548034  0.40201684  1
  N  N412  1  0.93170908  0.61005555  0.40077596  1
  N  N413  1  0.93443090  0.94811819  0.39908050  1
  N  N414  1  0.06613067  0.05797942  0.90597326  1
  N  N415  1  0.06250264  0.39116612  0.90582360  1
  N  N416  1  0.05627868  0.72309315  0.90623774  1
  N  N417  1  0.56572446  0.05785394  0.90212241  1
  N  N418  1  0.56280399  0.39148330  0.90763452  1
  N  N419  1  0.56061689  0.72402429  0.90481086  1
  N  N420  1  0.07012834  0.27637411  0.09968895  1
  N  N421  1  0.06602528  0.60905551  0.09678903  1
  N  N422  1  0.05252577  0.94646967  0.08992464  1
  N  N423  1  0.56593745  0.27617057  0.09645276  1
  N  N424  1  0.57499286  0.61112650  0.10411490  1
  N  N425  1  0.55341958  0.94144609  0.09184073  1
  N  N426  1  0.44370206  0.05858221  0.59248025  1
  N  N427  1  0.42450452  0.38745995  0.60502795  1
  N  N428  1  0.42864445  0.72400453  0.59966322  1
  N  N429  1  0.93795576  0.05768415  0.59673728  1
  N  N430  1  0.92667528  0.38671521  0.60424828  1
  N  N431  1  0.93218516  0.72287781  0.59765153  1
  N  N432  1  0.18060087  0.11034906  0.40433839  1
  N  N433  1  0.19653219  0.44417973  0.40825228  1
  N  N434  1  0.18602219  0.77525124  0.40015431  1
  N  N435  1  0.67796542  0.11111598  0.39867830  1
  N  N436  1  0.69864079  0.44427764  0.41038740  1
  N  N437  1  0.69511590  0.77360355  0.40832619  1
  N  N438  1  0.31099643  0.22332655  0.90257248  1
  N  N439  1  0.30532970  0.55620626  0.90613581  1
  N  N440  1  0.32778751  0.88976527  0.89597617  1
  N  N441  1  0.80802937  0.22309056  0.90649314  1
  N  N442  1  0.80541384  0.55572343  0.90790973  1
  N  N443  1  0.82504704  0.88840893  0.89669222  1
  N  N444  1  0.31286558  0.11210296  0.09992052  1
  N  N445  1  0.31618404  0.44174350  0.09818289  1
  N  N446  1  0.32256994  0.77801788  0.10625532  1
  N  N447  1  0.80909722  0.11023425  0.09515147  1
  N  N448  1  0.81406570  0.44477701  0.09574839  1
  N  N449  1  0.82101147  0.77576255  0.09835125  1
  N  N450  1  0.18443231  0.22150497  0.59862816  1
  N  N451  1  0.18820296  0.55696360  0.59473355  1
  N  N452  1  0.18732156  0.88900147  0.60024530  1
  N  N453  1  0.69134927  0.22497032  0.59529991  1
  N  N454  1  0.68738912  0.55735545  0.59781221  1
  N  N455  1  0.68673564  0.88996429  0.60105507  1
  Cl  Cl456  1  0.25662088  0.05584602  0.61259009  1
  Cl  Cl457  1  0.23783221  0.38599134  0.61534193  1
  Cl  Cl458  1  0.24329073  0.72181702  0.61830645  1
  Cl  Cl459  1  0.75238869  0.04973528  0.61855377  1
  Cl  Cl460  1  0.73630944  0.39502012  0.60378044  1
  Cl  Cl461  1  0.74339041  0.72536478  0.60763293  1
  Cl  Cl462  1  0.25353935  0.28339942  0.12643799  1
  Cl  Cl463  1  0.26530262  0.60808639  0.10900781  1
  Cl  Cl464  1  0.23593374  0.93879317  0.10571037  1
  Cl  Cl465  1  0.75630839  0.27573436  0.11254680  1
  Cl  Cl466  1  0.75461705  0.61868341  0.12062761  1
  Cl  Cl467  1  0.73898713  0.94228195  0.10834713  1
  Cl  Cl468  1  0.25436932  0.04681826  0.87956525  1
  Cl  Cl469  1  0.25027730  0.38710857  0.88172500  1
  Cl  Cl470  1  0.24528519  0.72354378  0.88749416  1
  Cl  Cl471  1  0.74693798  0.05018074  0.88173874  1
  Cl  Cl472  1  0.74862131  0.38434726  0.87529695  1
  Cl  Cl473  1  0.74289072  0.71857462  0.87247144  1
  Cl  Cl474  1  0.24827531  0.27846741  0.38967246  1
  Cl  Cl475  1  0.24657653  0.61509723  0.37712357  1
  Cl  Cl476  1  0.25153902  0.94186801  0.38044861  1
  Cl  Cl477  1  0.75108241  0.28237581  0.37925609  1
  Cl  Cl478  1  0.74900471  0.61460785  0.38560566  1
  Cl  Cl479  1  0.74364137  0.94212615  0.39124556  1
  Cl  Cl480  1  -0.00013326  0.21888268  0.61981769  1
  Cl  Cl481  1  0.00384138  0.55231386  0.61904956  1
  Cl  Cl482  1  0.00034158  0.88743080  0.62099545  1
  Cl  Cl483  1  0.50400171  0.22046752  0.61332401  1
  Cl  Cl484  1  0.49925652  0.55289267  0.62181774  1
  Cl  Cl485  1  0.50345345  0.89129049  0.60340837  1
  Cl  Cl486  1  -0.00150498  0.11357672  0.11176164  1
  Cl  Cl487  1  -0.00062557  0.44596038  0.12054444  1
  Cl  Cl488  1  0.00895086  0.78078422  0.11093451  1
  Cl  Cl489  1  0.49682989  0.11111916  0.10618083  1
  Cl  Cl490  1  0.50285668  0.44883127  0.12282237  1
  Cl  Cl491  1  0.50792521  0.77803391  0.11654776  1
  Cl  Cl492  1  -0.00471902  0.22498321  0.89128471  1
  Cl  Cl493  1  -0.00785266  0.55202600  0.88263760  1
  Cl  Cl494  1  0.01493304  0.89745681  0.89395008  1
  Cl  Cl495  1  0.49462720  0.21468107  0.87892444  1
  Cl  Cl496  1  0.48939658  0.56028250  0.89404969  1
  Cl  Cl497  1  0.51532729  0.89168876  0.88705002  1
  Cl  Cl498  1  -0.00594923  0.11698386  0.37981181  1
  Cl  Cl499  1  0.00945725  0.44504587  0.38889250  1
  Cl  Cl500  1  0.00505517  0.77991760  0.37868518  1
  Cl  Cl501  1  0.49711379  0.11029219  0.37598198  1
  Cl  Cl502  1  0.51806310  0.43967727  0.39524094  1
  Cl  Cl503  1  0.50746669  0.77765964  0.39586898  1
  Cl  Cl504  1  0.36259143  0.14497566  0.74850879  1
  Cl  Cl505  1  0.35989998  0.47846370  0.74819268  1
  Cl  Cl506  1  0.36687028  0.81089624  0.75370635  1
  Cl  Cl507  1  0.86224363  0.14422588  0.74967239  1
  Cl  Cl508  1  0.86132266  0.47746378  0.74297570  1
  Cl  Cl509  1  0.86186244  0.81204511  0.75455661  1
  Cl  Cl510  1  0.13867970  0.18771259  0.25152701  1
  Cl  Cl511  1  0.14020189  0.52016673  0.24588168  1
  Cl  Cl512  1  0.14141733  0.85267933  0.25193674  1
  Cl  Cl513  1  0.63651922  0.18774747  0.25126959  1
  Cl  Cl514  1  0.63928109  0.52268495  0.25212436  1
  Cl  Cl515  1  0.64025873  0.85323133  0.25211578  1
  Cl  Cl516  1  0.14105646  0.14327789  0.74986265  1
  Cl  Cl517  1  0.13724026  0.48021203  0.75369994  1
  Cl  Cl518  1  0.14474670  0.81311946  0.75294489  1
  Cl  Cl519  1  0.63877180  0.14379231  0.75163155  1
  Cl  Cl520  1  0.64041386  0.47865365  0.75019518  1
  Cl  Cl521  1  0.63903124  0.81370797  0.74490665  1
  Cl  Cl522  1  0.36238081  0.18729439  0.25079995  1
  Cl  Cl523  1  0.36213993  0.52307623  0.25447068  1
  Cl  Cl524  1  0.36422430  0.85481890  0.24623537  1
  Cl  Cl525  1  0.85960802  0.18651370  0.25053877  1
  Cl  Cl526  1  0.85845545  0.52284189  0.25380997  1
  Cl  Cl527  1  0.86094854  0.85724152  0.25408985  1
  Cl  Cl528  1  0.10912857  0.31280179  0.75002894  1
  Cl  Cl529  1  0.10894361  0.64673007  0.75270026  1
  Cl  Cl530  1  0.11298510  0.97845872  0.74917903  1
  Cl  Cl531  1  0.60862901  0.31281434  0.74881771  1
  Cl  Cl532  1  0.61132898  0.64453158  0.75070082  1
  Cl  Cl533  1  0.61191472  0.97927148  0.74638049  1
  Cl  Cl534  1  0.38800139  0.01982454  0.24492034  1
  Cl  Cl535  1  0.38953616  0.35487427  0.25505951  1
  Cl  Cl536  1  0.39247116  0.68795981  0.24557956  1
  Cl  Cl537  1  0.88615684  0.02030548  0.24326970  1
  Cl  Cl538  1  0.88803565  0.35482208  0.25588727  1
  Cl  Cl539  1  0.88653749  0.69043993  0.25075990  1
  Cl  Cl540  1  0.38680335  0.31326493  0.74724394  1
  Cl  Cl541  1  0.39273830  0.64581654  0.75086393  1
  Cl  Cl542  1  0.39421072  0.97735948  0.74910188  1
  Cl  Cl543  1  0.88936908  0.31037384  0.74605379  1
  Cl  Cl544  1  0.88625571  0.64606380  0.74666496  1
  Cl  Cl545  1  0.89116161  0.97582229  0.75180581  1
  Cl  Cl546  1  0.10991816  0.01879325  0.25002812  1
  Cl  Cl547  1  0.10986059  0.35408684  0.24886978  1
  Cl  Cl548  1  0.10779839  0.68818287  0.24959363  1
  Cl  Cl549  1  0.60788079  0.01819680  0.24869669  1
  Cl  Cl550  1  0.61055408  0.35605666  0.24953442  1
  Cl  Cl551  1  0.61211140  0.68855358  0.24972625  1
