# generated using pymatgen
data_H8PbC4(N3Cl2)2
_symmetry_space_group_name_H-M   'P 1'
_cell_length_a   16.62968508
_cell_length_b   22.51581962
_cell_length_c   21.59318935
_cell_angle_alpha   89.99980973
_cell_angle_beta   90.00605692
_cell_angle_gamma   90.00690932
_symmetry_Int_Tables_number   1
_chemical_formula_structural   H8PbC4(N3Cl2)2
_chemical_formula_sum   'H192 Pb24 C96 N144 Cl96'
_cell_volume   8085.15915253
_cell_formula_units_Z   24
loop_
 _symmetry_equiv_pos_site_id
 _symmetry_equiv_pos_as_xyz
  1  'x, y, z'
loop_
 _atom_site_type_symbol
 _atom_site_label
 _atom_site_symmetry_multiplicity
 _atom_site_fract_x
 _atom_site_fract_y
 _atom_site_fract_z
 _atom_site_occupancy
  H  H0  1  0.01611126  0.03192848  0.67989986  1
  H  H1  1  -0.00995465  0.36297563  0.67345586  1
  H  H2  1  0.00132033  0.69836415  0.67646338  1
  H  H3  1  0.48471852  0.02628121  0.67606531  1
  H  H4  1  0.50485464  0.36678616  0.68548914  1
  H  H5  1  0.50491678  0.69620081  0.67848044  1
  H  H6  1  -0.00755250  0.30073458  0.18269156  1
  H  H7  1  -0.00760269  0.64057638  0.18045655  1
  H  H8  1  0.01014489  0.97026024  0.17495488  1
  H  H9  1  0.49257124  0.30661398  0.17687177  1
  H  H10  1  0.51060431  0.63994594  0.18180581  1
  H  H11  1  0.49409783  0.96803855  0.17888483  1
  H  H12  1  0.01586155  0.02909895  0.82439650  1
  H  H13  1  -0.00511834  0.36436428  0.82099086  1
  H  H14  1  -0.00833282  0.69786816  0.82392680  1
  H  H15  1  0.48961222  0.02697874  0.82382141  1
  H  H16  1  0.49356397  0.36185575  0.82107093  1
  H  H17  1  0.51428994  0.69621606  0.82243907  1
  H  H18  1  -0.00178760  0.30392857  0.32663284  1
  H  H19  1  0.00774719  0.63329566  0.31909043  1
  H  H20  1  0.00354136  0.97010207  0.32449731  1
  H  H21  1  0.49733950  0.30105557  0.31613243  1
  H  H22  1  0.50186674  0.63787243  0.32196384  1
  H  H23  1  0.50990696  0.97083075  0.32020176  1
  H  H24  1  0.26211381  0.19847506  0.68122970  1
  H  H25  1  0.24782031  0.53112368  0.68319197  1
  H  H26  1  0.23831322  0.86599159  0.67628025  1
  H  H27  1  0.73972607  0.19138615  0.67600673  1
  H  H28  1  0.74472486  0.52738688  0.67598382  1
  H  H29  1  0.74578036  0.86572857  0.67937814  1
  H  H30  1  0.25880889  0.13778127  0.17532692  1
  H  H31  1  0.25041491  0.47229918  0.17679828  1
  H  H32  1  0.26118169  0.80546985  0.17855578  1
  H  H33  1  0.75065752  0.13610285  0.17705691  1
  H  H34  1  0.74445866  0.46981938  0.17850351  1
  H  H35  1  0.74235159  0.80422534  0.17790150  1
  H  H36  1  0.25644374  0.19506130  0.82364928  1
  H  H37  1  0.24033332  0.53236092  0.82238091  1
  H  H38  1  0.25164857  0.85954372  0.82341785  1
  H  H39  1  0.75669485  0.19871019  0.81697821  1
  H  H40  1  0.74176502  0.52767166  0.82146902  1
  H  H41  1  0.74513043  0.86145919  0.82642829  1
  H  H42  1  0.25261078  0.14009737  0.31974886  1
  H  H43  1  0.26168318  0.46967132  0.32338590  1
  H  H44  1  0.25446799  0.80598746  0.32294220  1
  H  H45  1  0.74353171  0.13640481  0.32210745  1
  H  H46  1  0.73601915  0.46923034  0.32125073  1
  H  H47  1  0.74049694  0.80648334  0.32570302  1
  H  H48  1  0.11497519  0.05729043  0.59297368  1
  H  H49  1  0.12652738  0.38304603  0.61515350  1
  H  H50  1  0.11569339  0.72256873  0.59779836  1
  H  H51  1  0.62199066  0.05069188  0.62240759  1
  H  H52  1  0.62809925  0.38778146  0.61467415  1
  H  H53  1  0.61124039  0.72724613  0.59670951  1
  H  H54  1  0.38714214  0.27437035  0.09395900  1
  H  H55  1  0.37206495  0.61657220  0.12593312  1
  H  H56  1  0.37081925  0.94529644  0.10473067  1
  H  H57  1  0.88648600  0.27642986  0.10010148  1
  H  H58  1  0.87130497  0.61588851  0.10661909  1
  H  H59  1  0.87273753  0.94784637  0.11819801  1
  H  H60  1  0.38308596  0.05628041  0.90653978  1
  H  H61  1  0.38083252  0.39070938  0.89867386  1
  H  H62  1  0.38238163  0.71857509  0.88644101  1
  H  H63  1  0.87844339  0.04804078  0.88236164  1
  H  H64  1  0.88480023  0.39051993  0.90181856  1
  H  H65  1  0.88317415  0.72578916  0.90383590  1
  H  H66  1  0.12428808  0.28029384  0.39210481  1
  H  H67  1  0.11310550  0.61007705  0.40288713  1
  H  H68  1  0.11896738  0.94195049  0.40040753  1
  H  H69  1  0.62265957  0.27933730  0.38466155  1
  H  H70  1  0.61280144  0.60818344  0.40316414  1
  H  H71  1  0.62351877  0.94218110  0.39806723  1
  H  H72  1  0.37249365  0.22270631  0.59969536  1
  H  H73  1  0.38168182  0.55314049  0.62060211  1
  H  H74  1  0.37615105  0.88291972  0.62358456  1
  H  H75  1  0.87673537  0.21792056  0.62073676  1
  H  H76  1  0.88370507  0.54844797  0.62382574  1
  H  H77  1  0.88206729  0.88587243  0.61821178  1
  H  H78  1  0.12118552  0.11357569  0.12081580  1
  H  H79  1  0.11622406  0.45111881  0.11680408  1
  H  H80  1  0.12464980  0.78463918  0.12015215  1
  H  H81  1  0.62326364  0.11027403  0.10999104  1
  H  H82  1  0.61621290  0.44443610  0.11147233  1
  H  H83  1  0.62118900  0.77961056  0.10523299  1
  H  H84  1  0.11765649  0.21375804  0.87747048  1
  H  H85  1  0.12972238  0.55728559  0.90301350  1
  H  H86  1  0.12897054  0.88988646  0.89220195  1
  H  H87  1  0.62149493  0.21757185  0.87437906  1
  H  H88  1  0.63476086  0.56114644  0.90357100  1
  H  H89  1  0.63168222  0.88900191  0.90375950  1
  H  H90  1  0.37524624  0.10951554  0.38806662  1
  H  H91  1  0.36661582  0.44190960  0.40780752  1
  H  H92  1  0.38742932  0.78337267  0.38474158  1
  H  H93  1  0.87718907  0.11705939  0.38279735  1
  H  H94  1  0.87512541  0.44946379  0.37745535  1
  H  H95  1  0.88291249  0.78317340  0.37196934  1
  H  H96  1  0.37292739  0.28048541  0.38543196  1
  H  H97  1  0.36657601  0.61436943  0.38108874  1
  H  H98  1  0.37561115  0.94796191  0.38133928  1
  H  H99  1  0.87564957  0.28061960  0.39622753  1
  H  H100  1  0.86765846  0.61590030  0.37139427  1
  H  H101  1  0.87073922  0.94637699  0.38602526  1
  H  H102  1  0.12461686  0.05793741  0.90569594  1
  H  H103  1  0.13224607  0.38608849  0.87832970  1
  H  H104  1  0.12874282  0.71517343  0.87794926  1
  H  H105  1  0.62807371  0.04567129  0.87922470  1
  H  H106  1  0.62855572  0.38538741  0.88109721  1
  H  H107  1  0.63077163  0.72589526  0.89735572  1
  H  H108  1  0.13191462  0.28320293  0.12939099  1
  H  H109  1  0.12040886  0.61485257  0.11242772  1
  H  H110  1  0.11908061  0.94186425  0.09369108  1
  H  H111  1  0.63271272  0.28247485  0.12555276  1
  H  H112  1  0.61850269  0.61347265  0.09872250  1
  H  H113  1  0.61970488  0.94263814  0.10792358  1
  H  H114  1  0.37614024  0.05656218  0.59453698  1
  H  H115  1  0.37841105  0.38658672  0.61706691  1
  H  H116  1  0.36500789  0.71757319  0.62438384  1
  H  H117  1  0.87206549  0.04720709  0.63305441  1
  H  H118  1  0.88011721  0.38968810  0.59182606  1
  H  H119  1  0.86861279  0.72337554  0.61462080  1
  H  H120  1  0.12577320  0.11461879  0.38817367  1
  H  H121  1  0.12231183  0.44995419  0.37710116  1
  H  H122  1  0.13940751  0.77949897  0.40115014  1
  H  H123  1  0.63031814  0.10592836  0.40137347  1
  H  H124  1  0.63004626  0.44074630  0.40621646  1
  H  H125  1  0.64057084  0.77457537  0.41168866  1
  H  H126  1  0.36342215  0.22773575  0.90611253  1
  H  H127  1  0.37578684  0.55062410  0.87771861  1
  H  H128  1  0.37797009  0.88592960  0.89162508  1
  H  H129  1  0.86873776  0.22079004  0.89671737  1
  H  H130  1  0.87949814  0.54934939  0.87731216  1
  H  H131  1  0.87933488  0.88455469  0.88644211  1
  H  H132  1  0.36737381  0.10631225  0.09450030  1
  H  H133  1  0.36329924  0.44183966  0.09859296  1
  H  H134  1  0.37173888  0.77775063  0.09835679  1
  H  H135  1  0.87094007  0.11023263  0.10260010  1
  H  H136  1  0.86422567  0.44468959  0.10392466  1
  H  H137  1  0.87030111  0.78268850  0.11358861  1
  H  H138  1  0.12522587  0.21781802  0.62143709  1
  H  H139  1  0.13389872  0.55546959  0.60437970  1
  H  H140  1  0.13104881  0.89080180  0.59325363  1
  H  H141  1  0.63138263  0.22124886  0.59352234  1
  H  H142  1  0.63825646  0.56095652  0.59359397  1
  H  H143  1  0.63516192  0.89239816  0.59670956  1
  H  H144  1  0.46432429  0.24955383  -0.00652874  1
  H  H145  1  0.19883462  0.58566610  0.49852927  1
  H  H146  1  0.30393970  0.74833589  -0.00617461  1
  H  H147  1  0.95161241  0.41914490  1.00748032  1
  H  H148  1  0.38394237  0.74795836  0.51481689  1
  H  H149  1  0.90067135  0.74557343  0.50467546  1
  H  H150  1  0.54016036  0.58276449  0.50443992  1
  H  H151  1  0.17402138  0.09244601  0.49561862  1
  H  H152  1  0.95797781  0.24708386  -0.00564869  1
  H  H153  1  0.92495784  0.58600521  -0.00013957  1
  H  H154  1  0.44977377  0.08157048  0.49332326  1
  H  H155  1  0.41863936  0.25487151  0.49838071  1
  H  H156  1  0.35371979  0.58058965  -0.00698442  1
  H  H157  1  0.90581144  0.91768367  0.49359972  1
  H  H158  1  0.35867294  0.91383916  0.50842947  1
  H  H159  1  0.70776427  0.24638934  0.49336167  1
  H  H160  1  0.60565789  0.08332357  0.98363179  1
  H  H161  1  0.28838907  0.42863589  0.50808954  1
  H  H162  1  0.58095253  0.41057211  0.50213234  1
  H  H163  1  0.45962680  0.06790265  1.00706552  1
  H  H164  1  0.10836176  0.41464497  0.98772706  1
  H  H165  1  0.71073525  0.58764696  1.00304367  1
  H  H166  1  0.04977389  0.76305118  0.50151351  1
  H  H167  1  0.83202313  0.74991641  0.00112301  1
  H  H168  1  0.81542567  0.08119396  -0.00003624  1
  H  H169  1  0.86742992  0.58277079  0.50964282  1
  H  H170  1  0.03518015  0.08659665  0.49029819  1
  H  H171  1  0.80569375  0.24941578  1.00392675  1
  H  H172  1  0.29443832  0.07832085  -0.00607149  1
  H  H173  1  0.70777317  0.41594337  0.50555181  1
  H  H174  1  0.04034615  0.58286209  0.50850982  1
  H  H175  1  0.14317008  0.41450958  0.48366740  1
  H  H176  1  0.84880410  0.08362852  0.49442492  1
  H  H177  1  0.13457076  0.24930869  0.99098839  1
  H  H178  1  0.30189245  0.25112657  0.49423297  1
  H  H179  1  0.29043469  0.25061395  1.00638712  1
  H  H180  1  0.44580698  0.42207757  1.00375627  1
  H  H181  1  0.84676518  0.91326509  0.99467929  1
  H  H182  1  0.54642115  0.58540960  -0.00476570  1
  H  H183  1  0.32618060  0.07646401  0.49722189  1
  H  H184  1  0.10862311  0.74832877  -0.00814142  1
  H  H185  1  0.57843418  0.25407424  0.49744467  1
  H  H186  1  0.71183384  0.58275805  0.49322792  1
  H  H187  1  0.66028839  0.41790455  0.00573878  1
  H  H188  1  0.64461109  0.24460829  0.98906825  1
  H  H189  1  0.72243221  0.74943734  0.51000065  1
  H  H190  1  0.42071705  0.40826881  0.50371898  1
  H  H191  1  0.53986981  0.75848704  0.49352172  1
  Pb  Pb192  1  0.25812584  0.05082569  0.74702450  1
  Pb  Pb193  1  0.25309177  0.38199263  0.74600962  1
  Pb  Pb194  1  0.25428049  0.71627545  0.74797998  1
  Pb  Pb195  1  0.74998678  0.04675870  0.75758263  1
  Pb  Pb196  1  0.75924989  0.38333531  0.74792701  1
  Pb  Pb197  1  0.75791615  0.71760808  0.75129319  1
  Pb  Pb198  1  0.25006752  0.28237235  0.24412033  1
  Pb  Pb199  1  0.24587962  0.62030710  0.25486023  1
  Pb  Pb200  1  0.24640688  0.95299849  0.24779804  1
  Pb  Pb201  1  0.75125338  0.28614622  0.25205250  1
  Pb  Pb202  1  0.74258968  0.61680030  0.24670372  1
  Pb  Pb203  1  0.75229023  0.95001365  0.24816594  1
  Pb  Pb204  1  0.00076491  0.21282202  0.75374970  1
  Pb  Pb205  1  0.00905699  0.55069781  0.75129305  1
  Pb  Pb206  1  0.00753502  0.88517376  0.74473605  1
  Pb  Pb207  1  0.50563719  0.21775048  0.74719057  1
  Pb  Pb208  1  0.50793041  0.55070182  0.74892809  1
  Pb  Pb209  1  0.50554313  0.88004894  0.74866710  1
  Pb  Pb210  1  -0.00489133  0.11925440  0.24757089  1
  Pb  Pb211  1  -0.00087978  0.45304437  0.24476732  1
  Pb  Pb212  1  0.00154392  0.78573231  0.25813278  1
  Pb  Pb213  1  0.50368639  0.11525194  0.25098957  1
  Pb  Pb214  1  0.49384148  0.45042289  0.25556632  1
  Pb  Pb215  1  0.49849438  0.78649172  0.25155958  1
  C  C216  1  0.00099495  0.04509452  0.63300526  1
  C  C217  1  -0.00063322  0.37738106  0.62629074  1
  C  C218  1  -0.00518874  0.71393367  0.62903005  1
  C  C219  1  0.49394033  0.04290937  0.62960206  1
  C  C220  1  0.50367037  0.37999451  0.63714860  1
  C  C221  1  0.49285467  0.71236681  0.63188929  1
  C  C222  1  0.00376069  0.28727301  0.13519523  1
  C  C223  1  -0.00522387  0.62420921  0.13321416  1
  C  C224  1  0.00026092  0.95365247  0.12865389  1
  C  C225  1  0.50396469  0.28975235  0.13063649  1
  C  C226  1  0.50013927  0.62350890  0.13522459  1
  C  C227  1  0.49479440  0.95259260  0.13129263  1
  C  C228  1  0.00599498  0.04504033  0.87095704  1
  C  C229  1  0.00463094  0.37983997  0.86818539  1
  C  C230  1  0.00208110  0.71288101  0.87090083  1
  C  C231  1  0.50054860  0.04285007  0.87061244  1
  C  C232  1  0.50125599  0.37890599  0.86769381  1
  C  C233  1  0.50894133  0.71277412  0.86925765  1
  C  C234  1  -0.00056029  0.28801218  0.37423427  1
  C  C235  1  -0.00402443  0.62050680  0.36667695  1
  C  C236  1  -0.00274463  0.95373655  0.37142803  1
  C  C237  1  0.49770387  0.28646553  0.36409161  1
  C  C238  1  0.49390587  0.62140685  0.36874441  1
  C  C239  1  0.50269190  0.95424126  0.36679779  1
  C  C240  1  0.25305932  0.21299399  0.63381428  1
  C  C241  1  0.25486449  0.54620479  0.63581288  1
  C  C242  1  0.24950536  0.88011496  0.62913980  1
  C  C243  1  0.74876264  0.20970123  0.63005827  1
  C  C244  1  0.75554089  0.54421903  0.62949129  1
  C  C245  1  0.75449200  0.88058119  0.63191676  1
  C  C246  1  0.24926155  0.12070849  0.12905720  1
  C  C247  1  0.24339825  0.45558940  0.13009882  1
  C  C248  1  0.25236527  0.78971067  0.13154747  1
  C  C249  1  0.74839872  0.11943764  0.12991393  1
  C  C250  1  0.74131883  0.45349632  0.13132603  1
  C  C251  1  0.74525273  0.78893820  0.13047384  1
  C  C252  1  0.24580497  0.21114610  0.87047870  1
  C  C253  1  0.24949650  0.54660257  0.86974936  1
  C  C254  1  0.25302827  0.87804553  0.86954938  1
  C  C255  1  0.74837295  0.21234369  0.86482583  1
  C  C256  1  0.75169168  0.54472326  0.86784154  1
  C  C257  1  0.75254283  0.87751206  0.87339341  1
  C  C258  1  0.25060013  0.12274955  0.36675761  1
  C  C259  1  0.25011406  0.45419859  0.37034463  1
  C  C260  1  0.26040981  0.78975045  0.36986317  1
  C  C261  1  0.75015035  0.12027778  0.36908851  1
  C  C262  1  0.74649080  0.45413528  0.36831307  1
  C  C263  1  0.75471885  0.78940491  0.37142398  1
  C  C264  1  0.93069379  0.06877195  0.54999115  1
  C  C265  1  0.53716582  0.74565669  0.96193747  1
  C  C266  1  0.54281439  0.40177086  0.54194119  1
  C  C267  1  0.98175145  0.40809788  0.96422859  1
  C  C268  1  0.51760974  0.59519297  0.03943587  1
  C  C269  1  0.06740905  0.26387600  0.04834384  1
  C  C270  1  0.79002113  0.76061215  0.03824108  1
  C  C271  1  0.51149878  0.74477568  0.53678264  1
  C  C272  1  0.27314131  0.76014881  0.03663796  1
  C  C273  1  0.98008516  0.74295035  0.96655495  1
  C  C274  1  0.69184945  0.23622502  0.95423906  1
  C  C275  1  0.28976833  0.09067031  0.45813466  1
  C  C276  1  0.97843212  0.40519957  0.53031891  1
  C  C277  1  0.06060220  0.73925663  0.95885771  1
  C  C278  1  0.02788758  0.92165527  0.46598526  1
  C  C279  1  0.81800703  0.57346742  0.54473040  1
  C  C280  1  0.98728259  0.26023665  0.03722757  1
  C  C281  1  0.19245102  0.42796451  0.04125513  1
  C  C282  1  0.96165740  0.25991333  0.46598934  1
  C  C283  1  0.02555967  0.07657130  0.96576032  1
  C  C284  1  0.45726736  0.26337078  0.45869101  1
  C  C285  1  0.21768715  0.91417009  0.95927205  1
  C  C286  1  0.01153367  0.59477986  0.46496370  1
  C  C287  1  0.77345104  0.23814090  0.96176079  1
  C  C288  1  0.96220061  0.59631621  0.03977030  1
  C  C289  1  0.52772829  0.92255686  0.46071459  1
  C  C290  1  0.18883680  0.08709242  0.04419925  1
  C  C291  1  0.27296786  0.24018514  0.53793908  1
  C  C292  1  0.30854507  0.76182233  0.45936733  1
  C  C293  1  0.82304393  0.75860096  0.45335723  1
  C  C294  1  0.46087385  0.40083172  0.54266618  1
  C  C295  1  0.30989031  0.90549794  0.54125856  1
  C  C296  1  0.93143918  0.59741192  0.45317316  1
  C  C297  1  0.18387112  0.23996133  0.95571267  1
  C  C298  1  0.02013747  0.92126290  0.03406648  1
  C  C299  1  0.55486787  0.07462926  0.54419460  1
  C  C300  1  0.22559253  0.57376657  0.96604336  1
  C  C301  1  0.00959191  0.07301159  0.53452313  1
  C  C302  1  0.56750580  0.25831915  0.04689216  1
  C  C303  1  0.47794205  0.40954275  0.96186211  1
  C  C304  1  0.30645204  0.57153183  0.95915952  1
  C  C305  1  0.80089458  0.09339266  0.45814601  1
  C  C306  1  0.23076498  0.57392363  0.54086268  1
  C  C307  1  0.53915767  0.26302457  0.45827291  1
  C  C308  1  0.72395520  0.90909477  0.96844286  1
  C  C309  1  0.22928384  0.90781320  0.53238586  1
  C  C310  1  0.70843112  0.76020779  0.03688086  1
  C  C311  1  0.04180720  0.25953441  0.46469794  1
  N  N312  1  0.48966902  0.25612229  0.03680610  1
  N  N313  1  0.21013610  0.09254224  0.45727522  1
  N  N314  1  0.94320245  0.92351413  0.04097857  1
  N  N315  1  0.55698110  0.40755310  0.95637350  1
  N  N316  1  0.53449656  0.92465335  0.03846241  1
  N  N317  1  0.94847464  0.07389010  0.95932981  1
  N  N318  1  0.73255594  0.90934432  0.53601088  1
  N  N319  1  0.26954460  0.42393994  0.03426712  1
  N  N320  1  0.43316092  0.74131652  0.54725914  1
  N  N321  1  0.81333754  0.57363780  0.95302568  1
  N  N322  1  0.70147763  0.09366457  0.03823197  1
  N  N323  1  0.04131192  0.59507396  0.04155980  1
  N  N324  1  0.73205336  0.42521614  0.46265866  1
  N  N325  1  0.70014069  0.42582814  0.04148228  1
  N  N326  1  0.80839628  0.90724062  0.54318822  1
  N  N327  1  0.80902487  0.24203654  0.54571536  1
  N  N328  1  0.78001470  0.09310700  0.03711678  1
  N  N329  1  0.26691110  0.08675008  0.03582012  1
  N  N330  1  0.45835639  0.92600053  0.03726957  1
  N  N331  1  0.43947561  0.59479185  0.04905931  1
  N  N332  1  0.26263674  0.24480090  0.96393097  1
  N  N333  1  0.48244748  0.07721367  0.96372883  1
  N  N334  1  0.19440710  0.23878135  0.54544521  1
  N  N335  1  0.45054244  0.92477910  0.45616985  1
  N  N336  1  0.74565199  0.75558612  0.46556302  1
  N  N337  1  0.73174102  0.24235571  0.53722487  1
  N  N338  1  0.72233162  0.08962711  0.46472765  1
  N  N339  1  0.29493472  0.91302704  0.96035756  1
  N  N340  1  0.45990957  0.74271619  0.96006917  1
  N  N341  1  0.77825219  0.42614093  0.03724526  1
  N  N342  1  0.51355196  0.59028949  0.46166980  1
  N  N343  1  0.26683135  0.42125451  0.46401248  1
  N  N344  1  0.80244621  0.90589763  0.96167142  1
  N  N345  1  0.73609526  0.57854117  0.96032853  1
  N  N346  1  0.19460859  0.76171289  0.04413612  1
  N  N347  1  0.05537259  0.40259975  0.53672573  1
  N  N348  1  0.94403096  0.74403633  0.54214012  1
  N  N349  1  0.06050749  0.40741345  0.95480928  1
  N  N350  1  0.47674874  0.07530346  0.53565398  1
  N  N351  1  0.30968749  0.57237979  0.54592207  1
  N  N352  1  0.56037135  0.06556886  0.95636079  1
  N  N353  1  0.94922334  0.92444280  0.45998616  1
  N  N354  1  0.18920174  0.43171817  0.45564162  1
  N  N355  1  0.73926669  0.57794803  0.53593952  1
  N  N356  1  0.80906068  0.42849005  0.45409666  1
  N  N357  1  0.43613438  0.59209792  0.45536846  1
  N  N358  1  0.23122263  0.75969023  0.46559647  1
  N  N359  1  0.02186200  0.73615621  0.53352308  1
  N  N360  1  0.05280461  0.05732747  0.58765535  1
  N  N361  1  0.06860911  0.38461258  0.59756403  1
  N  N362  1  0.05382171  0.72679062  0.59007390  1
  N  N363  1  0.56554801  0.05557492  0.60255369  1
  N  N364  1  0.56814968  0.38885191  0.60106974  1
  N  N365  1  0.54902715  0.72715297  0.58931824  1
  N  N366  1  0.44953963  0.27896076  0.08750742  1
  N  N367  1  0.43015697  0.61231073  0.10869888  1
  N  N368  1  0.43211046  0.94306608  0.09475263  1
  N  N369  1  0.94840056  0.27547372  0.09237046  1
  N  N370  1  0.93196918  0.61378894  0.09583275  1
  N  N371  1  0.93079840  0.94390882  0.10112211  1
  N  N372  1  0.44538263  0.05284593  0.91352658  1
  N  N373  1  0.44243037  0.39248685  0.90776849  1
  N  N374  1  0.44223740  0.72178513  0.90091779  1
  N  N375  1  0.93654779  0.05415083  0.89876500  1
  N  N376  1  0.94648704  0.39128585  0.91046252  1
  N  N377  1  0.94462670  0.72700719  0.91343661  1
  N  N378  1  0.06575061  0.27642203  0.40864080  1
  N  N379  1  0.05095174  0.60976419  0.41013150  1
  N  N380  1  0.05795116  0.93980719  0.41115597  1
  N  N381  1  0.56302309  0.27715779  0.39905710  1
  N  N382  1  0.55039421  0.61028550  0.41024477  1
  N  N383  1  0.56201845  0.94036793  0.40697750  1
  N  N384  1  0.31090449  0.22451471  0.59188885  1
  N  N385  1  0.32292734  0.55551261  0.60528569  1
  N  N386  1  0.32095855  0.88835858  0.60253035  1
  N  N387  1  0.81884373  0.22352318  0.60400370  1
  N  N388  1  0.82782103  0.55437699  0.60357135  1
  N  N389  1  0.82324272  0.88982742  0.60277385  1
  N  N390  1  0.17769016  0.10784175  0.10198987  1
  N  N391  1  0.17385321  0.44650490  0.09982826  1
  N  N392  1  0.18306540  0.78025760  0.10327554  1
  N  N393  1  0.68280206  0.10917766  0.09642543  1
  N  N394  1  0.67614183  0.44339893  0.09789563  1
  N  N395  1  0.68160902  0.77711725  0.09263338  1
  N  N396  1  0.17371043  0.22063128  0.89697716  1
  N  N397  1  0.19132177  0.55891122  0.91221454  1
  N  N398  1  0.18900228  0.89322481  0.90458354  1
  N  N399  1  0.67794521  0.22042492  0.89376219  1
  N  N400  1  0.69704751  0.55837921  0.90984003  1
  N  N401  1  0.69272000  0.89154370  0.91384402  1
  N  N402  1  0.31513011  0.10807585  0.40162284  1
  N  N403  1  0.30472427  0.44514560  0.41409546  1
  N  N404  1  0.32920283  0.77966721  0.40093946  1
  N  N405  1  0.81932426  0.11195804  0.39966420  1
  N  N406  1  0.81747327  0.44528209  0.39519047  1
  N  N407  1  0.82878780  0.77771032  0.39419954  1
  N  N408  1  0.43272264  0.27763806  0.39969762  1
  N  N409  1  0.42442559  0.61007573  0.39701673  1
  N  N410  1  0.43464975  0.94426861  0.39659736  1
  N  N411  1  0.93490993  0.27692365  0.41077568  1
  N  N412  1  0.92249258  0.61273098  0.39327886  1
  N  N413  1  0.92967248  0.94495619  0.40211430  1
  N  N414  1  0.06320894  0.05944471  0.91290109  1
  N  N415  1  0.07411213  0.38947856  0.89592873  1
  N  N416  1  0.07299561  0.72061472  0.89838033  1
  N  N417  1  0.57114154  0.05425214  0.89617113  1
  N  N418  1  0.56976068  0.38855349  0.89712734  1
  N  N419  1  0.57000188  0.72757225  0.90757739  1
  N  N420  1  0.07695619  0.27998349  0.10790167  1
  N  N421  1  0.05976958  0.61247862  0.09983903  1
  N  N422  1  0.05725663  0.93945149  0.08665226  1
  N  N423  1  0.57676108  0.27750451  0.10544140  1
  N  N424  1  0.55634402  0.61217850  0.09221959  1
  N  N425  1  0.55874197  0.94112392  0.09663083  1
  N  N426  1  0.43793294  0.05354993  0.58753964  1
  N  N427  1  0.43786795  0.38737643  0.60218752  1
  N  N428  1  0.42216253  0.72004203  0.60528155  1
  N  N429  1  0.92591914  0.05219969  0.60949223  1
  N  N430  1  0.94179768  0.39032983  0.58418849  1
  N  N431  1  0.92676316  0.72185297  0.59813765  1
  N  N432  1  0.18630038  0.11522645  0.40179992  1
  N  N433  1  0.17927263  0.44278806  0.39539733  1
  N  N434  1  0.20157585  0.77747907  0.40864338  1
  N  N435  1  0.69216930  0.10655596  0.40867136  1
  N  N436  1  0.69200167  0.44259368  0.41137561  1
  N  N437  1  0.70290661  0.77762561  0.41601220  1
  N  N438  1  0.30085011  0.22390964  0.91263135  1
  N  N439  1  0.31998928  0.55448589  0.89807880  1
  N  N440  1  0.31732704  0.89030504  0.90317015  1
  N  N441  1  0.80718380  0.22312925  0.90588199  1
  N  N442  1  0.82230669  0.55462511  0.89466266  1
  N  N443  1  0.82074834  0.88564031  0.90339802  1
  N  N444  1  0.30542045  0.10924151  0.08732155  1
  N  N445  1  0.30128522  0.44170514  0.09093962  1
  N  N446  1  0.30995757  0.77703390  0.09013987  1
  N  N447  1  0.80962668  0.10874655  0.09253070  1
  N  N448  1  0.80310765  0.44244040  0.09392738  1
  N  N449  1  0.81162070  0.77855019  0.09757800  1
  N  N450  1  0.18386146  0.22222104  0.60507493  1
  N  N451  1  0.19556934  0.55785890  0.59545817  1
  N  N452  1  0.19294820  0.89250447  0.58535697  1
  N  N453  1  0.69339482  0.22062024  0.58751427  1
  N  N454  1  0.70074818  0.55665754  0.58706706  1
  N  N455  1  0.69774332  0.89254903  0.59058402  1
  Cl  Cl456  1  0.24676342  0.06146171  0.60531984  1
  Cl  Cl457  1  0.25461732  0.39641725  0.60917687  1
  Cl  Cl458  1  0.23677072  0.71884312  0.61615299  1
  Cl  Cl459  1  0.74453020  0.05255204  0.63080196  1
  Cl  Cl460  1  0.75287878  0.39203399  0.60713255  1
  Cl  Cl461  1  0.73615343  0.72872282  0.60405947  1
  Cl  Cl462  1  0.26900338  0.26885051  0.10504610  1
  Cl  Cl463  1  0.24451449  0.61488470  0.12425787  1
  Cl  Cl464  1  0.24443174  0.94783650  0.11371708  1
  Cl  Cl465  1  0.76258806  0.27863698  0.11869096  1
  Cl  Cl466  1  0.74148338  0.60970294  0.10574074  1
  Cl  Cl467  1  0.74447852  0.94304545  0.11281390  1
  Cl  Cl468  1  0.26080253  0.06079002  0.89494028  1
  Cl  Cl469  1  0.25742727  0.38445032  0.87676935  1
  Cl  Cl470  1  0.26004386  0.72233439  0.88169640  1
  Cl  Cl471  1  0.75291140  0.04905861  0.89405793  1
  Cl  Cl472  1  0.75749889  0.39097241  0.88025840  1
  Cl  Cl473  1  0.75964310  0.72393297  0.88487407  1
  Cl  Cl474  1  0.25033258  0.28149797  0.37714555  1
  Cl  Cl475  1  0.23626026  0.60892697  0.39003494  1
  Cl  Cl476  1  0.24415402  0.94670890  0.38120608  1
  Cl  Cl477  1  0.74550170  0.27542299  0.38930737  1
  Cl  Cl478  1  0.73030780  0.60524925  0.39115146  1
  Cl  Cl479  1  0.74668836  0.94351556  0.37932184  1
  Cl  Cl480  1  0.00056923  0.21422191  0.62626254  1
  Cl  Cl481  1  0.01176065  0.55208541  0.61630388  1
  Cl  Cl482  1  0.00795209  0.88756935  0.60787592  1
  Cl  Cl483  1  0.50495435  0.21998612  0.61113919  1
  Cl  Cl484  1  0.51809001  0.56322524  0.60463569  1
  Cl  Cl485  1  0.51360330  0.88965104  0.61482396  1
  Cl  Cl486  1  -0.00729347  0.11191439  0.11629379  1
  Cl  Cl487  1  -0.01232543  0.44473496  0.10907350  1
  Cl  Cl488  1  -0.00337753  0.78425692  0.12829008  1
  Cl  Cl489  1  0.49255945  0.10470895  0.10776011  1
  Cl  Cl490  1  0.49005966  0.44236524  0.11699878  1
  Cl  Cl491  1  0.49531645  0.77664850  0.12035423  1
  Cl  Cl492  1  -0.00956141  0.21971702  0.88857305  1
  Cl  Cl493  1  0.00662910  0.55330534  0.88403768  1
  Cl  Cl494  1  0.00295520  0.88789576  0.87653018  1
  Cl  Cl495  1  0.48347069  0.22793679  0.89435507  1
  Cl  Cl496  1  0.51559119  0.56074764  0.88437150  1
  Cl  Cl497  1  0.50562119  0.88481663  0.88023222  1
  Cl  Cl498  1  0.00494452  0.11231817  0.38258066  1
  Cl  Cl499  1  -0.00064299  0.44830032  0.37572138  1
  Cl  Cl500  1  0.01608817  0.78162791  0.39645807  1
  Cl  Cl501  1  0.50059100  0.10493366  0.38953850  1
  Cl  Cl502  1  0.49841747  0.44118800  0.39298360  1
  Cl  Cl503  1  0.51761578  0.77632563  0.39035302  1
  Cl  Cl504  1  0.35784201  0.14707410  0.75269210  1
  Cl  Cl505  1  0.37044198  0.47921967  0.74791917  1
  Cl  Cl506  1  0.36146794  0.81255596  0.73902202  1
  Cl  Cl507  1  0.85735901  0.14959363  0.74724200  1
  Cl  Cl508  1  0.86053432  0.48053360  0.74998214  1
  Cl  Cl509  1  0.86609351  0.80794352  0.74211448  1
  Cl  Cl510  1  0.14018377  0.18948046  0.23846502  1
  Cl  Cl511  1  0.13697189  0.51776110  0.25292016  1
  Cl  Cl512  1  0.13957736  0.84946195  0.24848042  1
  Cl  Cl513  1  0.63492978  0.18737128  0.24639655  1
  Cl  Cl514  1  0.64374432  0.51915313  0.24797019  1
  Cl  Cl515  1  0.64179579  0.84843386  0.24903182  1
  Cl  Cl516  1  0.13839325  0.14643937  0.75366247  1
  Cl  Cl517  1  0.14525652  0.48372292  0.75457948  1
  Cl  Cl518  1  0.14165147  0.81664061  0.74814624  1
  Cl  Cl519  1  0.63392409  0.14611583  0.76088381  1
  Cl  Cl520  1  0.63961128  0.47919373  0.74354641  1
  Cl  Cl521  1  0.64681841  0.81826595  0.75280153  1
  Cl  Cl522  1  0.35740622  0.18568045  0.25256715  1
  Cl  Cl523  1  0.35654442  0.51796291  0.25168939  1
  Cl  Cl524  1  0.35904097  0.85214621  0.25218037  1
  Cl  Cl525  1  0.85389137  0.18024215  0.25279042  1
  Cl  Cl526  1  0.86186995  0.52128251  0.25315712  1
  Cl  Cl527  1  0.86391181  0.85490498  0.25655248  1
  Cl  Cl528  1  0.11611322  0.31272892  0.74742087  1
  Cl  Cl529  1  0.10225781  0.65225952  0.75246318  1
  Cl  Cl530  1  0.10883697  0.98189614  0.75140623  1
  Cl  Cl531  1  0.61082108  0.31177457  0.75850791  1
  Cl  Cl532  1  0.60735342  0.65055369  0.74586783  1
  Cl  Cl533  1  0.60975813  0.98425999  0.75316937  1
  Cl  Cl534  1  0.38437263  0.01969831  0.25642281  1
  Cl  Cl535  1  0.39529118  0.35225498  0.24979032  1
  Cl  Cl536  1  0.38711017  0.68478069  0.25636431  1
  Cl  Cl537  1  0.88884863  0.01726258  0.24702122  1
  Cl  Cl538  1  0.89216852  0.34994617  0.25451371  1
  Cl  Cl539  1  0.88382024  0.68950594  0.26091742  1
  Cl  Cl540  1  0.38797995  0.31345420  0.74161730  1
  Cl  Cl541  1  0.38469730  0.64362981  0.74644512  1
  Cl  Cl542  1  0.38988614  0.98054902  0.75011431  1
  Cl  Cl543  1  0.89540092  0.31693530  0.74967962  1
  Cl  Cl544  1  0.88513415  0.64434686  0.74292152  1
  Cl  Cl545  1  0.88578778  0.97947093  0.74915953  1
  Cl  Cl546  1  0.10813475  0.01932065  0.25066521  1
  Cl  Cl547  1  0.11473127  0.35418225  0.24697166  1
  Cl  Cl548  1  0.10458473  0.68249571  0.24688173  1
  Cl  Cl549  1  0.60565732  0.02042656  0.24639027  1
  Cl  Cl550  1  0.61556528  0.35527878  0.24485584  1
  Cl  Cl551  1  0.60818085  0.68367575  0.25208421  1
