# generated using pymatgen
data_H8PbC4(N3Cl2)2
_symmetry_space_group_name_H-M   'P 1'
_cell_length_a   16.62367737
_cell_length_b   22.51556745
_cell_length_c   21.59268968
_cell_angle_alpha   90.00142486
_cell_angle_beta   89.97459056
_cell_angle_gamma   89.99937026
_symmetry_Int_Tables_number   1
_chemical_formula_structural   H8PbC4(N3Cl2)2
_chemical_formula_sum   'H192 Pb24 C96 N144 Cl96'
_cell_volume   8081.96004053
_cell_formula_units_Z   24
loop_
 _symmetry_equiv_pos_site_id
 _symmetry_equiv_pos_as_xyz
  1  'x, y, z'
loop_
 _atom_site_type_symbol
 _atom_site_label
 _atom_site_symmetry_multiplicity
 _atom_site_fract_x
 _atom_site_fract_y
 _atom_site_fract_z
 _atom_site_occupancy
  H  H0  1  0.00921024  0.03139258  0.68118568  1
  H  H1  1  -0.00820947  0.36355135  0.67496477  1
  H  H2  1  -0.01028315  0.69741908  0.67868531  1
  H  H3  1  0.49130278  0.03066549  0.67919329  1
  H  H4  1  0.50069079  0.36424420  0.68012252  1
  H  H5  1  0.51651524  0.69657116  0.67564702  1
  H  H6  1  0.01149388  0.30392848  0.17711713  1
  H  H7  1  -0.00760204  0.63640041  0.17566045  1
  H  H8  1  0.00339888  0.97178802  0.17489554  1
  H  H9  1  0.49069787  0.29900141  0.17778071  1
  H  H10  1  0.50626218  0.63777667  0.18235456  1
  H  H11  1  0.48960753  0.96787746  0.17764456  1
  H  H12  1  -0.01254573  0.02946670  0.82267676  1
  H  H13  1  0.00086362  0.36295203  0.82705342  1
  H  H14  1  -0.00620065  0.69681372  0.82390348  1
  H  H15  1  0.51568700  0.03262050  0.82213549  1
  H  H16  1  0.49786110  0.35862411  0.81882395  1
  H  H17  1  0.49330317  0.69908528  0.82298896  1
  H  H18  1  -0.01673241  0.30309275  0.32142314  1
  H  H19  1  -0.01110665  0.63675689  0.31914927  1
  H  H20  1  0.00980704  0.96893346  0.31985565  1
  H  H21  1  0.51812358  0.30529138  0.32381760  1
  H  H22  1  0.51223103  0.63698831  0.32406827  1
  H  H23  1  0.50194100  0.97076682  0.32017961  1
  H  H24  1  0.24768339  0.19830070  0.67260887  1
  H  H25  1  0.23743011  0.53017009  0.67353614  1
  H  H26  1  0.23919873  0.86272343  0.68016793  1
  H  H27  1  0.75646788  0.19162482  0.68143724  1
  H  H28  1  0.76325577  0.52901458  0.67661640  1
  H  H29  1  0.76346067  0.85976945  0.68022848  1
  H  H30  1  0.25753826  0.13747328  0.17507635  1
  H  H31  1  0.26892448  0.46921804  0.17962485  1
  H  H32  1  0.25348186  0.80155034  0.17774778  1
  H  H33  1  0.74517968  0.13832752  0.18230486  1
  H  H34  1  0.73363292  0.47015234  0.17481397  1
  H  H35  1  0.75339997  0.80395318  0.17384825  1
  H  H36  1  0.23892988  0.19669629  0.82166448  1
  H  H37  1  0.26156214  0.53400003  0.82222353  1
  H  H38  1  0.26093100  0.86291695  0.82357357  1
  H  H39  1  0.75595803  0.19631764  0.82083861  1
  H  H40  1  0.73816192  0.53457036  0.81989645  1
  H  H41  1  0.74823797  0.86005451  0.82327445  1
  H  H42  1  0.25829287  0.14055719  0.32365523  1
  H  H43  1  0.25256604  0.47210928  0.31890670  1
  H  H44  1  0.24741270  0.80383976  0.31606965  1
  H  H45  1  0.75109068  0.13715264  0.32077639  1
  H  H46  1  0.74583386  0.47482274  0.32515933  1
  H  H47  1  0.75664150  0.80352944  0.32470975  1
  H  H48  1  0.13274188  0.05414706  0.61083253  1
  H  H49  1  0.12626011  0.38547360  0.61476990  1
  H  H50  1  0.11610081  0.71822111  0.61210495  1
  H  H51  1  0.63275261  0.04834311  0.62975403  1
  H  H52  1  0.62611388  0.38919097  0.60950211  1
  H  H53  1  0.61994315  0.72329895  0.59097834  1
  H  H54  1  0.38479606  0.27364488  0.09437270  1
  H  H55  1  0.37965138  0.61361930  0.11581533  1
  H  H56  1  0.39052630  0.93716296  0.09025125  1
  H  H57  1  0.87849205  0.28005599  0.11498324  1
  H  H58  1  0.88240228  0.60933019  0.09348783  1
  H  H59  1  0.88523910  0.94296337  0.10200452  1
  H  H60  1  0.37297310  0.04955035  0.87212780  1
  H  H61  1  0.37172443  0.38403638  0.88609654  1
  H  H62  1  0.38476132  0.72722294  0.90477480  1
  H  H63  1  0.87849979  0.05851853  0.90549126  1
  H  H64  1  0.87236800  0.38830902  0.89108898  1
  H  H65  1  0.88735373  0.72533202  0.90745542  1
  H  H66  1  0.12637867  0.28345015  0.37115187  1
  H  H67  1  0.11845026  0.61358529  0.38652683  1
  H  H68  1  0.11685239  0.94139781  0.40394619  1
  H  H69  1  0.61461524  0.27275168  0.41192641  1
  H  H70  1  0.61920622  0.61101951  0.40566342  1
  H  H71  1  0.61946077  0.94502509  0.39457045  1
  H  H72  1  0.37619685  0.22187390  0.60710550  1
  H  H73  1  0.37840464  0.54924782  0.62081157  1
  H  H74  1  0.38213550  0.88012194  0.63081882  1
  H  H75  1  0.87842460  0.22472822  0.61175206  1
  H  H76  1  0.87342770  0.55747832  0.59566684  1
  H  H77  1  0.87914559  0.88590825  0.60232914  1
  H  H78  1  0.12747903  0.11471876  0.11161778  1
  H  H79  1  0.12555360  0.45125373  0.12901006  1
  H  H80  1  0.11696697  0.78179403  0.11809402  1
  H  H81  1  0.63173646  0.11234292  0.10316086  1
  H  H82  1  0.63707403  0.43642204  0.08708994  1
  H  H83  1  0.62026630  0.78012269  0.11256663  1
  H  H84  1  0.12146939  0.22289006  0.89752842  1
  H  H85  1  0.11958370  0.55021480  0.87464006  1
  H  H86  1  0.11680935  0.88434820  0.86897178  1
  H  H87  1  0.62457053  0.21915220  0.88468160  1
  H  H88  1  0.62846910  0.55736437  0.90067924  1
  H  H89  1  0.61884717  0.88632190  0.88846012  1
  H  H90  1  0.36435382  0.10703890  0.40507282  1
  H  H91  1  0.37135699  0.44371314  0.39367214  1
  H  H92  1  0.37771448  0.77932269  0.38263414  1
  H  H93  1  0.86918518  0.10949057  0.39496220  1
  H  H94  1  0.87181460  0.44727506  0.39334538  1
  H  H95  1  0.87814433  0.77705460  0.39645965  1
  H  H96  1  0.37353740  0.28734406  0.37090203  1
  H  H97  1  0.37303747  0.61899631  0.37780053  1
  H  H98  1  0.37105306  0.94868762  0.38168409  1
  H  H99  1  0.88300194  0.27528658  0.40886833  1
  H  H100  1  0.86994154  0.61169041  0.39633146  1
  H  H101  1  0.87125707  0.95013492  0.37740928  1
  H  H102  1  0.12421703  0.05273369  0.87793516  1
  H  H103  1  0.12059217  0.38830220  0.90131726  1
  H  H104  1  0.13319557  0.71732348  0.87819152  1
  H  H105  1  0.61498788  0.06290810  0.91082274  1
  H  H106  1  0.62110773  0.38626833  0.89043830  1
  H  H107  1  0.63130132  0.71865531  0.88011964  1
  H  H108  1  0.12608928  0.27543534  0.09881135  1
  H  H109  1  0.12871873  0.61603436  0.11870401  1
  H  H110  1  0.13326330  0.94548886  0.11072821  1
  H  H111  1  0.62985019  0.28273941  0.12625847  1
  H  H112  1  0.62921050  0.61386611  0.10912565  1
  H  H113  1  0.63276385  0.94913143  0.13043859  1
  H  H114  1  0.38813846  0.05762248  0.59431593  1
  H  H115  1  0.37668302  0.38802200  0.60986673  1
  H  H116  1  0.37623153  0.71528872  0.62724579  1
  H  H117  1  0.88340888  0.05347129  0.61362589  1
  H  H118  1  0.87854282  0.39369389  0.59854178  1
  H  H119  1  0.86650003  0.71967555  0.60715128  1
  H  H120  1  0.11916450  0.11748977  0.37586491  1
  H  H121  1  0.12321540  0.44747787  0.38642349  1
  H  H122  1  0.12926896  0.77903384  0.39422115  1
  H  H123  1  0.62063661  0.11353556  0.38604305  1
  H  H124  1  0.62289018  0.44456193  0.39388677  1
  H  H125  1  0.62933325  0.77721814  0.39179272  1
  H  H126  1  0.37002834  0.21762330  0.88270111  1
  H  H127  1  0.36477344  0.56019013  0.90784940  1
  H  H128  1  0.35889257  0.89221605  0.91220692  1
  H  H129  1  0.87286080  0.22282530  0.89631140  1
  H  H130  1  0.87544756  0.55095845  0.87645499  1
  H  H131  1  0.86783509  0.88863565  0.89509963  1
  H  H132  1  0.37652690  0.11066474  0.09974637  1
  H  H133  1  0.36883873  0.43793248  0.09353635  1
  H  H134  1  0.36355395  0.77599442  0.09473836  1
  H  H135  1  0.87971566  0.11512098  0.12056691  1
  H  H136  1  0.87845657  0.45570760  0.12663601  1
  H  H137  1  0.86826745  0.77544110  0.09812811  1
  H  H138  1  0.12783395  0.22671897  0.60009770  1
  H  H139  1  0.13379975  0.56125936  0.58914688  1
  H  H140  1  0.13730497  0.88836375  0.59468864  1
  H  H141  1  0.62933236  0.21824186  0.61565945  1
  H  H142  1  0.62654554  0.55163478  0.61968827  1
  H  H143  1  0.63093529  0.88412389  0.61805131  1
  H  H144  1  0.39965841  0.91611017  0.49414626  1
  H  H145  1  0.21336503  0.91612079  0.49081980  1
  H  H146  1  0.42660658  0.41940874  0.50122897  1
  H  H147  1  0.42206640  0.58504258  0.00417960  1
  H  H148  1  0.38888987  0.74763584  0.51199599  1
  H  H149  1  0.65469954  0.74939625  0.00562582  1
  H  H150  1  0.92452254  0.08048040  0.50187891  1
  H  H151  1  0.09648649  0.91768804  0.00207019  1
  H  H152  1  0.13517494  0.58043844  0.98515507  1
  H  H153  1  0.67220386  0.24976793  0.50511078  1
  H  H154  1  0.56546024  0.91209184  0.50159046  1
  H  H155  1  0.06713371  0.41629153  1.00457514  1
  H  H156  1  0.86932550  0.42040105  0.01860255  1
  H  H157  1  0.32180680  0.08509928  -0.00325263  1
  H  H158  1  0.55163530  0.58422062  0.51157668  1
  H  H159  1  0.08979187  0.08005100  0.50000631  1
  H  H160  1  0.38288862  0.25483018  0.47987341  1
  H  H161  1  0.28832538  0.40803368  -0.00633358  1
  H  H162  1  0.81441015  0.92046696  1.00346169  1
  H  H163  1  0.18020279  0.25316446  0.49600193  1
  H  H164  1  0.52889623  0.25873261  0.50932670  1
  H  H165  1  0.81803243  0.91756410  0.49813261  1
  H  H166  1  0.21270974  0.57846206  0.48973469  1
  H  H167  1  0.09326990  0.41865811  0.50812916  1
  H  H168  1  0.36168953  0.58450335  0.51202087  1
  H  H169  1  0.56812976  0.40330890  0.99756608  1
  H  H170  1  0.82536649  0.24831276  0.50585743  1
  H  H171  1  0.33741043  0.25113279  0.99553200  1
  H  H172  1  0.27568798  0.91601719  1.00945295  1
  H  H173  1  0.61375025  0.25218629  1.01103942  1
  H  H174  1  0.91733565  0.24800811  0.00868045  1
  H  H175  1  0.16087913  0.08540913  -0.00039381  1
  H  H176  1  0.14502442  0.75289145  0.00910809  1
  H  H177  1  0.62070638  0.07519060  0.51514931  1
  H  H178  1  0.46153419  0.08275353  0.49030191  1
  H  H179  1  0.72350402  0.42023230  -0.01044430  1
  H  H180  1  0.07443557  0.74844498  0.49938998  1
  H  H181  1  0.69669752  0.08402289  -0.00228192  1
  H  H182  1  0.04099863  0.91182315  0.50266485  1
  H  H183  1  0.57414404  0.59947543  0.00188110  1
  H  H184  1  0.65563188  0.91422754  0.99619585  1
  H  H185  1  0.28930274  0.58863067  1.01076319  1
  H  H186  1  0.28895051  0.07930690  0.50504677  1
  H  H187  1  0.96325624  0.24747859  0.50912798  1
  H  H188  1  0.41547971  0.41242217  0.99728689  1
  H  H189  1  0.53085027  0.08928842  1.00650888  1
  H  H190  1  0.69595276  0.58335577  1.00903850  1
  H  H191  1  0.47178568  0.91292085  -0.00736705  1
  Pb  Pb192  1  0.25043927  0.04715000  0.74102710  1
  Pb  Pb193  1  0.24559754  0.38178234  0.75284951  1
  Pb  Pb194  1  0.24560068  0.71669189  0.75336263  1
  Pb  Pb195  1  0.74704089  0.04972150  0.76040793  1
  Pb  Pb196  1  0.74588684  0.38442698  0.75188885  1
  Pb  Pb197  1  0.75076443  0.71255747  0.75342294  1
  Pb  Pb198  1  0.24873521  0.28549707  0.24048222  1
  Pb  Pb199  1  0.25010003  0.61873155  0.25120955  1
  Pb  Pb200  1  0.24528899  0.95047722  0.24640670  1
  Pb  Pb201  1  0.75555167  0.28432579  0.26493251  1
  Pb  Pb202  1  0.74940330  0.61888750  0.25020676  1
  Pb  Pb203  1  0.75113111  0.95265208  0.24773057  1
  Pb  Pb204  1  -0.00126803  0.21569571  0.75350048  1
  Pb  Pb205  1  -0.00010834  0.54715676  0.73874516  1
  Pb  Pb206  1  -0.00544232  0.88344082  0.74223103  1
  Pb  Pb207  1  0.49573469  0.21574244  0.74293589  1
  Pb  Pb208  1  0.49359796  0.55085126  0.76345875  1
  Pb  Pb209  1  0.50010454  0.88021859  0.76104504  1
  Pb  Pb210  1  -0.00055488  0.11983441  0.25505123  1
  Pb  Pb211  1  -0.00052255  0.45352601  0.25575586  1
  Pb  Pb212  1  -0.00435473  0.78451975  0.25240656  1
  Pb  Pb213  1  0.49680878  0.11758549  0.24605340  1
  Pb  Pb214  1  0.50418829  0.44727266  0.24223895  1
  Pb  Pb215  1  0.49953066  0.78627789  0.24460924  1
  C  C216  1  0.00854270  0.04638293  0.63334112  1
  C  C217  1  -0.00070217  0.38050443  0.62833545  1
  C  C218  1  -0.00858677  0.71189663  0.63090799  1
  C  C219  1  0.50464549  0.04546403  0.63240524  1
  C  C220  1  0.50125961  0.38061671  0.63289710  1
  C  C221  1  0.50311051  0.71177747  0.62912144  1
  C  C222  1  0.00508832  0.28713220  0.13030276  1
  C  C223  1  0.00106199  0.62099921  0.12868306  1
  C  C224  1  0.00792823  0.95492200  0.12809544  1
  C  C225  1  0.50283526  0.28498882  0.13069304  1
  C  C226  1  0.50570273  0.62267319  0.13453573  1
  C  C227  1  0.50425820  0.95289140  0.13123668  1
  C  C228  1  -0.00361132  0.04628074  0.86907712  1
  C  C229  1  -0.00158281  0.37903084  0.87439429  1
  C  C230  1  0.00486226  0.71280666  0.87037996  1
  C  C231  1  0.50150067  0.04747510  0.86870530  1
  C  C232  1  0.49758342  0.37501293  0.86618684  1
  C  C233  1  0.50356495  0.71450425  0.86966867  1
  C  C234  1  -0.00208976  0.28798090  0.36784848  1
  C  C235  1  -0.00745831  0.62200743  0.36687662  1
  C  C236  1  -0.00043280  0.95348479  0.36680717  1
  C  C237  1  0.50193266  0.28911318  0.36965256  1
  C  C238  1  0.50157824  0.62285540  0.37140206  1
  C  C239  1  0.49730898  0.95461419  0.36748063  1
  C  C240  1  0.25014356  0.21459040  0.62533069  1
  C  C241  1  0.25004788  0.54632481  0.62703667  1
  C  C242  1  0.25284143  0.87706816  0.63335114  1
  C  C243  1  0.75519675  0.20975125  0.63474807  1
  C  C244  1  0.75418542  0.54569359  0.63019900  1
  C  C245  1  0.75775853  0.87611061  0.63321233  1
  C  C246  1  0.25423368  0.12103205  0.12773835  1
  C  C247  1  0.25414258  0.45333811  0.13351419  1
  C  C248  1  0.24418599  0.78628569  0.13065764  1
  C  C249  1  0.75238591  0.12219459  0.13529931  1
  C  C250  1  0.74993198  0.45506595  0.12854495  1
  C  C251  1  0.74681993  0.78668996  0.12729363  1
  C  C252  1  0.24411825  0.21232056  0.86889282  1
  C  C253  1  0.24794670  0.54848699  0.86920473  1
  C  C254  1  0.24560340  0.87837483  0.86970006  1
  C  C255  1  0.75086742  0.21257156  0.86765011  1
  C  C256  1  0.74725342  0.54804630  0.86752506  1
  C  C257  1  0.74417351  0.87739573  0.87018410  1
  C  C258  1  0.24751391  0.12292531  0.36962283  1
  C  C259  1  0.24894721  0.45548849  0.36601032  1
  C  C260  1  0.25133726  0.78809818  0.36349902  1
  C  C261  1  0.74655495  0.12051664  0.36751551  1
  C  C262  1  0.74706223  0.45616688  0.37124007  1
  C  C263  1  0.75449817  0.78635391  0.37139639  1
  C  C264  1  0.24089684  0.90448529  0.53497802  1
  C  C265  1  0.26297059  0.42265086  0.03768936  1
  C  C266  1  0.98891584  0.25959364  0.46438582  1
  C  C267  1  0.17540813  0.90592378  0.95188936  1
  C  C268  1  0.51949671  0.59587922  0.46934731  1
  C  C269  1  0.56434449  0.26019457  0.04331593  1
  C  C270  1  0.43892622  0.73877492  0.54336851  1
  C  C271  1  0.20541442  0.09423290  0.03682056  1
  C  C272  1  0.77771658  0.08818192  0.46029813  1
  C  C273  1  0.18430620  0.09072473  0.45357280  1
  C  C274  1  0.95038757  0.40686862  0.96579691  1
  C  C275  1  0.05503364  0.59399200  0.04075867  1
  C  C276  1  0.46119023  0.59524265  0.04306764  1
  C  C277  1  0.46491710  0.40839304  0.54038100  1
  C  C278  1  0.77857435  0.90844389  0.96307627  1
  C  C279  1  0.78846382  0.75345330  0.46286655  1
  C  C280  1  0.29752190  0.24190205  0.53340383  1
  C  C281  1  0.32036075  0.90127787  0.54907113  1
  C  C282  1  0.57037079  0.06784770  0.54660451  1
  C  C283  1  0.48434434  0.74578880  0.96468819  1
  C  C284  1  0.71143150  0.42078824  0.46126091  1
  C  C285  1  0.71082059  0.24083898  0.54452966  1
  C  C286  1  0.44661061  0.92655590  0.45795311  1
  C  C287  1  0.49010219  0.07163400  0.53418748  1
  C  C288  1  0.77703877  0.75280807  0.03331129  1
  C  C289  1  0.97080715  0.41429130  0.53407338  1
  C  C290  1  0.04836229  0.07117302  0.53873773  1
  C  C291  1  0.57358076  0.92638505  0.04826549  1
  C  C292  1  0.97373818  0.92304520  0.03430417  1
  C  C293  1  0.43921487  0.59965160  0.45844362  1
  C  C294  1  0.80679827  0.57230862  0.95527377  1
  C  C295  1  0.72881816  0.09440230  0.04033875  1
  C  C296  1  0.29345466  0.24045918  0.95977296  1
  C  C297  1  0.03363027  0.73836389  0.53729551  1
  C  C298  1  0.06194484  0.74050718  0.95672823  1
  C  C299  1  0.96614958  0.07118212  0.53961067  1
  C  C300  1  0.48396562  0.25718573  0.03369642  1
  C  C301  1  0.77449690  0.57822598  0.53620427  1
  C  C302  1  0.78376988  0.90575468  0.53914011  1
  C  C303  1  0.21196473  0.24178872  0.96330678  1
  C  C304  1  0.45412411  0.40321892  0.95777375  1
  C  C305  1  0.51916359  0.74106146  0.53244269  1
  C  C306  1  0.26300457  0.57625713  0.96639317  1
  C  C307  1  0.05199197  0.07539267  0.95592187  1
  C  C308  1  0.95198527  0.73862690  0.53730712  1
  C  C309  1  0.72614953  0.57372550  0.96546393  1
  C  C310  1  0.78057550  0.24264254  0.96165179  1
  C  C311  1  0.52847381  0.92473209  0.46216092  1
  N  N312  1  0.03596407  0.25612517  0.03620036  1
  N  N313  1  0.06648454  0.26233845  0.45214605  1
  N  N314  1  0.21827416  0.24379503  0.53222607  1
  N  N315  1  0.79035748  0.24419779  0.54459903  1
  N  N316  1  0.70018474  0.09000999  0.45823841  1
  N  N317  1  0.70472063  0.90531237  0.54372238  1
  N  N318  1  0.81822193  0.43439037  0.04605125  1
  N  N319  1  0.20432927  0.42778282  0.45778885  1
  N  N320  1  0.43374950  0.26908349  0.45243115  1
  N  N321  1  0.95833777  0.25778191  0.04276260  1
  N  N322  1  0.54427705  0.40836275  0.53981893  1
  N  N323  1  0.50884576  0.07887788  0.96274270  1
  N  N324  1  0.54100357  0.59555319  0.04158448  1
  N  N325  1  0.23525193  0.58174558  0.53416838  1
  N  N326  1  0.50969116  0.25535906  0.46372964  1
  N  N327  1  0.97546374  0.07746210  0.96591368  1
  N  N328  1  0.28520437  0.09229915  0.03442897  1
  N  N329  1  0.56130348  0.74204546  0.95781740  1
  N  N330  1  0.93811884  0.92841505  0.45330653  1
  N  N331  1  0.28106075  0.42631511  0.46031629  1
  N  N332  1  0.96120123  0.59428582  0.46168195  1
  N  N333  1  0.22079554  0.76057770  0.45857323  1
  N  N334  1  0.01541108  0.92609749  0.46152321  1
  N  N335  1  0.74275668  0.41929401  0.03545440  1
  N  N336  1  0.25255675  0.90900519  0.96505224  1
  N  N337  1  0.53382640  0.40402177  0.95818706  1
  N  N338  1  0.18552395  0.42744309  0.04926473  1
  N  N339  1  0.26239400  0.08743306  0.46256824  1
  N  N340  1  0.19164707  0.76075614  0.04343163  1
  N  N341  1  0.69894560  0.90777272  0.95954517  1
  N  N342  1  0.69853945  0.75592190  0.03928235  1
  N  N343  1  0.29686084  0.76061624  0.45468974  1
  N  N344  1  0.43249542  0.07328929  0.95162963  1
  N  N345  1  0.18520660  0.57354179  0.95388781  1
  N  N346  1  0.70282022  0.24175512  0.95855500  1
  N  N347  1  0.26892133  0.75926680  0.03444751  1
  N  N348  1  0.02956754  0.40723459  0.96793573  1
  N  N349  1  0.04938189  0.41023904  0.54041674  1
  N  N350  1  0.78868487  0.42117991  0.46222555  1
  N  N351  1  0.31213507  0.56885122  0.54208948  1
  N  N352  1  0.97825189  0.59119624  0.03175805  1
  N  N353  1  0.98539098  0.74395932  0.96717684  1
  N  N354  1  0.80766025  0.09427441  0.04616206  1
  N  N355  1  0.71115417  0.75383017  0.46288767  1
  N  N356  1  0.69759908  0.57653229  0.54243948  1
  N  N357  1  0.49629315  0.92256516  0.03586687  1
  N  N358  1  0.03723653  0.59517733  0.45873259  1
  N  N359  1  0.05244342  0.92542346  0.03806858  1
  N  N360  1  0.07306395  0.05596786  0.59753767  1
  N  N361  1  0.06756996  0.38924529  0.59854502  1
  N  N362  1  0.05690782  0.72180511  0.59674350  1
  N  N363  1  0.57782850  0.05202213  0.60745947  1
  N  N364  1  0.56519252  0.39133829  0.59790474  1
  N  N365  1  0.55791293  0.72480006  0.58392669  1
  N  N366  1  0.44666922  0.27226281  0.08641808  1
  N  N367  1  0.43921373  0.60997230  0.10115927  1
  N  N368  1  0.45285986  0.94133507  0.08632000  1
  N  N369  1  0.93786476  0.27715847  0.09940326  1
  N  N370  1  0.94461278  0.60885046  0.08767133  1
  N  N371  1  0.94597702  0.94117374  0.08987078  1
  N  N372  1  0.42859520  0.05514298  0.89266118  1
  N  N373  1  0.43142225  0.38715477  0.90020848  1
  N  N374  1  0.44679139  0.72898713  0.91185343  1
  N  N375  1  0.94046072  0.05865426  0.91054583  1
  N  N376  1  0.93085112  0.39033525  0.90750773  1
  N  N377  1  0.94995359  0.72594545  0.91232314  1
  N  N378  1  0.07014350  0.27985968  0.39189629  1
  N  N379  1  0.05821638  0.61275509  0.40004676  1
  N  N380  1  0.05445108  0.94046379  0.40902264  1
  N  N381  1  0.55272544  0.27751476  0.41557655  1
  N  N382  1  0.55745971  0.61056181  0.41362469  1
  N  N383  1  0.55862681  0.94223820  0.40556826  1
  N  N384  1  0.31738721  0.22460776  0.59136506  1
  N  N385  1  0.32160162  0.55558468  0.60193187  1
  N  N386  1  0.32723256  0.88512048  0.60856934  1
  N  N387  1  0.81779487  0.22178392  0.59912014  1
  N  N388  1  0.81194751  0.55976280  0.58863649  1
  N  N389  1  0.81789770  0.88831261  0.59374967  1
  N  N390  1  0.18638458  0.11077062  0.09535926  1
  N  N391  1  0.18196562  0.44626779  0.10898457  1
  N  N392  1  0.17532707  0.77693973  0.10177994  1
  N  N393  1  0.69323950  0.11093255  0.09469577  1
  N  N394  1  0.69928728  0.44193149  0.08299243  1
  N  N395  1  0.67909591  0.77717394  0.09704608  1
  N  N396  1  0.18244790  0.22490292  0.90833348  1
  N  N397  1  0.17637153  0.55683257  0.89409042  1
  N  N398  1  0.17097471  0.88871805  0.89208471  1
  N  N399  1  0.68422391  0.22309003  0.89909909  1
  N  N400  1  0.68971595  0.55850519  0.90944270  1
  N  N401  1  0.67818315  0.88704387  0.90278116  1
  N  N402  1  0.30239747  0.11019575  0.41180674  1
  N  N403  1  0.30986916  0.44348899  0.40361854  1
  N  N404  1  0.31745485  0.77759973  0.39600334  1
  N  N405  1  0.80816698  0.10685870  0.40552782  1
  N  N406  1  0.81117377  0.44366479  0.40490296  1
  N  N407  1  0.81794327  0.77314764  0.40788437  1
  N  N408  1  0.42879320  0.28043082  0.39184034  1
  N  N409  1  0.42882929  0.61547564  0.39878423  1
  N  N410  1  0.42894984  0.94491993  0.39872787  1
  N  N411  1  0.94531280  0.27513593  0.41307593  1
  N  N412  1  0.93177530  0.61112645  0.40510875  1
  N  N413  1  0.92905003  0.94564987  0.39461808  1
  N  N414  1  0.06732364  0.05706792  0.89694092  1
  N  N415  1  0.05949894  0.38876755  0.91180822  1
  N  N416  1  0.07649847  0.72233290  0.89734686  1
  N  N417  1  0.55243089  0.06092653  0.91354138  1
  N  N418  1  0.56041079  0.38293042  0.90277368  1
  N  N419  1  0.57340071  0.72239897  0.89746878  1
  N  N420  1  0.06469194  0.27414684  0.09117564  1
  N  N421  1  0.07176116  0.61146838  0.10010555  1
  N  N422  1  0.07434818  0.94620398  0.09579346  1
  N  N423  1  0.57469773  0.27718452  0.10459918  1
  N  N424  1  0.56815619  0.61625040  0.09724284  1
  N  N425  1  0.57876181  0.94412526  0.10776951  1
  N  N426  1  0.45038554  0.05765684  0.58829103  1
  N  N427  1  0.43688543  0.39165248  0.59726569  1
  N  N428  1  0.43053521  0.72066322  0.60468870  1
  N  N429  1  0.94301698  0.05595365  0.59868943  1
  N  N430  1  0.93953677  0.39580608  0.58823389  1
  N  N431  1  0.92672998  0.72276766  0.59382359  1
  N  N432  1  0.17505070  0.11129049  0.39550201  1
  N  N433  1  0.18336309  0.44549017  0.39923091  1
  N  N434  1  0.19123016  0.77737939  0.40221792  1
  N  N435  1  0.68038047  0.11021024  0.39970943  1
  N  N436  1  0.68284599  0.44166240  0.40648965  1
  N  N437  1  0.68964962  0.77474883  0.40463265  1
  N  N438  1  0.31215697  0.22203939  0.90003361  1
  N  N439  1  0.30259434  0.56062349  0.91394004  1
  N  N440  1  0.29641083  0.88899125  0.91529266  1
  N  N441  1  0.81180491  0.22525626  0.90656578  1
  N  N442  1  0.81890713  0.55696467  0.89629611  1
  N  N443  1  0.80691388  0.89035762  0.90748773  1
  N  N444  1  0.31510651  0.11007961  0.09000276  1
  N  N445  1  0.30681224  0.43870751  0.08886365  1
  N  N446  1  0.30132024  0.77480569  0.08887055  1
  N  N447  1  0.82045979  0.11147658  0.10534369  1
  N  N448  1  0.82317993  0.44799729  0.10605233  1
  N  N449  1  0.80736345  0.77190320  0.08777073  1
  N  N450  1  0.18865938  0.22567732  0.58866410  1
  N  N451  1  0.19603263  0.55853129  0.58359930  1
  N  N452  1  0.19962581  0.88911593  0.58899201  1
  N  N453  1  0.68861621  0.22118292  0.60100320  1
  N  N454  1  0.68484940  0.55594765  0.60239841  1
  N  N455  1  0.69042144  0.88670637  0.60249650  1
  Cl  Cl456  1  0.26519612  0.06006016  0.60271054  1
  Cl  Cl457  1  0.25068027  0.38337995  0.62134150  1
  Cl  Cl458  1  0.24106745  0.71615035  0.62610355  1
  Cl  Cl459  1  0.76095786  0.05450579  0.62962493  1
  Cl  Cl460  1  0.75290414  0.38644888  0.62078287  1
  Cl  Cl461  1  0.74160572  0.71948398  0.62154314  1
  Cl  Cl462  1  0.25700629  0.27441098  0.10611309  1
  Cl  Cl463  1  0.25673534  0.61353368  0.11650128  1
  Cl  Cl464  1  0.26687809  0.93779954  0.10176831  1
  Cl  Cl465  1  0.75890652  0.28333423  0.13191712  1
  Cl  Cl466  1  0.75303287  0.60979593  0.11289042  1
  Cl  Cl467  1  0.76303905  0.94084135  0.11249456  1
  Cl  Cl468  1  0.24851907  0.05393600  0.87600025  1
  Cl  Cl469  1  0.24632806  0.38836608  0.88933872  1
  Cl  Cl470  1  0.26166714  0.72069801  0.88645412  1
  Cl  Cl471  1  0.73907133  0.05884803  0.89698222  1
  Cl  Cl472  1  0.74353008  0.39626974  0.89472061  1
  Cl  Cl473  1  0.76174946  0.72359513  0.88902953  1
  Cl  Cl474  1  0.25081268  0.27690616  0.37589273  1
  Cl  Cl475  1  0.24139362  0.60530215  0.38753886  1
  Cl  Cl476  1  0.23694173  0.94732719  0.38141261  1
  Cl  Cl477  1  0.75053832  0.27135755  0.40377015  1
  Cl  Cl478  1  0.74663675  0.60958669  0.38275142  1
  Cl  Cl479  1  0.74555374  0.94908608  0.37922600  1
  Cl  Cl480  1  0.00173620  0.22968678  0.61537512  1
  Cl  Cl481  1  0.00766235  0.55490692  0.60717172  1
  Cl  Cl482  1  0.01109059  0.88968899  0.60149031  1
  Cl  Cl483  1  0.50340696  0.23066239  0.60476355  1
  Cl  Cl484  1  0.50206425  0.55086445  0.63061592  1
  Cl  Cl485  1  0.50881410  0.88545080  0.63029715  1
  Cl  Cl486  1  0.00487158  0.11622337  0.12527137  1
  Cl  Cl487  1  0.00129917  0.44504494  0.12085430  1
  Cl  Cl488  1  -0.00774772  0.78571265  0.12091286  1
  Cl  Cl489  1  0.50504381  0.10840457  0.10234982  1
  Cl  Cl490  1  0.50958710  0.43639979  0.09838941  1
  Cl  Cl491  1  0.48950408  0.77906168  0.10932789  1
  Cl  Cl492  1  -0.00499621  0.22434097  0.88649448  1
  Cl  Cl493  1  -0.00112191  0.54201438  0.87068305  1
  Cl  Cl494  1  -0.01097882  0.88981328  0.87547839  1
  Cl  Cl495  1  0.49941486  0.21675275  0.87378132  1
  Cl  Cl496  1  0.49471774  0.55971270  0.90092740  1
  Cl  Cl497  1  0.48290982  0.89285978  0.90033545  1
  Cl  Cl498  1  -0.00913908  0.11067830  0.38924423  1
  Cl  Cl499  1  -0.00101834  0.44322057  0.39008662  1
  Cl  Cl500  1  0.00597171  0.78116025  0.38809888  1
  Cl  Cl501  1  0.48792766  0.11201256  0.38106832  1
  Cl  Cl502  1  0.49516900  0.44118745  0.37651299  1
  Cl  Cl503  1  0.50377079  0.77725166  0.37651084  1
  Cl  Cl504  1  0.36002857  0.14921382  0.74875868  1
  Cl  Cl505  1  0.36009749  0.48182780  0.75280586  1
  Cl  Cl506  1  0.36430665  0.81324569  0.74633682  1
  Cl  Cl507  1  0.86133720  0.14927362  0.75450530  1
  Cl  Cl508  1  0.86147237  0.48255081  0.75264082  1
  Cl  Cl509  1  0.85919004  0.81580209  0.74909203  1
  Cl  Cl510  1  0.13885343  0.18436530  0.25562782  1
  Cl  Cl511  1  0.13677937  0.52001572  0.24312017  1
  Cl  Cl512  1  0.14247847  0.85585453  0.23994086  1
  Cl  Cl513  1  0.63923896  0.18636921  0.25590863  1
  Cl  Cl514  1  0.63777410  0.51774495  0.24415041  1
  Cl  Cl515  1  0.63814094  0.85283021  0.24174783  1
  Cl  Cl516  1  0.14069723  0.14845164  0.74602494  1
  Cl  Cl517  1  0.14378330  0.48092885  0.74824828  1
  Cl  Cl518  1  0.14173353  0.81294544  0.75681993  1
  Cl  Cl519  1  0.64195563  0.14480488  0.74633756  1
  Cl  Cl520  1  0.64082536  0.47979118  0.75145727  1
  Cl  Cl521  1  0.63712710  0.81295741  0.76270113  1
  Cl  Cl522  1  0.35845081  0.18325936  0.24767075  1
  Cl  Cl523  1  0.36008344  0.51941912  0.24968582  1
  Cl  Cl524  1  0.36162587  0.85280430  0.25318864  1
  Cl  Cl525  1  0.85824696  0.18470787  0.25141742  1
  Cl  Cl526  1  0.85930827  0.51643217  0.24670334  1
  Cl  Cl527  1  0.85818472  0.84990639  0.25460657  1
  Cl  Cl528  1  0.11104757  0.31593059  0.74932030  1
  Cl  Cl529  1  0.11556058  0.64474810  0.75852972  1
  Cl  Cl530  1  0.11612166  0.97812208  0.75498653  1
  Cl  Cl531  1  0.61621715  0.31114021  0.75114133  1
  Cl  Cl532  1  0.61030525  0.64847097  0.75785304  1
  Cl  Cl533  1  0.61145862  0.98110242  0.75154795  1
  Cl  Cl534  1  0.39523617  0.01878229  0.24469062  1
  Cl  Cl535  1  0.38746325  0.34982266  0.25159262  1
  Cl  Cl536  1  0.38712986  0.68600066  0.25655843  1
  Cl  Cl537  1  0.88993529  0.01782388  0.25048177  1
  Cl  Cl538  1  0.89131811  0.35075798  0.24794186  1
  Cl  Cl539  1  0.89413513  0.68363960  0.24693192  1
  Cl  Cl540  1  0.39617001  0.31418194  0.74787104  1
  Cl  Cl541  1  0.39074542  0.64620842  0.74656524  1
  Cl  Cl542  1  0.38918573  0.98161991  0.75421504  1
  Cl  Cl543  1  0.89254206  0.31592810  0.75135481  1
  Cl  Cl544  1  0.89378453  0.64948318  0.75220772  1
  Cl  Cl545  1  0.89684587  0.98210269  0.74638093  1
  Cl  Cl546  1  0.10996443  0.01818929  0.24663566  1
  Cl  Cl547  1  0.11078840  0.35196876  0.25318132  1
  Cl  Cl548  1  0.11670953  0.68955020  0.24416051  1
  Cl  Cl549  1  0.61455593  0.02076433  0.24358570  1
  Cl  Cl550  1  0.60714052  0.35161404  0.24635785  1
  Cl  Cl551  1  0.61010129  0.68476627  0.24485636  1
