# generated using pymatgen
data_H8PbC4(N3Cl2)2
_symmetry_space_group_name_H-M   'P 1'
_cell_length_a   16.62400499
_cell_length_b   22.50185488
_cell_length_c   21.58909096
_cell_angle_alpha   89.99985569
_cell_angle_beta   89.98414308
_cell_angle_gamma   90.00302583
_symmetry_Int_Tables_number   1
_chemical_formula_structural   H8PbC4(N3Cl2)2
_chemical_formula_sum   'H192 Pb24 C96 N144 Cl96'
_cell_volume   8075.85139597
_cell_formula_units_Z   24
loop_
 _symmetry_equiv_pos_site_id
 _symmetry_equiv_pos_as_xyz
  1  'x, y, z'
loop_
 _atom_site_type_symbol
 _atom_site_label
 _atom_site_symmetry_multiplicity
 _atom_site_fract_x
 _atom_site_fract_y
 _atom_site_fract_z
 _atom_site_occupancy
  H  H0  1  -0.00238865  0.03159239  0.68009484  1
  H  H1  1  -0.00697867  0.36596735  0.68189703  1
  H  H2  1  -0.00133801  0.69980444  0.68144925  1
  H  H3  1  0.49351211  0.03169640  0.68041725  1
  H  H4  1  0.49625391  0.36541409  0.68052422  1
  H  H5  1  0.49875640  0.69849483  0.68366145  1
  H  H6  1  0.00485569  0.30167159  0.17988205  1
  H  H7  1  0.00550982  0.63482023  0.18307399  1
  H  H8  1  -0.00773081  0.97012042  0.17936768  1
  H  H9  1  0.49338146  0.30124329  0.18316607  1
  H  H10  1  0.49361747  0.63610956  0.18251216  1
  H  H11  1  0.50261877  0.96869427  0.17985217  1
  H  H12  1  -0.00036738  0.03232105  0.81985482  1
  H  H13  1  -0.00430560  0.36634930  0.82042933  1
  H  H14  1  -0.00128956  0.69976451  0.82295248  1
  H  H15  1  0.50165915  0.03119597  0.82060719  1
  H  H16  1  0.50071238  0.36682495  0.82316771  1
  H  H17  1  0.49954324  0.69919904  0.81990254  1
  H  H18  1  0.00426139  0.30101126  0.31799711  1
  H  H19  1  -0.00291105  0.63432345  0.31769281  1
  H  H20  1  -0.00154656  0.96882316  0.31889616  1
  H  H21  1  0.50500250  0.30207969  0.32194516  1
  H  H22  1  0.49750792  0.63367702  0.31781029  1
  H  H23  1  0.50620012  0.96800748  0.31944414  1
  H  H24  1  0.24316491  0.20016758  0.67714738  1
  H  H25  1  0.25200167  0.53151507  0.68238525  1
  H  H26  1  0.24107628  0.86701486  0.67807395  1
  H  H27  1  0.74909501  0.19857674  0.68162211  1
  H  H28  1  0.75127316  0.53237455  0.67984666  1
  H  H29  1  0.74214034  0.86480328  0.68129166  1
  H  H30  1  0.23905781  0.13164134  0.17571953  1
  H  H31  1  0.25844168  0.46591941  0.17852012  1
  H  H32  1  0.24366360  0.80123781  0.17752524  1
  H  H33  1  0.75565604  0.13478638  0.18031886  1
  H  H34  1  0.74998743  0.46793048  0.17883691  1
  H  H35  1  0.75175278  0.80159728  0.17943116  1
  H  H36  1  0.24648922  0.19698634  0.81870961  1
  H  H37  1  0.25202852  0.53179797  0.81576102  1
  H  H38  1  0.24330453  0.86372680  0.81991014  1
  H  H39  1  0.75973385  0.19842295  0.81717978  1
  H  H40  1  0.74093993  0.52962992  0.81918621  1
  H  H41  1  0.75282175  0.86471367  0.81805635  1
  H  H42  1  0.25188040  0.13494844  0.32037644  1
  H  H43  1  0.25152336  0.46735515  0.31833237  1
  H  H44  1  0.25638787  0.80200060  0.32031838  1
  H  H45  1  0.75575978  0.13460003  0.31777303  1
  H  H46  1  0.75485265  0.46731759  0.31909565  1
  H  H47  1  0.75626471  0.80118220  0.31638878  1
  H  H48  1  0.12910644  0.05208943  0.61484449  1
  H  H49  1  0.13108288  0.38219298  0.62502096  1
  H  H50  1  0.13115136  0.72126884  0.61734428  1
  H  H51  1  0.63024752  0.05184872  0.62359018  1
  H  H52  1  0.62881329  0.38695123  0.61498465  1
  H  H53  1  0.62906816  0.71745454  0.61935554  1
  H  H54  1  0.37877304  0.28067269  0.10487335  1
  H  H55  1  0.37385366  0.61291921  0.10880322  1
  H  H56  1  0.37578805  0.94572330  0.10978466  1
  H  H57  1  0.87572478  0.27972158  0.11321210  1
  H  H58  1  0.87174994  0.61505644  0.12341875  1
  H  H59  1  0.88187399  0.94326550  0.09720988  1
  H  H60  1  0.37145200  0.05295659  0.88616291  1
  H  H61  1  0.37539338  0.38723599  0.89089277  1
  H  H62  1  0.37273881  0.72178970  0.88731022  1
  H  H63  1  0.87556625  0.05464198  0.89325607  1
  H  H64  1  0.87574534  0.38876318  0.89417217  1
  H  H65  1  0.87563802  0.72072631  0.89276662  1
  H  H66  1  0.12282573  0.27719082  0.39503097  1
  H  H67  1  0.12923170  0.61362545  0.38310426  1
  H  H68  1  0.12301510  0.94732139  0.39078299  1
  H  H69  1  0.61749299  0.27514804  0.40197541  1
  H  H70  1  0.62870736  0.61286720  0.38457573  1
  H  H71  1  0.61707398  0.94284173  0.40188538  1
  H  H72  1  0.37719919  0.21953510  0.61582268  1
  H  H73  1  0.37054433  0.55463258  0.60712230  1
  H  H74  1  0.37822401  0.88414878  0.62265521  1
  H  H75  1  0.87526297  0.22071771  0.61226102  1
  H  H76  1  0.86963121  0.55561091  0.60335883  1
  H  H77  1  0.87885442  0.88452980  0.62199586  1
  H  H78  1  0.13413966  0.10873708  0.09278670  1
  H  H79  1  0.12443420  0.44814000  0.11893089  1
  H  H80  1  0.12793998  0.77638953  0.10067514  1
  H  H81  1  0.62588554  0.11270201  0.11571248  1
  H  H82  1  0.62501325  0.44535680  0.10739643  1
  H  H83  1  0.62414030  0.77917220  0.11021520  1
  H  H84  1  0.12415077  0.21971016  0.89095718  1
  H  H85  1  0.12566595  0.55254512  0.88365043  1
  H  H86  1  0.12179989  0.88766108  0.89485187  1
  H  H87  1  0.62366847  0.21911012  0.87781993  1
  H  H88  1  0.63188913  0.55548322  0.90307122  1
  H  H89  1  0.62155175  0.88607503  0.88364021  1
  H  H90  1  0.36667251  0.10958327  0.39903621  1
  H  H91  1  0.37071335  0.44419710  0.39463448  1
  H  H92  1  0.36610987  0.77699215  0.40320385  1
  H  H93  1  0.86537417  0.11076516  0.39826257  1
  H  H94  1  0.86815362  0.44398023  0.39789555  1
  H  H95  1  0.86969612  0.77741636  0.39564600  1
  H  H96  1  0.37049403  0.28171381  0.38144404  1
  H  H97  1  0.37983927  0.61123699  0.39410563  1
  H  H98  1  0.36948153  0.94965938  0.37681986  1
  H  H99  1  0.87427218  0.28025887  0.38714126  1
  H  H100  1  0.88045543  0.61057448  0.39481703  1
  H  H101  1  0.87375387  0.94575462  0.38996691  1
  H  H102  1  0.12439930  0.05464206  0.89224903  1
  H  H103  1  0.12480368  0.38569744  0.88447567  1
  H  H104  1  0.12428903  0.72105134  0.88992913  1
  H  H105  1  0.62067794  0.05460808  0.89565238  1
  H  H106  1  0.62433725  0.38770293  0.89214802  1
  H  H107  1  0.62157548  0.72217767  0.89332667  1
  H  H108  1  0.12446385  0.27963717  0.10454043  1
  H  H109  1  0.11988683  0.61341903  0.10469478  1
  H  H110  1  0.12789871  0.95008618  0.11989251  1
  H  H111  1  0.62703611  0.28302104  0.12263382  1
  H  H112  1  0.62355042  0.61153393  0.11660690  1
  H  H113  1  0.62443632  0.94521943  0.10645202  1
  H  H114  1  0.38296541  0.05760969  0.59796736  1
  H  H115  1  0.38078101  0.38879878  0.60051804  1
  H  H116  1  0.37994303  0.72211308  0.60984808  1
  H  H117  1  0.88150664  0.05644579  0.60149373  1
  H  H118  1  0.88395308  0.38910736  0.60087665  1
  H  H119  1  0.88221954  0.72094798  0.60452783  1
  H  H120  1  0.11845333  0.11518323  0.38248659  1
  H  H121  1  0.12194182  0.44692263  0.38492178  1
  H  H122  1  0.12019961  0.78256719  0.37958734  1
  H  H123  1  0.61772029  0.11709752  0.37513364  1
  H  H124  1  0.61921754  0.44782270  0.38074293  1
  H  H125  1  0.62162437  0.78092163  0.37931741  1
  H  H126  1  0.37408718  0.22189940  0.88673858  1
  H  H127  1  0.37533538  0.55110704  0.88712268  1
  H  H128  1  0.37024136  0.88691400  0.88804584  1
  H  H129  1  0.87100265  0.22248570  0.89854128  1
  H  H130  1  0.87756571  0.55129325  0.87703851  1
  H  H131  1  0.87023315  0.88716977  0.89504344  1
  H  H132  1  0.37895443  0.11551323  0.12377466  1
  H  H133  1  0.37194952  0.44409253  0.10051706  1
  H  H134  1  0.37605435  0.78051090  0.11483666  1
  H  H135  1  0.87454964  0.11157589  0.10397446  1
  H  H136  1  0.87428406  0.44446302  0.10862324  1
  H  H137  1  0.87279676  0.77838250  0.10536801  1
  H  H138  1  0.12958354  0.22394515  0.59886176  1
  H  H139  1  0.12155468  0.55236852  0.61491395  1
  H  H140  1  0.13243820  0.89029779  0.59732931  1
  H  H141  1  0.62590494  0.22050294  0.60827086  1
  H  H142  1  0.62069947  0.55422777  0.61584079  1
  H  H143  1  0.63225589  0.89167268  0.59837811  1
  H  H144  1  0.16918723  0.57330541  0.99819366  1
  H  H145  1  0.09183795  0.41663227  0.99755747  1
  H  H146  1  0.79862322  0.08393653  0.50619968  1
  H  H147  1  0.92278340  0.91705714  0.49854074  1
  H  H148  1  0.43294629  0.74735415  0.49934717  1
  H  H149  1  0.17667113  0.24381999  1.00304461  1
  H  H150  1  0.70698360  0.57549903  1.00421856  1
  H  H151  1  0.94223803  0.58222117  0.50223564  1
  H  H152  1  0.17634685  0.91788432  0.99637364  1
  H  H153  1  0.80856192  0.58386173  0.49934990  1
  H  H154  1  0.60859930  0.08322640  0.51017861  1
  H  H155  1  0.38955808  0.91816967  0.49042163  1
  H  H156  1  0.32631837  0.56842923  1.00145747  1
  H  H157  1  0.56823620  0.08322571  1.00357364  1
  H  H158  1  0.59457808  0.74477930  0.50675186  1
  H  H159  1  0.95091826  0.41381626  0.49280702  1
  H  H160  1  0.94042786  0.74869021  0.49549774  1
  H  H161  1  0.45168427  0.08380557  0.49736808  1
  H  H162  1  0.95389630  0.91730628  -0.00313962  1
  H  H163  1  0.80230428  0.24666078  1.00484297  1
  H  H164  1  0.34194406  0.75193967  0.00725697  1
  H  H165  1  0.80976567  0.91563257  1.00226546  1
  H  H166  1  0.44006155  0.58375674  0.50255971  1
  H  H167  1  0.05865147  0.59196045  -0.00545372  1
  H  H168  1  0.54843319  0.91698852  0.50278423  1
  H  H169  1  0.67191439  0.75427531  0.00409696  1
  H  H170  1  0.82839768  0.24803794  0.50242392  1
  H  H171  1  0.94730332  0.08454607  0.49924018  1
  H  H172  1  0.42506686  0.91671248  0.00530831  1
  H  H173  1  0.59912826  0.25611884  0.00924366  1
  H  H174  1  0.92308641  0.27118514  0.00457267  1
  H  H175  1  0.70534813  0.91557147  0.49777255  1
  H  H176  1  0.65058355  0.41867164  0.48761608  1
  H  H177  1  0.43033162  0.58961855  -0.00292353  1
  H  H178  1  0.58010518  0.59179189  0.00769152  1
  H  H179  1  0.34717791  0.24884693  0.50737118  1
  H  H180  1  0.06310218  0.23911157  0.00632552  1
  H  H181  1  0.15887576  0.41667966  0.49581522  1
  H  H182  1  0.31144955  0.57918780  0.49752821  1
  H  H183  1  0.89875758  0.58811830  0.00989641  1
  H  H184  1  0.29373275  0.75613399  0.50492265  1
  H  H185  1  0.80468223  0.75155192  0.50274254  1
  H  H186  1  0.43960308  0.26081500  -0.00591484  1
  H  H187  1  0.30128013  0.08169466  0.50179692  1
  H  H188  1  0.32720794  0.23998155  0.99518509  1
  H  H189  1  0.80604242  0.41671223  0.50557877  1
  H  H190  1  0.40317144  0.08170055  0.99366736  1
  H  H191  1  0.09612544  0.74879266  0.51024586  1
  Pb  Pb192  1  0.25027866  0.04913349  0.74431319  1
  Pb  Pb193  1  0.25533658  0.38049527  0.74784260  1
  Pb  Pb194  1  0.25328673  0.71441723  0.74925668  1
  Pb  Pb195  1  0.75606951  0.04776704  0.75091220  1
  Pb  Pb196  1  0.74941942  0.37960019  0.74579052  1
  Pb  Pb197  1  0.75501369  0.71375825  0.75086570  1
  Pb  Pb198  1  0.25094533  0.28536825  0.24740321  1
  Pb  Pb199  1  0.25439048  0.61829874  0.24807395  1
  Pb  Pb200  1  0.24890836  0.95495889  0.24744543  1
  Pb  Pb201  1  0.75062462  0.28734702  0.25237191  1
  Pb  Pb202  1  0.74805226  0.61919039  0.25278465  1
  Pb  Pb203  1  0.75374865  0.95237741  0.25026547  1
  Pb  Pb204  1  0.00138009  0.21763636  0.75573490  1
  Pb  Pb205  1  0.00147319  0.54553326  0.74684781  1
  Pb  Pb206  1  0.00362715  0.88007718  0.75359615  1
  Pb  Pb207  1  0.50134403  0.21222311  0.75066665  1
  Pb  Pb208  1  0.50469834  0.54819453  0.75540305  1
  Pb  Pb209  1  0.50478937  0.88236708  0.74772726  1
  Pb  Pb210  1  -0.00099891  0.12126987  0.25194129  1
  Pb  Pb211  1  -0.00065867  0.45416201  0.25139425  1
  Pb  Pb212  1  0.00246416  0.78524705  0.25189489  1
  Pb  Pb213  1  0.50122684  0.11901237  0.25449345  1
  Pb  Pb214  1  0.50027525  0.45171210  0.24818403  1
  Pb  Pb215  1  0.49874831  0.78816576  0.25291347  1
  C  C216  1  0.00270142  0.04667189  0.63253664  1
  C  C217  1  0.00246819  0.37925738  0.63420558  1
  C  C218  1  0.00473077  0.71398592  0.63350792  1
  C  C219  1  0.50213209  0.04652734  0.63288545  1
  C  C220  1  0.50209229  0.37995796  0.63278356  1
  C  C221  1  0.50285304  0.71300230  0.63579802  1
  C  C222  1  0.00162030  0.28685275  0.13192903  1
  C  C223  1  -0.00132202  0.62081397  0.13521739  1
  C  C224  1  0.00028824  0.95520997  0.13201564  1
  C  C225  1  0.50003773  0.28785004  0.13508364  1
  C  C226  1  0.49768232  0.62097782  0.13482302  1
  C  C227  1  0.50063142  0.95314093  0.13234864  1
  C  C228  1  -0.00017400  0.04705613  0.86769851  1
  C  C229  1  -0.00062553  0.38059605  0.86824563  1
  C  C230  1  -0.00048818  0.71416051  0.87093893  1
  C  C231  1  0.49750394  0.04647607  0.86837201  1
  C  C232  1  0.50017192  0.38118970  0.87122772  1
  C  C233  1  0.49809775  0.71408589  0.86742328  1
  C  C234  1  0.00021858  0.28667284  0.36594055  1
  C  C235  1  0.00250692  0.61977210  0.36537840  1
  C  C236  1  -0.00166685  0.95379262  0.36660900  1
  C  C237  1  0.49779906  0.28657466  0.36899961  1
  C  C238  1  0.50240690  0.61947772  0.36564773  1
  C  C239  1  0.49773116  0.95346602  0.36707382  1
  C  C240  1  0.25042182  0.21472516  0.62959709  1
  C  C241  1  0.24774352  0.54621568  0.63467784  1
  C  C242  1  0.25091513  0.88046036  0.63058884  1
  C  C243  1  0.74998259  0.21354922  0.63393640  1
  C  C244  1  0.74748638  0.54686517  0.63214896  1
  C  C245  1  0.75090891  0.87951384  0.63390737  1
  C  C246  1  0.25105108  0.11854705  0.12830679  1
  C  C247  1  0.25145758  0.45233065  0.13067647  1
  C  C248  1  0.24965780  0.78627968  0.13004775  1
  C  C249  1  0.75216038  0.11981871  0.13284293  1
  C  C250  1  0.74949315  0.45276133  0.13133453  1
  C  C251  1  0.74920339  0.78635846  0.13181766  1
  C  C252  1  0.24876303  0.21237080  0.86647793  1
  C  C253  1  0.25113148  0.54583568  0.86392355  1
  C  C254  1  0.24470767  0.87939064  0.86742039  1
  C  C255  1  0.75120764  0.21316229  0.86463296  1
  C  C256  1  0.74976260  0.54460407  0.86652075  1
  C  C257  1  0.74804745  0.87937934  0.86572304  1
  C  C258  1  0.24582142  0.12062473  0.36796207  1
  C  C259  1  0.24795771  0.45278990  0.36605549  1
  C  C260  1  0.24764110  0.78794519  0.36800398  1
  C  C261  1  0.74643403  0.12085358  0.36536032  1
  C  C262  1  0.74672616  0.45272923  0.36671402  1
  C  C263  1  0.74877507  0.78656369  0.36396053  1
  C  C264  1  0.45887141  0.40725346  0.96295564  1
  C  C265  1  0.23430345  0.09290701  0.03190292  1
  C  C266  1  0.55376892  0.26558002  0.04425321  1
  C  C267  1  0.20411723  0.42726717  0.45776746  1
  C  C268  1  0.21879100  0.75702194  0.03449035  1
  C  C269  1  0.43914075  0.92794717  0.45487608  1
  C  C270  1  0.44585211  0.25980493  0.45802747  1
  C  C271  1  0.20810923  0.56691254  0.95832022  1
  C  C272  1  0.69682832  0.57467848  0.54129011  1
  C  C273  1  0.46250185  0.59439471  0.04054178  1
  C  C274  1  0.96096244  0.74002833  0.96348975  1
  C  C275  1  0.46941878  0.73724834  0.53983848  1
  C  C276  1  0.97544693  0.59360799  0.46035105  1
  C  C277  1  0.77589061  0.90541227  0.96049849  1
  C  C278  1  0.19149261  0.09381460  0.45783231  1
  C  C279  1  0.97385250  0.73903106  0.53771298  1
  C  C280  1  0.19734748  0.42830968  0.04118835  1
  C  C281  1  0.53037828  0.07313236  0.96336106  1
  C  C282  1  0.78863134  0.23845954  0.54114545  1
  C  C283  1  0.76731158  0.09489796  0.46333443  1
  C  C284  1  0.55140887  0.73591160  0.54340823  1
  C  C285  1  0.78715451  0.42444087  0.03910446  1
  C  C286  1  0.04155139  0.74009374  0.96260655  1
  C  C287  1  0.45624120  0.74125017  0.95955709  1
  C  C288  1  0.98241982  0.40410681  0.53591032  1
  C  C289  1  0.96435187  0.40704284  0.96292433  1
  C  C290  1  0.53934029  0.40747733  0.96332667  1
  C  C291  1  0.31014462  0.90406644  0.54253826  1
  C  C292  1  0.77283468  0.76141358  0.45980771  1
  C  C293  1  0.94456263  0.59790475  0.04468740  1
  C  C294  1  0.22209159  0.24272310  0.53319403  1
  C  C295  1  0.47221087  0.26593136  0.03746843  1
  C  C296  1  0.23004147  0.90626792  0.53428737  1
  C  C297  1  0.56064141  0.07350202  0.54561193  1
  C  C298  1  0.70716309  0.09252983  0.04219735  1
  C  C299  1  0.68683242  0.09744853  0.45333159  1
  C  C300  1  0.77239628  0.23810300  0.96086928  1
  C  C301  1  0.28989547  0.56553955  0.95975743  1
  C  C302  1  0.47374106  0.59398922  0.46061915  1
  C  C303  1  0.06324499  0.40191197  0.54606054  1
  C  C304  1  0.31367799  0.09532472  0.04219756  1
  C  C305  1  0.27737132  0.57081668  0.53969331  1
  C  C306  1  0.21073685  0.23769745  0.96050293  1
  C  C307  1  0.27825717  0.42664180  0.03506807  1
  C  C308  1  0.04619693  0.40635183  0.96095009  1
  C  C309  1  0.77397674  0.42655730  0.46278865  1
  C  C310  1  0.02601105  0.59817165  0.03770478  1
  C  C311  1  0.96176855  0.92735009  0.45954444  1
  N  N312  1  0.69383894  0.23811389  0.95369486  1
  N  N313  1  0.78453484  0.09202368  0.03708852  1
  N  N314  1  0.52297606  0.25666908  0.46567472  1
  N  N315  1  0.21260834  0.90720605  0.95940634  1
  N  N316  1  0.55292979  0.59465823  0.45740015  1
  N  N317  1  0.70928645  0.23889713  0.53952901  1
  N  N318  1  0.05449457  0.59461411  0.45649954  1
  N  N319  1  0.53423466  0.74134173  0.96284126  1
  N  N320  1  0.78790660  0.76108346  0.03751413  1
  N  N321  1  0.54038748  0.92708221  0.03857089  1
  N  N322  1  0.81000485  0.90396896  0.54603399  1
  N  N323  1  0.70973108  0.42477340  0.03733124  1
  N  N324  1  0.04106721  0.92735963  0.46020634  1
  N  N325  1  0.69494055  0.42739906  0.45534165  1
  N  N326  1  0.73208495  0.57340685  0.96070550  1
  N  N327  1  0.48164073  0.07533100  0.53810938  1
  N  N328  1  0.27008094  0.09221744  0.46225336  1
  N  N329  1  0.29757450  0.75955402  0.04032924  1
  N  N330  1  0.18900035  0.76361357  0.45608687  1
  N  N331  1  0.54181561  0.59272208  0.04473543  1
  N  N332  1  0.73250773  0.90716355  0.53967398  1
  N  N333  1  0.95600150  0.25862841  0.04249133  1
  N  N334  1  0.05311255  0.73884900  0.54344189  1
  N  N335  1  0.03537417  0.26722191  0.03712360  1
  N  N336  1  0.51829459  0.92619677  0.46225497  1
  N  N337  1  0.26660275  0.76005269  0.46231272  1
  N  N338  1  0.69400139  0.76238041  0.45443186  1
  N  N339  1  0.95584561  0.26303086  0.45898762  1
  N  N340  1  0.69682780  0.90551528  0.95688833  1
  N  N341  1  0.28329300  0.42636053  0.46156831  1
  N  N342  1  0.80948585  0.57144855  0.95311186  1
  N  N343  1  0.77556135  0.57425507  0.53809221  1
  N  N344  1  0.29016328  0.24049935  0.95747657  1
  N  N345  1  0.55057454  0.40650024  0.54203501  1
  N  N346  1  0.97711913  0.07360642  0.53915110  1
  N  N347  1  0.47436244  0.40772925  0.53731301  1
  N  N348  1  0.05897922  0.92815231  0.04479077  1
  N  N349  1  0.29112713  0.90676215  0.95897361  1
  N  N350  1  0.45073437  0.07239451  0.95908117  1
  N  N351  1  0.03228945  0.26155874  0.46149506  1
  N  N352  1  0.98135365  0.92510629  0.03863541  1
  N  N353  1  0.30069684  0.24049980  0.54015807  1
  N  N354  1  0.03850105  0.07297627  0.96140337  1
  N  N355  1  0.96223328  0.07286820  0.96170247  1
  N  N356  1  0.05488556  0.07221937  0.54235370  1
  N  N357  1  0.70980300  0.76091052  0.04087196  1
  N  N358  1  0.19824084  0.57114145  0.54263972  1
  N  N359  1  0.46235025  0.92763185  0.04124821  1
  N  N360  1  0.07030727  0.05554928  0.60081889  1
  N  N361  1  0.07446419  0.38701640  0.60555237  1
  N  N362  1  0.07184110  0.72356030  0.60246421  1
  N  N363  1  0.57335664  0.05638571  0.60475009  1
  N  N364  1  0.56916119  0.38921425  0.60118762  1
  N  N365  1  0.57067284  0.72126137  0.60322197  1
  N  N366  1  0.43982655  0.27943643  0.09465844  1
  N  N367  1  0.43451055  0.61020384  0.09683917  1
  N  N368  1  0.43640902  0.94284537  0.09796492  1
  N  N369  1  0.93558953  0.28150861  0.09817679  1
  N  N370  1  0.92915316  0.61198195  0.10529250  1
  N  N371  1  0.94391353  0.94395636  0.09049956  1
  N  N372  1  0.43127846  0.05591956  0.90059325  1
  N  N373  1  0.43444837  0.39147392  0.90660485  1
  N  N374  1  0.43218757  0.72465023  0.90187223  1
  N  N375  1  0.93666423  0.05711098  0.90364033  1
  N  N376  1  0.93630001  0.39159657  0.90700035  1
  N  N377  1  0.93487449  0.72446802  0.90758350  1
  N  N378  1  0.06114008  0.27647688  0.40420877  1
  N  N379  1  0.06955994  0.61053956  0.39721108  1
  N  N380  1  0.06198147  0.94371602  0.40205550  1
  N  N381  1  0.55542040  0.27372777  0.40881226  1
  N  N382  1  0.56894800  0.61042740  0.39812344  1
  N  N383  1  0.55451930  0.94293384  0.40853082  1
  N  N384  1  0.31857143  0.22350982  0.59971957  1
  N  N385  1  0.30947625  0.55623202  0.59597708  1
  N  N386  1  0.32255195  0.88857344  0.60221136  1
  N  N387  1  0.81524872  0.22332835  0.59887751  1
  N  N388  1  0.80806455  0.55628245  0.59373547  1
  N  N389  1  0.82074408  0.88860061  0.60530437  1
  N  N390  1  0.19562032  0.10698888  0.08414180  1
  N  N391  1  0.18164526  0.44389433  0.10002748  1
  N  N392  1  0.18880518  0.77366425  0.08997629  1
  N  N393  1  0.68475149  0.10933395  0.09999026  1
  N  N394  1  0.68598947  0.44228211  0.09626563  1
  N  N395  1  0.68454581  0.77694380  0.09759319  1
  N  N396  1  0.18442358  0.22199070  0.90360391  1
  N  N397  1  0.18522797  0.55489645  0.89855911  1
  N  N398  1  0.18301114  0.89013712  0.90442594  1
  N  N399  1  0.68230881  0.22232906  0.89367462  1
  N  N400  1  0.69421655  0.55397219  0.90919534  1
  N  N401  1  0.68125424  0.88943306  0.89764123  1
  N  N402  1  0.30477965  0.10984058  0.40743087  1
  N  N403  1  0.30894648  0.44209818  0.40393399  1
  N  N404  1  0.30376941  0.77794190  0.41003996  1
  N  N405  1  0.80350267  0.10972093  0.40707079  1
  N  N406  1  0.80646474  0.44207496  0.40770805  1
  N  N407  1  0.80793574  0.77583210  0.40464213  1
  N  N408  1  0.42804886  0.27738422  0.39899787  1
  N  N409  1  0.44111014  0.60916608  0.40466884  1
  N  N410  1  0.42667359  0.94433921  0.39544592  1
  N  N411  1  0.93479056  0.27799923  0.39956542  1
  N  N412  1  0.94185910  0.60914274  0.40482968  1
  N  N413  1  0.93387027  0.94324586  0.40226761  1
  N  N414  1  0.06340833  0.05701141  0.90322803  1
  N  N415  1  0.06630746  0.38981549  0.90077334  1
  N  N416  1  0.06543631  0.72444820  0.90605782  1
  N  N417  1  0.55968566  0.05728335  0.90688558  1
  N  N418  1  0.56515120  0.39171784  0.90741857  1
  N  N419  1  0.56017619  0.72419744  0.90394969  1
  N  N420  1  0.06323632  0.27363580  0.09549826  1
  N  N421  1  0.05867360  0.61203622  0.09461816  1
  N  N422  1  0.06983408  0.94527170  0.10354232  1
  N  N423  1  0.56946600  0.27917715  0.10484072  1
  N  N424  1  0.56352627  0.61263554  0.10188609  1
  N  N425  1  0.56382933  0.94313259  0.09568034  1
  N  N426  1  0.44551986  0.05690590  0.59127160  1
  N  N427  1  0.44290890  0.39136741  0.59339836  1
  N  N428  1  0.44064296  0.72311645  0.59782595  1
  N  N429  1  0.94346876  0.05801560  0.59343921  1
  N  N430  1  0.94559019  0.38992890  0.59217259  1
  N  N431  1  0.94350251  0.72364634  0.59356715  1
  N  N432  1  0.17614305  0.11100274  0.39939290  1
  N  N433  1  0.18114395  0.44329740  0.39933846  1
  N  N434  1  0.17797594  0.77869216  0.39657760  1
  N  N435  1  0.67448607  0.11285992  0.39401241  1
  N  N436  1  0.67839206  0.44334430  0.39617766  1
  N  N437  1  0.68061423  0.77794700  0.39430775  1
  N  N438  1  0.31360020  0.22185995  0.90038472  1
  N  N439  1  0.31568338  0.55295019  0.90060072  1
  N  N440  1  0.31013188  0.88987872  0.90123180  1
  N  N441  1  0.80923338  0.22339206  0.90645338  1
  N  N442  1  0.81969391  0.55559623  0.89407354  1
  N  N443  1  0.80906837  0.88948908  0.90495215  1
  N  N444  1  0.32371185  0.11096743  0.10196286  1
  N  N445  1  0.31092536  0.44128323  0.08976313  1
  N  N446  1  0.31708426  0.77791709  0.09912164  1
  N  N447  1  0.81288974  0.10916333  0.09492452  1
  N  N448  1  0.81432299  0.44146794  0.09558233  1
  N  N449  1  0.81188209  0.77594567  0.09484744  1
  N  N450  1  0.19058442  0.22663406  0.58845800  1
  N  N451  1  0.18153475  0.55571636  0.60186340  1
  N  N452  1  0.19376738  0.89205883  0.58787372  1
  N  N453  1  0.68705985  0.22336513  0.59765806  1
  N  N454  1  0.67906731  0.55783257  0.59949731  1
  N  N455  1  0.69488584  0.89013844  0.59196955  1
  Cl  Cl456  1  0.26118694  0.05846341  0.60466643  1
  Cl  Cl457  1  0.25828944  0.38257495  0.61502420  1
  Cl  Cl458  1  0.25674887  0.72545662  0.60998332  1
  Cl  Cl459  1  0.76024998  0.05287543  0.61426508  1
  Cl  Cl460  1  0.75628553  0.39143745  0.60901363  1
  Cl  Cl461  1  0.75974075  0.71757291  0.61560785  1
  Cl  Cl462  1  0.24855918  0.27738238  0.10860539  1
  Cl  Cl463  1  0.24774499  0.61410610  0.11354062  1
  Cl  Cl464  1  0.25238894  0.94512682  0.11200244  1
  Cl  Cl465  1  0.75655146  0.27822078  0.11707542  1
  Cl  Cl466  1  0.74302558  0.60734447  0.11195028  1
  Cl  Cl467  1  0.75690991  0.94480643  0.11507630  1
  Cl  Cl468  1  0.24810701  0.05196963  0.87710870  1
  Cl  Cl469  1  0.25060391  0.38171340  0.87775789  1
  Cl  Cl470  1  0.25064743  0.72329578  0.88182624  1
  Cl  Cl471  1  0.74887815  0.05151196  0.88146461  1
  Cl  Cl472  1  0.75233259  0.38460449  0.87592603  1
  Cl  Cl473  1  0.74514686  0.71992476  0.88432175  1
  Cl  Cl474  1  0.24523037  0.27616802  0.38174756  1
  Cl  Cl475  1  0.25737327  0.61463554  0.38279628  1
  Cl  Cl476  1  0.24545210  0.95268744  0.37868797  1
  Cl  Cl477  1  0.74832900  0.28026146  0.38523261  1
  Cl  Cl478  1  0.75787200  0.60904546  0.38975900  1
  Cl  Cl479  1  0.73999992  0.94265491  0.39388342  1
  Cl  Cl480  1  0.00272058  0.21817071  0.62457981  1
  Cl  Cl481  1  -0.00774182  0.55462541  0.61199133  1
  Cl  Cl482  1  0.00399536  0.88433123  0.62125748  1
  Cl  Cl483  1  0.50114698  0.21546691  0.62014429  1
  Cl  Cl484  1  0.49400617  0.55513724  0.62228788  1
  Cl  Cl485  1  0.51451375  0.89387709  0.60613923  1
  Cl  Cl486  1  0.00210390  0.11745374  0.12016058  1
  Cl  Cl487  1  -0.00225563  0.44426820  0.12044926  1
  Cl  Cl488  1  -0.00009758  0.78230617  0.11997423  1
  Cl  Cl489  1  0.50478371  0.11099477  0.12197065  1
  Cl  Cl490  1  0.49972185  0.44973751  0.11620396  1
  Cl  Cl491  1  0.50056225  0.77991807  0.12038022  1
  Cl  Cl492  1  -0.00195322  0.22758822  0.89827155  1
  Cl  Cl493  1  0.00216335  0.55329913  0.87891887  1
  Cl  Cl494  1  -0.00370136  0.88919451  0.89383120  1
  Cl  Cl495  1  0.49557531  0.22071832  0.88564288  1
  Cl  Cl496  1  0.50928332  0.55906955  0.89453079  1
  Cl  Cl497  1  0.49329972  0.88660495  0.88113999  1
  Cl  Cl498  1  -0.01146721  0.10927960  0.39006625  1
  Cl  Cl499  1  -0.00855953  0.44656224  0.38578053  1
  Cl  Cl500  1  -0.00733439  0.77730658  0.38924027  1
  Cl  Cl501  1  0.48712257  0.10797459  0.39313580  1
  Cl  Cl502  1  0.49510606  0.44878982  0.38038988  1
  Cl  Cl503  1  0.48849582  0.77928788  0.38818773  1
  Cl  Cl504  1  0.36332558  0.14370831  0.74885431  1
  Cl  Cl505  1  0.35933667  0.47772501  0.75308789  1
  Cl  Cl506  1  0.36079010  0.81082959  0.74695252  1
  Cl  Cl507  1  0.85916576  0.14420095  0.75003392  1
  Cl  Cl508  1  0.86400282  0.47867416  0.75191286  1
  Cl  Cl509  1  0.86211275  0.81129298  0.74644194  1
  Cl  Cl510  1  0.13583742  0.18804133  0.25090825  1
  Cl  Cl511  1  0.13465957  0.52213165  0.24920756  1
  Cl  Cl512  1  0.13767524  0.85401785  0.25143138  1
  Cl  Cl513  1  0.63481333  0.18850038  0.25106893  1
  Cl  Cl514  1  0.63708479  0.52355926  0.25212563  1
  Cl  Cl515  1  0.63426542  0.85582658  0.25211514  1
  Cl  Cl516  1  0.14338738  0.14385967  0.74849436  1
  Cl  Cl517  1  0.13722674  0.47731125  0.74522698  1
  Cl  Cl518  1  0.13819226  0.81125538  0.74840039  1
  Cl  Cl519  1  0.63545465  0.14356809  0.75032737  1
  Cl  Cl520  1  0.63927510  0.47875344  0.74622082  1
  Cl  Cl521  1  0.63787938  0.81147122  0.75104967  1
  Cl  Cl522  1  0.35936511  0.18987796  0.24560312  1
  Cl  Cl523  1  0.35910132  0.52294508  0.24875522  1
  Cl  Cl524  1  0.36133690  0.85510663  0.24783290  1
  Cl  Cl525  1  0.86146565  0.18827221  0.24941000  1
  Cl  Cl526  1  0.86080045  0.52181040  0.24949579  1
  Cl  Cl527  1  0.85484384  0.85621712  0.25048831  1
  Cl  Cl528  1  0.11299106  0.30953846  0.74963978  1
  Cl  Cl529  1  0.11383965  0.64529112  0.74892892  1
  Cl  Cl530  1  0.11161512  0.97779242  0.74854761  1
  Cl  Cl531  1  0.61387723  0.31117702  0.75053651  1
  Cl  Cl532  1  0.61115357  0.64347262  0.74830318  1
  Cl  Cl533  1  0.60977255  0.97649759  0.74879234  1
  Cl  Cl534  1  0.38594317  0.02156631  0.25064430  1
  Cl  Cl535  1  0.38654455  0.35475600  0.25235307  1
  Cl  Cl536  1  0.38848293  0.68698700  0.24738239  1
  Cl  Cl537  1  0.88655625  0.02033381  0.25134569  1
  Cl  Cl538  1  0.88607702  0.35474709  0.25093496  1
  Cl  Cl539  1  0.88497396  0.68832557  0.24739277  1
  Cl  Cl540  1  0.38752451  0.31075086  0.75221715  1
  Cl  Cl541  1  0.38649356  0.64439415  0.75310984  1
  Cl  Cl542  1  0.39121723  0.97762124  0.75022001  1
  Cl  Cl543  1  0.89152206  0.31030210  0.75121560  1
  Cl  Cl544  1  0.88848954  0.64545167  0.75210204  1
  Cl  Cl545  1  0.88795351  0.97704686  0.74886932  1
  Cl  Cl546  1  0.11145146  0.02104521  0.24810514  1
  Cl  Cl547  1  0.10962589  0.35508172  0.24826660  1
  Cl  Cl548  1  0.10887311  0.69121676  0.25525919  1
  Cl  Cl549  1  0.60532131  0.02299350  0.25341070  1
  Cl  Cl550  1  0.61196806  0.35679235  0.25030466  1
  Cl  Cl551  1  0.61380774  0.68923055  0.25257513  1
