# generated using pymatgen
data_H8PbC4(N3Cl2)2
_symmetry_space_group_name_H-M   'P 1'
_cell_length_a   16.62625588
_cell_length_b   22.51141582
_cell_length_c   21.59354634
_cell_angle_alpha   89.99976681
_cell_angle_beta   90.00367875
_cell_angle_gamma   90.00265253
_symmetry_Int_Tables_number   1
_chemical_formula_structural   H8PbC4(N3Cl2)2
_chemical_formula_sum   'H192 Pb24 C96 N144 Cl96'
_cell_volume   8082.04458547
_cell_formula_units_Z   24
loop_
 _symmetry_equiv_pos_site_id
 _symmetry_equiv_pos_as_xyz
  1  'x, y, z'
loop_
 _atom_site_type_symbol
 _atom_site_label
 _atom_site_symmetry_multiplicity
 _atom_site_fract_x
 _atom_site_fract_y
 _atom_site_fract_z
 _atom_site_occupancy
  H  H0  1  0.00453845  0.03300362  0.68502106  1
  H  H1  1  0.00900572  0.36411235  0.67619827  1
  H  H2  1  0.00494433  0.69653104  0.68077188  1
  H  H3  1  0.48660707  0.03084136  0.68315669  1
  H  H4  1  0.49681043  0.36440670  0.67955901  1
  H  H5  1  0.50666089  0.69798683  0.67805440  1
  H  H6  1  0.00734445  0.30428815  0.17841032  1
  H  H7  1  0.00870990  0.63727523  0.17871252  1
  H  H8  1  0.00814008  0.96849569  0.17945143  1
  H  H9  1  0.49742016  0.30729739  0.17991513  1
  H  H10  1  0.49025450  0.63504916  0.17443178  1
  H  H11  1  0.48825483  0.96925945  0.17286379  1
  H  H12  1  -0.00791502  0.03010242  0.82237282  1
  H  H13  1  -0.00345499  0.36352929  0.82116529  1
  H  H14  1  -0.00083098  0.69575400  0.81950759  1
  H  H15  1  0.50005365  0.02651522  0.82203296  1
  H  H16  1  0.49563266  0.36311557  0.82531633  1
  H  H17  1  0.49983919  0.69567435  0.81804253  1
  H  H18  1  0.00339320  0.30592304  0.32067551  1
  H  H19  1  0.00400810  0.63774897  0.32112612  1
  H  H20  1  -0.00039377  0.96911557  0.32094366  1
  H  H21  1  0.50216265  0.30165941  0.31623019  1
  H  H22  1  0.50573076  0.63727850  0.31675255  1
  H  H23  1  0.50451813  0.96683469  0.31754786  1
  H  H24  1  0.26309523  0.19933064  0.68026753  1
  H  H25  1  0.24662713  0.52643518  0.67806678  1
  H  H26  1  0.25972042  0.86315054  0.67837981  1
  H  H27  1  0.73601040  0.19977973  0.68272122  1
  H  H28  1  0.74487506  0.52987602  0.67966075  1
  H  H29  1  0.74248572  0.86305756  0.68022744  1
  H  H30  1  0.24897705  0.13813924  0.17808634  1
  H  H31  1  0.25088166  0.47198536  0.17858366  1
  H  H32  1  0.25706695  0.80121755  0.18335324  1
  H  H33  1  0.74901332  0.13640904  0.17827066  1
  H  H34  1  0.75756593  0.46969682  0.17956740  1
  H  H35  1  0.75618896  0.80162821  0.17891010  1
  H  H36  1  0.26055114  0.19949747  0.81998666  1
  H  H37  1  0.24673571  0.52869041  0.81953967  1
  H  H38  1  0.24131809  0.86330551  0.82075529  1
  H  H39  1  0.73555266  0.19568529  0.82209529  1
  H  H40  1  0.75490993  0.52893509  0.82277845  1
  H  H41  1  0.76497113  0.86470834  0.82528154  1
  H  H42  1  0.24313710  0.13584006  0.31991786  1
  H  H43  1  0.25559736  0.46954582  0.32248284  1
  H  H44  1  0.24803838  0.80191788  0.32160025  1
  H  H45  1  0.75951874  0.13428458  0.31561928  1
  H  H46  1  0.74999393  0.46839160  0.32142404  1
  H  H47  1  0.73761294  0.79938890  0.32422320  1
  H  H48  1  0.12777217  0.05169277  0.61361798  1
  H  H49  1  0.11586039  0.39278464  0.59247843  1
  H  H50  1  0.12039400  0.72382083  0.60425476  1
  H  H51  1  0.62599082  0.05013448  0.62696102  1
  H  H52  1  0.62204372  0.38812660  0.60836799  1
  H  H53  1  0.61369415  0.72473940  0.59364969  1
  H  H54  1  0.37303358  0.28046038  0.11211013  1
  H  H55  1  0.38632736  0.60829762  0.09275495  1
  H  H56  1  0.37752915  0.94098244  0.09283680  1
  H  H57  1  0.87605879  0.28026821  0.11433542  1
  H  H58  1  0.87750390  0.61550273  0.11583353  1
  H  H59  1  0.87099768  0.94781318  0.12156218  1
  H  H60  1  0.38186036  0.05630145  0.89620264  1
  H  H61  1  0.38020294  0.39087863  0.90086970  1
  H  H62  1  0.37684801  0.71981946  0.89172802  1
  H  H63  1  0.88017392  0.05653227  0.90411599  1
  H  H64  1  0.88127434  0.39020628  0.89914584  1
  H  H65  1  0.87515599  0.72121792  0.89132636  1
  H  H66  1  0.12685975  0.28186017  0.39139413  1
  H  H67  1  0.11582641  0.60878671  0.39950406  1
  H  H68  1  0.12227329  0.94479722  0.39202379  1
  H  H69  1  0.62600689  0.28009049  0.38594911  1
  H  H70  1  0.61702695  0.61308786  0.39778686  1
  H  H71  1  0.61758751  0.94147748  0.39718618  1
  H  H72  1  0.36973171  0.22418683  0.59825906  1
  H  H73  1  0.38022932  0.55019878  0.61923506  1
  H  H74  1  0.37392999  0.88984868  0.59879056  1
  H  H75  1  0.87419729  0.21705337  0.62866026  1
  H  H76  1  0.88199600  0.55242606  0.62187292  1
  H  H77  1  0.88000973  0.88360040  0.62259633  1
  H  H78  1  0.12125424  0.11363322  0.11073136  1
  H  H79  1  0.12005452  0.44853955  0.11442586  1
  H  H80  1  0.12707422  0.78010321  0.11632652  1
  H  H81  1  0.61971057  0.11108360  0.11220473  1
  H  H82  1  0.62128925  0.44913069  0.11842162  1
  H  H83  1  0.62709797  0.78200972  0.11503883  1
  H  H84  1  0.12308869  0.21682595  0.87700012  1
  H  H85  1  0.12431432  0.55375331  0.89294977  1
  H  H86  1  0.13148143  0.89087602  0.90387916  1
  H  H87  1  0.62925996  0.22528189  0.90569682  1
  H  H88  1  0.62132238  0.55096670  0.88409026  1
  H  H89  1  0.62608757  0.88479025  0.88033446  1
  H  H90  1  0.37130157  0.11158510  0.38633910  1
  H  H91  1  0.37573332  0.44327473  0.39547805  1
  H  H92  1  0.38660050  0.78478003  0.37752402  1
  H  H93  1  0.87085306  0.11313422  0.39651952  1
  H  H94  1  0.88111905  0.44568835  0.38601702  1
  H  H95  1  0.87743887  0.78316879  0.37475753  1
  H  H96  1  0.37650735  0.28294725  0.38511440  1
  H  H97  1  0.36975526  0.61378849  0.37650735  1
  H  H98  1  0.36948925  0.94680486  0.37992806  1
  H  H99  1  0.87817137  0.27922974  0.38975466  1
  H  H100  1  0.86796549  0.61525020  0.37993086  1
  H  H101  1  0.87333870  0.94310553  0.39014323  1
  H  H102  1  0.12650604  0.05350499  0.88150115  1
  H  H103  1  0.12941836  0.38366440  0.88390408  1
  H  H104  1  0.12417559  0.71898319  0.88951935  1
  H  H105  1  0.62999346  0.05116154  0.88535053  1
  H  H106  1  0.62848173  0.38735349  0.88652185  1
  H  H107  1  0.62547648  0.71964831  0.88904088  1
  H  H108  1  0.12405158  0.27693046  0.10287044  1
  H  H109  1  0.12567096  0.60939511  0.10215549  1
  H  H110  1  0.11712818  0.94167169  0.09549595  1
  H  H111  1  0.62236161  0.27801224  0.11071929  1
  H  H112  1  0.63013694  0.61935713  0.12358631  1
  H  H113  1  0.62418601  0.94715097  0.11520898  1
  H  H114  1  0.37984134  0.05704294  0.59938231  1
  H  H115  1  0.37329847  0.38797156  0.60711217  1
  H  H116  1  0.36855407  0.71899748  0.62098755  1
  H  H117  1  0.87810008  0.05281267  0.61707539  1
  H  H118  1  0.87045162  0.38320825  0.62138705  1
  H  H119  1  0.87217051  0.71904185  0.61732021  1
  H  H120  1  0.12314480  0.11457387  0.39427833  1
  H  H121  1  0.12690561  0.44606872  0.38920881  1
  H  H122  1  0.13906676  0.77672927  0.40188110  1
  H  H123  1  0.62377957  0.11581158  0.37261048  1
  H  H124  1  0.63338301  0.44381174  0.39890239  1
  H  H125  1  0.63308274  0.77466715  0.40866041  1
  H  H126  1  0.37014099  0.22345670  0.89995329  1
  H  H127  1  0.37372880  0.55168659  0.88781898  1
  H  H128  1  0.37788576  0.88662865  0.87879319  1
  H  H129  1  0.87496935  0.21755800  0.87389827  1
  H  H130  1  0.86977244  0.55436755  0.90062524  1
  H  H131  1  0.87154233  0.89245913  0.90907325  1
  H  H132  1  0.37066388  0.11183331  0.10664443  1
  H  H133  1  0.36863803  0.44522413  0.10202925  1
  H  H134  1  0.37617838  0.77873982  0.10817516  1
  H  H135  1  0.86807649  0.11122648  0.10307301  1
  H  H136  1  0.86825189  0.44271585  0.09722710  1
  H  H137  1  0.87609987  0.77984223  0.10414058  1
  H  H138  1  0.12396067  0.21768802  0.62781060  1
  H  H139  1  0.13243503  0.55592572  0.60005206  1
  H  H140  1  0.12652096  0.88436847  0.61773830  1
  H  H141  1  0.62787493  0.22292928  0.60048851  1
  H  H142  1  0.63491024  0.55739308  0.59883516  1
  H  H143  1  0.63236875  0.88662990  0.59858728  1
  H  H144  1  0.64584271  0.58282593  0.99255273  1
  H  H145  1  0.56958160  0.41848411  0.50431535  1
  H  H146  1  0.19736374  0.57686937  0.49624187  1
  H  H147  1  0.92115000  0.07481873  0.50282066  1
  H  H148  1  0.81068395  0.58567930  1.00636182  1
  H  H149  1  0.08036190  0.06691737  0.49960697  1
  H  H150  1  0.80605335  0.09275319  0.50552720  1
  H  H151  1  0.55230954  0.91461198  0.50298678  1
  H  H152  1  0.59520428  0.91610037  0.00692283  1
  H  H153  1  0.07616745  0.74742409  0.99872835  1
  H  H154  1  0.84667052  0.41803120  0.49293709  1
  H  H155  1  0.57971696  0.25864134  0.49953986  1
  H  H156  1  0.86293230  0.75365096  0.49047581  1
  H  H157  1  0.59296278  0.42006262  0.99302335  1
  H  H158  1  0.16316958  0.08783172  0.00479110  1
  H  H159  1  0.45364075  0.08508293  0.49601625  1
  H  H160  1  0.04259177  0.91658709  -0.00445310  1
  H  H161  1  0.89652257  0.58746974  0.48827763  1
  H  H162  1  0.57117609  0.26091492  0.00238205  1
  H  H163  1  0.13925932  0.24882202  0.51422799  1
  H  H164  1  0.54942822  0.58542169  0.50304419  1
  H  H165  1  0.35147802  0.58251809  0.50764611  1
  H  H166  1  0.66115455  0.08354803  0.00633268  1
  H  H167  1  0.20537027  0.91556066  1.00436010  1
  H  H168  1  0.94980837  0.08532851  1.00373297  1
  H  H169  1  0.32048336  0.08149702  -0.00230042  1
  H  H170  1  0.64689747  0.08858245  0.48683028  1
  H  H171  1  0.29938216  0.25035222  0.49133724  1
  H  H172  1  0.85348015  0.90993334  0.51395308  1
  H  H173  1  0.70417918  0.58878892  0.49511670  1
  H  H174  1  0.31953247  0.74884021  0.00091606  1
  H  H175  1  0.07353540  0.91310293  0.50013014  1
  H  H176  1  0.85651448  0.24460456  0.51467515  1
  H  H177  1  0.41989979  0.25042851  0.00115125  1
  H  H178  1  0.05072674  0.57950774  0.50595759  1
  H  H179  1  0.70551714  0.24276698  1.00734305  1
  H  H180  1  0.20636768  0.74930701  0.50889711  1
  H  H181  1  0.85697311  0.25127648  0.98605156  1
  H  H182  1  0.15632777  0.41670384  0.00463327  1
  H  H183  1  0.39031610  0.74959348  0.51048672  1
  H  H184  1  0.69676102  0.24525796  0.49262296  1
  H  H185  1  0.18679028  0.11165099  0.49965530  1
  H  H186  1  0.42031997  0.26327920  0.49943322  1
  H  H187  1  0.69935698  0.91289445  0.49229493  1
  H  H188  1  0.66315815  0.75214129  0.00167492  1
  H  H189  1  0.31785325  0.06026554  0.47974931  1
  H  H190  1  0.30322957  0.25104131  1.00821968  1
  H  H191  1  0.32829393  0.58272282  0.99672923  1
  Pb  Pb192  1  0.25455550  0.04856948  0.74634026  1
  Pb  Pb193  1  0.25113080  0.37922055  0.74763348  1
  Pb  Pb194  1  0.25026759  0.71281074  0.75181568  1
  Pb  Pb195  1  0.75283687  0.04540504  0.75572828  1
  Pb  Pb196  1  0.75507012  0.38284766  0.74945546  1
  Pb  Pb197  1  0.74923157  0.71345569  0.74772954  1
  Pb  Pb198  1  0.24710568  0.28746331  0.24992522  1
  Pb  Pb199  1  0.24804183  0.61916023  0.24967588  1
  Pb  Pb200  1  0.24846306  0.95304780  0.24109839  1
  Pb  Pb201  1  0.74919306  0.28651443  0.24615229  1
  Pb  Pb202  1  0.74860567  0.62158580  0.25287636  1
  Pb  Pb203  1  0.74447227  0.95102195  0.25672153  1
  Pb  Pb204  1  0.00072750  0.21333510  0.75024058  1
  Pb  Pb205  1  0.00480959  0.54781562  0.74956274  1
  Pb  Pb206  1  0.00241594  0.87913337  0.75903688  1
  Pb  Pb207  1  0.50624685  0.21725871  0.75110155  1
  Pb  Pb208  1  0.50117860  0.54613801  0.74504118  1
  Pb  Pb209  1  0.50195326  0.87961730  0.74407929  1
  Pb  Pb210  1  -0.00566484  0.11759854  0.25056352  1
  Pb  Pb211  1  -0.00247004  0.45446611  0.24687032  1
  Pb  Pb212  1  0.00139699  0.78676439  0.25184460  1
  Pb  Pb213  1  0.49659097  0.11981268  0.25007077  1
  Pb  Pb214  1  0.49951565  0.45417987  0.25143025  1
  Pb  Pb215  1  0.49971673  0.78679083  0.25322496  1
  C  C216  1  0.00345242  0.04609859  0.63660058  1
  C  C217  1  -0.00154466  0.37978887  0.62950442  1
  C  C218  1  -0.00120498  0.71266662  0.63398826  1
  C  C219  1  0.49786473  0.04551453  0.63599229  1
  C  C220  1  0.49776146  0.38004119  0.63203285  1
  C  C221  1  0.49573925  0.71350751  0.63116394  1
  C  C222  1  0.00205148  0.28800466  0.13154166  1
  C  C223  1  0.00418589  0.62104092  0.13176178  1
  C  C224  1  -0.00079234  0.95351155  0.13223186  1
  C  C225  1  0.49838929  0.29024379  0.13280804  1
  C  C226  1  0.50284693  0.62081509  0.12740110  1
  C  C227  1  0.49709297  0.95317915  0.12605575  1
  C  C228  1  -0.00077007  0.04618680  0.86937931  1
  C  C229  1  0.00224358  0.37895071  0.86835608  1
  C  C230  1  -0.00060763  0.71200148  0.86677052  1
  C  C231  1  0.50386330  0.04436789  0.86834632  1
  C  C232  1  0.50185969  0.38007659  0.87201451  1
  C  C233  1  0.50056828  0.71087201  0.86576485  1
  C  C234  1  0.00249691  0.28909444  0.36751640  1
  C  C235  1  -0.00485299  0.62198574  0.36825674  1
  C  C236  1  -0.00184923  0.95242869  0.36810795  1
  C  C237  1  0.50152194  0.28784072  0.36443186  1
  C  C238  1  0.49706306  0.62216517  0.36403270  1
  C  C239  1  0.49701924  0.95218071  0.36507109  1
  C  C240  1  0.25169198  0.21370138  0.63299145  1
  C  C241  1  0.25293218  0.54284605  0.63092969  1
  C  C242  1  0.25365764  0.87915035  0.63141772  1
  C  C243  1  0.74649380  0.21328275  0.63506274  1
  C  C244  1  0.75440927  0.54587520  0.63278321  1
  C  C245  1  0.75232626  0.87778961  0.63281652  1
  C  C246  1  0.24657260  0.12125306  0.13089999  1
  C  C247  1  0.24654789  0.45554040  0.13153048  1
  C  C248  1  0.25323448  0.78636148  0.13566162  1
  C  C249  1  0.74517370  0.11940274  0.13137525  1
  C  C250  1  0.74899074  0.45429514  0.13231946  1
  C  C251  1  0.75253158  0.78761894  0.13104736  1
  C  C252  1  0.25133318  0.21303034  0.86760924  1
  C  C253  1  0.24813757  0.54493116  0.86676831  1
  C  C254  1  0.24975261  0.87902103  0.86778932  1
  C  C255  1  0.74656503  0.21151098  0.86894202  1
  C  C256  1  0.74814929  0.54496621  0.87009335  1
  C  C257  1  0.75393258  0.88002650  0.87192674  1
  C  C258  1  0.24596856  0.12071478  0.36772754  1
  C  C259  1  0.25258000  0.45306670  0.36936855  1
  C  C260  1  0.25787931  0.78771849  0.36901459  1
  C  C261  1  0.75094716  0.12081771  0.36352710  1
  C  C262  1  0.75514512  0.45259290  0.36876648  1
  C  C263  1  0.75052839  0.78564711  0.37127491  1
  C  C264  1  0.48677680  0.59243528  0.03147119  1
  C  C265  1  0.52016392  0.92607585  0.46064947  1
  C  C266  1  0.77471408  0.09872712  0.46179516  1
  C  C267  1  0.73431422  0.57583217  0.53785006  1
  C  C268  1  0.03970889  0.25977225  0.46008445  1
  C  C269  1  0.03371336  0.92416762  0.46100039  1
  C  C270  1  0.48178225  0.07305942  0.53991354  1
  C  C271  1  0.18958270  0.23944088  0.54625259  1
  C  C272  1  0.28351034  0.09248243  0.03760703  1
  C  C273  1  0.30699094  0.57250804  0.54325478  1
  C  C274  1  0.80895638  0.24150878  0.95307843  1
  C  C275  1  0.95714077  0.59166191  0.04250557  1
  C  C276  1  0.47168308  0.92063233  0.03073351  1
  C  C277  1  0.03122949  0.25733939  0.03789810  1
  C  C278  1  0.28793013  0.57243481  0.95844055  1
  C  C279  1  0.28362844  0.75986081  0.04146463  1
  C  C280  1  0.81346619  0.76154731  0.45823833  1
  C  C281  1  0.54141164  0.26643039  0.45955808  1
  C  C282  1  0.73319395  0.75862322  0.46850706  1
  C  C283  1  0.70599823  0.76233131  0.03823797  1
  C  C284  1  0.45690173  0.26054847  0.04117048  1
  C  C285  1  0.45942120  0.26798058  0.45936960  1
  C  C286  1  0.19224171  0.23693889  0.95540283  1
  C  C287  1  0.02019544  0.59177569  0.46327215  1
  C  C288  1  0.20344760  0.90716356  0.54238387  1
  C  C289  1  0.23791290  0.76079734  0.46637506  1
  C  C290  1  0.27261793  0.23940089  0.96527458  1
  C  C291  1  0.96062224  0.06627641  0.54195693  1
  C  C292  1  0.31880075  0.76405506  0.45677698  1
  C  C293  1  0.27058061  0.24050739  0.53532375  1
  C  C294  1  0.77109866  0.90963632  0.96786284  1
  C  C295  1  0.03703431  0.73824387  0.95956077  1
  C  C296  1  0.77570475  0.57426241  0.96516129  1
  C  C297  1  0.54974776  0.07525809  0.95798677  1
  C  C298  1  0.05077777  0.40609204  0.95820492  1
  C  C299  1  0.72918440  0.90395267  0.53619717  1
  C  C300  1  0.28475938  0.42242931  0.46189347  1
  C  C301  1  0.72654675  0.23697035  0.53661950  1
  C  C302  1  0.56735471  0.59617324  0.04169431  1
  C  C303  1  0.80746441  0.23591818  0.54696242  1
  C  C304  1  0.20109906  0.42703541  0.04148761  1
  C  C305  1  0.69359980  0.09819408  0.45296269  1
  C  C306  1  0.94067731  0.40625722  0.54260307  1
  C  C307  1  0.78755877  0.76237963  0.03601882  1
  C  C308  1  0.04258746  0.06437348  0.54056947  1
  C  C309  1  0.51860250  0.59558607  0.45972153  1
  C  C310  1  0.47092028  0.41348997  0.96597084  1
  C  C311  1  0.02634219  0.74426871  0.54038184  1
  N  N312  1  0.81288066  0.57371615  0.54528085  1
  N  N313  1  0.95392517  0.25911214  0.04007412  1
  N  N314  1  0.96187772  0.25800126  0.46048322  1
  N  N315  1  0.77118175  0.42531568  0.03639258  1
  N  N316  1  0.93926545  0.92804997  0.04511698  1
  N  N317  1  0.29164108  0.09651083  0.45902855  1
  N  N318  1  0.78076431  0.09160449  0.03726443  1
  N  N319  1  0.46433417  0.73825591  0.95975204  1
  N  N320  1  0.01658403  0.92600224  0.03796899  1
  N  N321  1  0.69524047  0.42803945  0.04325813  1
  N  N322  1  0.72296859  0.42598096  0.46383592  1
  N  N323  1  0.20381636  0.09279233  0.04038729  1
  N  N324  1  0.44003771  0.73974591  0.54478286  1
  N  N325  1  0.97862220  0.07455351  0.96307701  1
  N  N326  1  0.69440911  0.90673281  0.95986638  1
  N  N327  1  0.28028679  0.42560410  0.03681243  1
  N  N328  1  0.69630245  0.57369972  0.95839968  1
  N  N329  1  0.22772870  0.57452562  0.53766817  1
  N  N330  1  0.30878099  0.90652558  0.95455167  1
  N  N331  1  0.20428324  0.76075679  0.04366756  1
  N  N332  1  0.80136599  0.42618718  0.45799039  1
  N  N333  1  0.53412324  0.40407620  0.53994914  1
  N  N334  1  0.28041719  0.90961619  0.53535284  1
  N  N335  1  0.94918664  0.74243782  0.54388002  1
  N  N336  1  0.95782872  0.73999824  0.96026967  1
  N  N337  1  0.45610575  0.40499062  0.53847209  1
  N  N338  1  0.20872489  0.57359859  0.96049117  1
  N  N339  1  0.44137349  0.92795969  0.45516590  1
  N  N340  1  0.05642391  0.07336947  0.95714021  1
  N  N341  1  0.54994032  0.92380766  0.03891809  1
  N  N342  1  0.54957583  0.41099941  0.96015595  1
  N  N343  1  0.95422459  0.92413256  0.46106515  1
  N  N344  1  0.80784448  0.90443487  0.54591381  1
  N  N345  1  0.43995778  0.59544482  0.45252348  1
  N  N346  1  0.01717812  0.41039142  0.53222136  1
  N  N347  1  0.97362144  0.40871799  0.96432559  1
  N  N348  1  0.20925465  0.09211816  0.46016942  1
  N  N349  1  0.94135927  0.59374176  0.45522932  1
  N  N350  1  0.73038294  0.24322529  0.96360469  1
  N  N351  1  0.55999356  0.07103381  0.54910274  1
  N  N352  1  0.53663959  0.25979514  0.04160107  1
  N  N353  1  0.03433865  0.58947120  0.03684075  1
  N  N354  1  0.54078365  0.73833211  0.95866114  1
  N  N355  1  0.51700491  0.74129152  0.53471275  1
  N  N356  1  0.70255423  0.09118506  0.04198732  1
  N  N357  1  0.23138657  0.90802240  0.96153787  1
  N  N358  1  0.20749132  0.42346670  0.46121037  1
  N  N359  1  0.47212232  0.07733379  0.96271132  1
  N  N360  1  0.06799735  0.05230405  0.59990972  1
  N  N361  1  0.05337406  0.39326400  0.58767286  1
  N  N362  1  0.05908705  0.72605123  0.59460391  1
  N  N363  1  0.56829887  0.05424504  0.60912059  1
  N  N364  1  0.56118191  0.39066693  0.59689603  1
  N  N365  1  0.55134084  0.72515100  0.58832641  1
  N  N366  1  0.43298550  0.27756212  0.09810067  1
  N  N367  1  0.44789491  0.60733270  0.08368849  1
  N  N368  1  0.43859247  0.93898551  0.08438386  1
  N  N369  1  0.93539984  0.27860834  0.09988043  1
  N  N370  1  0.93605018  0.61073178  0.09979427  1
  N  N371  1  0.92893764  0.94420168  0.10430341  1
  N  N372  1  0.44345769  0.05764580  0.90548806  1
  N  N373  1  0.44102925  0.39407134  0.91163435  1
  N  N374  1  0.43803844  0.72100854  0.90224993  1
  N  N375  1  0.94228050  0.05735525  0.91045794  1
  N  N376  1  0.94318876  0.39131237  0.90709820  1
  N  N377  1  0.93618767  0.72349494  0.90224763  1
  N  N378  1  0.06670689  0.27814795  0.40378358  1
  N  N379  1  0.05394310  0.60881450  0.40915822  1
  N  N380  1  0.06175143  0.94128379  0.40438122  1
  N  N381  1  0.56631550  0.27848829  0.40020065  1
  N  N382  1  0.55506249  0.61180122  0.40583572  1
  N  N383  1  0.55603698  0.94098425  0.40582853  1
  N  N384  1  0.30811820  0.22434064  0.58969191  1
  N  N385  1  0.32272537  0.55476038  0.60166526  1
  N  N386  1  0.31206513  0.89170457  0.59205026  1
  N  N387  1  0.81814253  0.22135950  0.60810100  1
  N  N388  1  0.82388026  0.55507522  0.60463480  1
  N  N389  1  0.82179397  0.88761816  0.60514677  1
  N  N390  1  0.18135612  0.11190985  0.09737211  1
  N  N391  1  0.17916454  0.44463949  0.09958332  1
  N  N392  1  0.18725901  0.77693685  0.10274977  1
  N  N393  1  0.67969078  0.10809759  0.09881181  1
  N  N394  1  0.68020021  0.44581575  0.10281000  1
  N  N395  1  0.68551252  0.77805753  0.09857695  1
  N  N396  1  0.17998520  0.22136697  0.89645963  1
  N  N397  1  0.18558090  0.55630211  0.90299473  1
  N  N398  1  0.19365915  0.88950074  0.90984784  1
  N  N399  1  0.69172065  0.22078283  0.91241544  1
  N  N400  1  0.68032856  0.55571671  0.89973524  1
  N  N401  1  0.68368707  0.88808079  0.89887574  1
  N  N402  1  0.31098081  0.10494569  0.39867422  1
  N  N403  1  0.31546731  0.44022282  0.40669144  1
  N  N404  1  0.33002000  0.78025336  0.39725188  1
  N  N405  1  0.80939568  0.11256981  0.40550641  1
  N  N406  1  0.82164384  0.44227616  0.40042443  1
  N  N407  1  0.82281956  0.77815223  0.39678730  1
  N  N408  1  0.43595585  0.28077064  0.39987025  1
  N  N409  1  0.42818978  0.61196720  0.39273285  1
  N  N410  1  0.42872758  0.94359322  0.39548050  1
  N  N411  1  0.93879297  0.27661625  0.40143074  1
  N  N412  1  0.92612960  0.61385344  0.39725840  1
  N  N413  1  0.93372782  0.94172732  0.40230448  1
  N  N414  1  0.06840409  0.05654239  0.89833939  1
  N  N415  1  0.07095494  0.38828977  0.89992134  1
  N  N416  1  0.06418312  0.72189113  0.90230638  1
  N  N417  1  0.57132738  0.05590677  0.90050491  1
  N  N418  1  0.56946146  0.39018861  0.90223688  1
  N  N419  1  0.56458536  0.72146973  0.90066581  1
  N  N420  1  0.06315032  0.27456282  0.09273463  1
  N  N421  1  0.06400358  0.60815606  0.09374240  1
  N  N422  1  0.05490997  0.94284334  0.08994975  1
  N  N423  1  0.56210865  0.28181866  0.09728036  1
  N  N424  1  0.57561951  0.61334903  0.10125113  1
  N  N425  1  0.56619287  0.94457431  0.09749189  1
  N  N426  1  0.44208191  0.05749425  0.59285920  1
  N  N427  1  0.43400719  0.38936221  0.59586229  1
  N  N428  1  0.42615332  0.72289707  0.60347041  1
  N  N429  1  0.93759769  0.05492599  0.60187952  1
  N  N430  1  0.92690623  0.38821553  0.60204622  1
  N  N431  1  0.93151023  0.72282443  0.60316550  1
  N  N432  1  0.18409233  0.11663345  0.40604162  1
  N  N433  1  0.18714941  0.44249507  0.40226218  1
  N  N434  1  0.20092448  0.77568106  0.41053813  1
  N  N435  1  0.68034374  0.11181242  0.39193874  1
  N  N436  1  0.69511180  0.44201510  0.40795009  1
  N  N437  1  0.69521064  0.77330344  0.41618911  1
  N  N438  1  0.30899978  0.22408246  0.90924702  1
  N  N439  1  0.31377732  0.55536905  0.90115108  1
  N  N440  1  0.31963945  0.88977871  0.89565380  1
  N  N441  1  0.81880767  0.22364144  0.89403354  1
  N  N442  1  0.80814304  0.55674216  0.91031251  1
  N  N443  1  0.80987441  0.89355922  0.91512547  1
  N  N444  1  0.31020826  0.10909471  0.09414835  1
  N  N445  1  0.30683536  0.44375981  0.09326056  1
  N  N446  1  0.31507458  0.77527451  0.09755857  1
  N  N447  1  0.80672703  0.10848419  0.09354437  1
  N  N448  1  0.80587915  0.44164894  0.09131559  1
  N  N449  1  0.81548873  0.77738684  0.09202166  1
  N  N450  1  0.17980292  0.22280555  0.60710783  1
  N  N451  1  0.19436956  0.55304276  0.59086298  1
  N  N452  1  0.18449550  0.88918204  0.60065297  1
  N  N453  1  0.68955237  0.22288837  0.59205435  1
  N  N454  1  0.69707836  0.55874769  0.59114290  1
  N  N455  1  0.69420872  0.88831886  0.59038529  1
  Cl  Cl456  1  0.25519409  0.05901918  0.60762317  1
  Cl  Cl457  1  0.24610095  0.38925479  0.61481065  1
  Cl  Cl458  1  0.24223632  0.72043259  0.61647307  1
  Cl  Cl459  1  0.75420706  0.05175054  0.62359192  1
  Cl  Cl460  1  0.74411511  0.38820429  0.61592378  1
  Cl  Cl461  1  0.73835130  0.72245712  0.61435238  1
  Cl  Cl462  1  0.24988599  0.27748071  0.11633620  1
  Cl  Cl463  1  0.25656336  0.60988818  0.11757254  1
  Cl  Cl464  1  0.24080846  0.94173005  0.10055435  1
  Cl  Cl465  1  0.74477602  0.26807905  0.10749354  1
  Cl  Cl466  1  0.75750844  0.61476651  0.12035364  1
  Cl  Cl467  1  0.74712975  0.94714195  0.12486982  1
  Cl  Cl468  1  0.25457002  0.05690572  0.88450889  1
  Cl  Cl469  1  0.25521661  0.38479922  0.87978387  1
  Cl  Cl470  1  0.25312661  0.72149397  0.88469774  1
  Cl  Cl471  1  0.75627521  0.05388582  0.89051583  1
  Cl  Cl472  1  0.75449358  0.38636205  0.88139939  1
  Cl  Cl473  1  0.74923920  0.72001556  0.88324346  1
  Cl  Cl474  1  0.25125126  0.27898754  0.38359262  1
  Cl  Cl475  1  0.23714378  0.60338663  0.39046394  1
  Cl  Cl476  1  0.24421965  0.95308361  0.37283952  1
  Cl  Cl477  1  0.75179574  0.27966897  0.37876732  1
  Cl  Cl478  1  0.73988392  0.61131262  0.38852962  1
  Cl  Cl479  1  0.74451729  0.94070880  0.39255021  1
  Cl  Cl480  1  -0.00060808  0.21664404  0.62386364  1
  Cl  Cl481  1  0.01102742  0.55879995  0.61200412  1
  Cl  Cl482  1  0.00356135  0.88386072  0.62594626  1
  Cl  Cl483  1  0.49882009  0.22566485  0.61592529  1
  Cl  Cl484  1  0.51202380  0.55477745  0.60908675  1
  Cl  Cl485  1  0.50548964  0.88825035  0.60866442  1
  Cl  Cl486  1  -0.00733693  0.11062485  0.10941422  1
  Cl  Cl487  1  -0.00860151  0.44697555  0.11576456  1
  Cl  Cl488  1  0.00214754  0.78092559  0.11794204  1
  Cl  Cl489  1  0.49669392  0.11535455  0.11848343  1
  Cl  Cl490  1  0.49469562  0.44469854  0.11608556  1
  Cl  Cl491  1  0.49895809  0.78624271  0.12230777  1
  Cl  Cl492  1  -0.00133274  0.21579821  0.88108217  1
  Cl  Cl493  1  -0.00416625  0.55176047  0.87988451  1
  Cl  Cl494  1  0.00837110  0.89442033  0.89901363  1
  Cl  Cl495  1  0.50650366  0.23055065  0.89600022  1
  Cl  Cl496  1  0.49767446  0.54814756  0.87691161  1
  Cl  Cl497  1  0.50187723  0.88972142  0.87745454  1
  Cl  Cl498  1  -0.00027583  0.10884628  0.38564479  1
  Cl  Cl499  1  0.00245175  0.44880742  0.37942920  1
  Cl  Cl500  1  0.01457480  0.77796173  0.38242730  1
  Cl  Cl501  1  0.49183976  0.11216667  0.38530403  1
  Cl  Cl502  1  0.50952334  0.44489619  0.38705142  1
  Cl  Cl503  1  0.51437880  0.77980000  0.38425239  1
  Cl  Cl504  1  0.35708309  0.14772781  0.75024685  1
  Cl  Cl505  1  0.36393575  0.47934304  0.74379619  1
  Cl  Cl506  1  0.36009567  0.81455251  0.75026283  1
  Cl  Cl507  1  0.86630061  0.14490832  0.75038742  1
  Cl  Cl508  1  0.85608482  0.47995149  0.74436690  1
  Cl  Cl509  1  0.86378474  0.81302886  0.74832856  1
  Cl  Cl510  1  0.14419090  0.18452757  0.24883626  1
  Cl  Cl511  1  0.13856807  0.51756372  0.25133337  1
  Cl  Cl512  1  0.14096229  0.85122753  0.24561548  1
  Cl  Cl513  1  0.63299190  0.18846344  0.25306955  1
  Cl  Cl514  1  0.63960577  0.51903981  0.24763102  1
  Cl  Cl515  1  0.64487364  0.85172517  0.25201062  1
  Cl  Cl516  1  0.13503681  0.14466462  0.74944109  1
  Cl  Cl517  1  0.14340057  0.48283129  0.75109733  1
  Cl  Cl518  1  0.14001305  0.81438116  0.74975180  1
  Cl  Cl519  1  0.64101167  0.14665128  0.75164541  1
  Cl  Cl520  1  0.63820544  0.48005459  0.75452208  1
  Cl  Cl521  1  0.64277899  0.81721895  0.75479082  1
  Cl  Cl522  1  0.36104253  0.18746537  0.25300636  1
  Cl  Cl523  1  0.36055721  0.51945164  0.25452669  1
  Cl  Cl524  1  0.36323277  0.85504253  0.25739959  1
  Cl  Cl525  1  0.85675323  0.18340345  0.24439262  1
  Cl  Cl526  1  0.85914502  0.52053865  0.25814454  1
  Cl  Cl527  1  0.86537498  0.85573145  0.25667129  1
  Cl  Cl528  1  0.11116953  0.31275551  0.75079950  1
  Cl  Cl529  1  0.10701720  0.64876400  0.75009903  1
  Cl  Cl530  1  0.11083417  0.98128766  0.75357928  1
  Cl  Cl531  1  0.60911903  0.31091837  0.75145884  1
  Cl  Cl532  1  0.60806490  0.64948233  0.74942005  1
  Cl  Cl533  1  0.61340150  0.98100691  0.74717099  1
  Cl  Cl534  1  0.38752378  0.01870831  0.24709697  1
  Cl  Cl535  1  0.39128616  0.35132965  0.25013072  1
  Cl  Cl536  1  0.38409917  0.68880649  0.25699787  1
  Cl  Cl537  1  0.89205572  0.02127879  0.24928458  1
  Cl  Cl538  1  0.88613596  0.35260522  0.24838050  1
  Cl  Cl539  1  0.88721110  0.68731210  0.25463432  1
  Cl  Cl540  1  0.39216522  0.31494895  0.75162996  1
  Cl  Cl541  1  0.38723537  0.64590062  0.74165314  1
  Cl  Cl542  1  0.39074905  0.98108597  0.75363709  1
  Cl  Cl543  1  0.88877630  0.31219288  0.74633419  1
  Cl  Cl544  1  0.88648414  0.64515674  0.74330114  1
  Cl  Cl545  1  0.89027208  0.97904701  0.74950840  1
  Cl  Cl546  1  0.11171236  0.02043729  0.24580131  1
  Cl  Cl547  1  0.10723179  0.35213714  0.24964078  1
  Cl  Cl548  1  0.10921159  0.68392731  0.24812251  1
  Cl  Cl549  1  0.60923652  0.01942827  0.24738068  1
  Cl  Cl550  1  0.61217280  0.35364119  0.24569164  1
  Cl  Cl551  1  0.60743539  0.68440541  0.24314430  1
