# generated using pymatgen
data_H8PbC4(N3Cl2)2
_symmetry_space_group_name_H-M   'P 1'
_cell_length_a   16.62313132
_cell_length_b   22.50898196
_cell_length_c   21.59012534
_cell_angle_alpha   89.99777631
_cell_angle_beta   90.00768429
_cell_angle_gamma   89.99579145
_symmetry_Int_Tables_number   1
_chemical_formula_structural   H8PbC4(N3Cl2)2
_chemical_formula_sum   'H192 Pb24 C96 N144 Cl96'
_cell_volume   8078.37198242
_cell_formula_units_Z   24
loop_
 _symmetry_equiv_pos_site_id
 _symmetry_equiv_pos_as_xyz
  1  'x, y, z'
loop_
 _atom_site_type_symbol
 _atom_site_label
 _atom_site_symmetry_multiplicity
 _atom_site_fract_x
 _atom_site_fract_y
 _atom_site_fract_z
 _atom_site_occupancy
  H  H0  1  0.00339061  0.03341681  0.67805726  1
  H  H1  1  0.01611570  0.36376711  0.67828752  1
  H  H2  1  0.01435795  0.69708298  0.67553008  1
  H  H3  1  0.50476237  0.03212970  0.68292784  1
  H  H4  1  0.48441519  0.36242391  0.67675730  1
  H  H5  1  0.48936776  0.69898581  0.67807142  1
  H  H6  1  0.00283735  0.30246096  0.17942899  1
  H  H7  1  0.00291513  0.63520598  0.18366835  1
  H  H8  1  0.00124608  0.96857659  0.17492008  1
  H  H9  1  0.50202438  0.30526436  0.17681283  1
  H  H10  1  0.50334475  0.63440866  0.17942942  1
  H  H11  1  0.50149965  0.97052083  0.17547102  1
  H  H12  1  0.01084767  0.02982624  0.82447048  1
  H  H13  1  -0.00255569  0.36314190  0.81992847  1
  H  H14  1  -0.00506720  0.69827458  0.82125166  1
  H  H15  1  0.49145614  0.02941347  0.82134667  1
  H  H16  1  0.50997443  0.36608732  0.82383016  1
  H  H17  1  0.50830014  0.69864292  0.81918343  1
  H  H18  1  -0.00982114  0.30186174  0.31849637  1
  H  H19  1  -0.00142822  0.63767779  0.32350328  1
  H  H20  1  0.01792221  0.97090324  0.32260384  1
  H  H21  1  0.50452352  0.30268562  0.32173385  1
  H  H22  1  0.49076640  0.63389449  0.32162110  1
  H  H23  1  0.48409336  0.96942650  0.32425438  1
  H  H24  1  0.25270894  0.19848113  0.67715592  1
  H  H25  1  0.25529899  0.53291084  0.67815083  1
  H  H26  1  0.24796352  0.86261067  0.68257323  1
  H  H27  1  0.75365713  0.19730069  0.68054608  1
  H  H28  1  0.76035828  0.52885140  0.67962152  1
  H  H29  1  0.75618807  0.86333975  0.67400567  1
  H  H30  1  0.25445030  0.13430893  0.17730279  1
  H  H31  1  0.25434494  0.47084330  0.18054142  1
  H  H32  1  0.24720953  0.80530722  0.17954468  1
  H  H33  1  0.74952201  0.13483222  0.17766218  1
  H  H34  1  0.74043075  0.46954750  0.18012688  1
  H  H35  1  0.74180215  0.80486480  0.17843908  1
  H  H36  1  0.25231915  0.19920017  0.81923685  1
  H  H37  1  0.23573641  0.53017896  0.81726124  1
  H  H38  1  0.23960897  0.86242565  0.82421255  1
  H  H39  1  0.74509920  0.19780192  0.81968623  1
  H  H40  1  0.75842326  0.52881319  0.82217039  1
  H  H41  1  0.76080661  0.86532310  0.82318018  1
  H  H42  1  0.25026806  0.13666959  0.31941845  1
  H  H43  1  0.25095821  0.46958416  0.31644553  1
  H  H44  1  0.25508784  0.80229493  0.32147422  1
  H  H45  1  0.74014851  0.13428920  0.32242780  1
  H  H46  1  0.74573133  0.46792693  0.32076222  1
  H  H47  1  0.75060519  0.80329485  0.32428991  1
  H  H48  1  0.11972556  0.05775420  0.60044724  1
  H  H49  1  0.11750802  0.39335663  0.59153310  1
  H  H50  1  0.12667014  0.72550221  0.59681927  1
  H  H51  1  0.62263582  0.05553171  0.60503584  1
  H  H52  1  0.62609728  0.38317486  0.62742424  1
  H  H53  1  0.63322345  0.71516157  0.63042691  1
  H  H54  1  0.36898853  0.28222003  0.11413019  1
  H  H55  1  0.37774883  0.61266890  0.11243638  1
  H  H56  1  0.37401241  0.94760494  0.10943754  1
  H  H57  1  0.86781003  0.27952744  0.11944776  1
  H  H58  1  0.87756058  0.61416556  0.11501481  1
  H  H59  1  0.87562830  0.94688328  0.10776919  1
  H  H60  1  0.37552813  0.05754768  0.89877574  1
  H  H61  1  0.37195710  0.38137524  0.87844648  1
  H  H62  1  0.36656697  0.71600290  0.87085165  1
  H  H63  1  0.87290163  0.04752461  0.88019146  1
  H  H64  1  0.87289300  0.38790850  0.89135457  1
  H  H65  1  0.86952129  0.72355323  0.89194723  1
  H  H66  1  0.12921637  0.28196254  0.37520507  1
  H  H67  1  0.13547709  0.61928884  0.38222416  1
  H  H68  1  0.11820531  0.93974728  0.41034867  1
  H  H69  1  0.63131286  0.27738757  0.39031549  1
  H  H70  1  0.62660662  0.61665527  0.37705330  1
  H  H71  1  0.62749988  0.95235581  0.37138520  1
  H  H72  1  0.36535716  0.22514868  0.59926939  1
  H  H73  1  0.36650755  0.55760542  0.59721230  1
  H  H74  1  0.37458831  0.88658827  0.61549716  1
  H  H75  1  0.86205010  0.22313819  0.59840253  1
  H  H76  1  0.86633381  0.55942123  0.59518748  1
  H  H77  1  0.87223702  0.89446224  0.59882202  1
  H  H78  1  0.12630605  0.11200385  0.10931789  1
  H  H79  1  0.12875892  0.44684299  0.11203593  1
  H  H80  1  0.13228727  0.77972493  0.10041286  1
  H  H81  1  0.62872669  0.11084715  0.10437231  1
  H  H82  1  0.62845346  0.44427153  0.09851501  1
  H  H83  1  0.63551414  0.77501898  0.09427670  1
  H  H84  1  0.13504627  0.21933376  0.89421500  1
  H  H85  1  0.12762617  0.55601921  0.89997499  1
  H  H86  1  0.12881006  0.89168421  0.90476725  1
  H  H87  1  0.63545191  0.22555634  0.90049612  1
  H  H88  1  0.62289630  0.54999661  0.88213562  1
  H  H89  1  0.62328973  0.88552110  0.88016392  1
  H  H90  1  0.37644742  0.11434592  0.38935241  1
  H  H91  1  0.37631869  0.44935284  0.38565674  1
  H  H92  1  0.36927667  0.77513550  0.40001787  1
  H  H93  1  0.87749575  0.11540010  0.38065473  1
  H  H94  1  0.87684691  0.44636287  0.38450755  1
  H  H95  1  0.86775723  0.77517774  0.39849521  1
  H  H96  1  0.38153087  0.27818844  0.39225609  1
  H  H97  1  0.38074787  0.61159527  0.40334407  1
  H  H98  1  0.38594535  0.93809978  0.41221676  1
  H  H99  1  0.88262952  0.27516784  0.40116552  1
  H  H100  1  0.88876757  0.60676044  0.40392194  1
  H  H101  1  0.87616039  0.95025031  0.37260564  1
  H  H102  1  0.11832856  0.05782967  0.90833103  1
  H  H103  1  0.12286456  0.38596043  0.88791395  1
  H  H104  1  0.11799899  0.72178370  0.89297583  1
  H  H105  1  0.62356216  0.05126255  0.88336771  1
  H  H106  1  0.61775548  0.39008333  0.90512547  1
  H  H107  1  0.61243927  0.72294689  0.90367551  1
  H  H108  1  0.11619352  0.27678774  0.10082201  1
  H  H109  1  0.12730716  0.61341747  0.11429409  1
  H  H110  1  0.12463030  0.94818129  0.10568037  1
  H  H111  1  0.61604842  0.27789504  0.09738934  1
  H  H112  1  0.62690478  0.61239407  0.10792297  1
  H  H113  1  0.62313558  0.94478970  0.10349040  1
  H  H114  1  0.37435287  0.05451674  0.61555741  1
  H  H115  1  0.38232188  0.39356354  0.59129316  1
  H  H116  1  0.38936760  0.72240553  0.59085512  1
  H  H117  1  0.87160607  0.05354067  0.61228234  1
  H  H118  1  0.87415812  0.38332315  0.62961824  1
  H  H119  1  0.87922821  0.71963992  0.61674351  1
  H  H120  1  0.12701170  0.11278075  0.39211057  1
  H  H121  1  0.12654322  0.44720481  0.38557622  1
  H  H122  1  0.12123572  0.77953106  0.38149761  1
  H  H123  1  0.63063555  0.10682823  0.40370747  1
  H  H124  1  0.62794032  0.44593967  0.39541921  1
  H  H125  1  0.61956669  0.77929142  0.38734199  1
  H  H126  1  0.38384335  0.21803908  0.88365887  1
  H  H127  1  0.37427593  0.54868136  0.87547203  1
  H  H128  1  0.37537544  0.88599250  0.88323951  1
  H  H129  1  0.88254498  0.21749760  0.87833339  1
  H  H130  1  0.86946944  0.55684683  0.90333223  1
  H  H131  1  0.86963205  0.89315581  0.90473456  1
  H  H132  1  0.37536331  0.11188860  0.10353197  1
  H  H133  1  0.37789504  0.44770663  0.11196560  1
  H  H134  1  0.37983418  0.78153056  0.11852889  1
  H  H135  1  0.87849375  0.11060917  0.11168335  1
  H  H136  1  0.87534795  0.44733932  0.11849504  1
  H  H137  1  0.88023024  0.78615020  0.12258022  1
  H  H138  1  0.11816959  0.21636044  0.61911613  1
  H  H139  1  0.11959289  0.55421289  0.61877677  1
  H  H140  1  0.12506252  0.88865922  0.60995154  1
  H  H141  1  0.61546437  0.21826073  0.62338214  1
  H  H142  1  0.62175327  0.55003890  0.62410563  1
  H  H143  1  0.62493260  0.88415654  0.60921211  1
  H  H144  1  0.17874353  0.90834499  0.50357230  1
  H  H145  1  0.89806420  0.25186625  0.01126323  1
  H  H146  1  0.08175548  0.58964355  0.00129693  1
  H  H147  1  0.84164032  0.08090906  0.00565274  1
  H  H148  1  0.91836304  0.75291842  0.99549145  1
  H  H149  1  0.67890585  0.41858460  0.50494208  1
  H  H150  1  0.05262939  0.24562462  -0.00563118  1
  H  H151  1  0.03833726  0.41244518  0.49260406  1
  H  H152  1  0.65192525  0.74749415  0.49564551  1
  H  H153  1  0.91115197  0.74956343  0.50869896  1
  H  H154  1  0.46207820  0.42132844  0.49379066  1
  H  H155  1  0.33163880  0.91740835  0.50478184  1
  H  H156  1  0.53961481  0.74921481  1.00875243  1
  H  H157  1  0.20021802  0.58139380  1.00519266  1
  H  H158  1  0.57256177  0.91633651  -0.00011510  1
  H  H159  1  0.03411261  0.91603378  0.50732479  1
  H  H160  1  0.92179180  0.59092241  0.00158551  1
  H  H161  1  0.96124003  0.58995616  0.50651141  1
  H  H162  1  0.14387395  0.24692102  0.50525811  1
  H  H163  1  0.33211894  0.42172102  0.49750500  1
  H  H164  1  0.81347518  0.91450933  0.49513470  1
  H  H165  1  0.91099819  0.08099093  0.50610341  1
  H  H166  1  0.67899675  0.08055376  -0.00365048  1
  H  H167  1  0.46922474  0.91717682  0.51025063  1
  H  H168  1  0.08166758  0.41704750  0.99778112  1
  H  H169  1  0.78858345  0.58152882  0.49500014  1
  H  H170  1  0.65947733  0.91856357  0.50369244  1
  H  H171  1  0.58789936  0.24825660  0.49515547  1
  H  H172  1  0.79143099  0.25063722  0.49393231  1
  H  H173  1  0.34960231  0.75000567  0.00703785  1
  H  H174  1  0.95443915  0.24654537  0.50499885  1
  H  H175  1  0.10856327  0.58383977  0.48806527  1
  H  H176  1  0.19103475  0.24471999  1.00595633  1
  H  H177  1  0.88341883  0.41464512  0.51574534  1
  H  H178  1  0.42982579  0.24563735  0.50114019  1
  H  H179  1  0.60478682  0.58713218  0.49258720  1
  H  H180  1  0.71180757  0.75013460  -0.00514836  1
  H  H181  1  0.54737836  0.25393732  -0.00549283  1
  H  H182  1  0.41952860  0.58260233  0.00003022  1
  H  H183  1  0.30288661  0.74382205  0.50144493  1
  H  H184  1  0.70470153  0.25451457  1.00507148  1
  H  H185  1  0.32908925  0.08681529  0.49877037  1
  H  H186  1  0.34557940  0.91565566  0.98984284  1
  H  H187  1  0.92109480  0.41770928  0.99485285  1
  H  H188  1  0.17201603  0.42171584  0.49800073  1
  H  H189  1  0.79705921  0.57835046  1.00565045  1
  H  H190  1  0.46702196  0.74839570  0.48755318  1
  H  H191  1  0.33776118  0.41564181  0.00133349  1
  Pb  Pb192  1  0.24488772  0.04922298  0.75228401  1
  Pb  Pb193  1  0.24941853  0.38176314  0.73967237  1
  Pb  Pb194  1  0.24865694  0.71226920  0.73773432  1
  Pb  Pb195  1  0.74856851  0.04621324  0.75058900  1
  Pb  Pb196  1  0.74735881  0.37996138  0.75556145  1
  Pb  Pb197  1  0.74663861  0.71811027  0.75697820  1
  Pb  Pb198  1  0.25220968  0.28682826  0.24759282  1
  Pb  Pb199  1  0.25174966  0.62102233  0.25188860  1
  Pb  Pb200  1  0.25143767  0.95341541  0.25986985  1
  Pb  Pb201  1  0.74632634  0.28392027  0.25178823  1
  Pb  Pb202  1  0.75457897  0.62058186  0.25296273  1
  Pb  Pb203  1  0.75089656  0.95412452  0.25023227  1
  Pb  Pb204  1  -0.00215696  0.21310723  0.74967467  1
  Pb  Pb205  1  -0.00516137  0.54981600  0.75213939  1
  Pb  Pb206  1  0.00238263  0.88186967  0.75074234  1
  Pb  Pb207  1  0.49824704  0.21401634  0.75148969  1
  Pb  Pb208  1  0.49783662  0.54631622  0.74544238  1
  Pb  Pb209  1  0.49406478  0.88155112  0.74799552  1
  Pb  Pb210  1  0.00197908  0.11981375  0.25198987  1
  Pb  Pb211  1  0.00090397  0.45142181  0.25003957  1
  Pb  Pb212  1  0.00135519  0.78856239  0.25243255  1
  Pb  Pb213  1  0.49999364  0.11921264  0.25073287  1
  Pb  Pb214  1  0.50179729  0.45414621  0.25365239  1
  Pb  Pb215  1  0.50239078  0.78659259  0.24910146  1
  C  C216  1  -0.00221858  0.04817157  0.63048299  1
  C  C217  1  0.00281101  0.37912857  0.63159473  1
  C  C218  1  0.00641164  0.71361647  0.62883110  1
  C  C219  1  0.50053395  0.04708794  0.63523958  1
  C  C220  1  0.49736910  0.37844248  0.63042041  1
  C  C221  1  0.50418270  0.71227589  0.63108008  1
  C  C222  1  -0.00515252  0.28700815  0.13208962  1
  C  C223  1  0.00253700  0.62097429  0.13558870  1
  C  C224  1  0.00047618  0.95415445  0.12680778  1
  C  C225  1  0.49593504  0.28965401  0.12946808  1
  C  C226  1  0.50215455  0.61992088  0.13158228  1
  C  C227  1  0.49995566  0.95433351  0.12821919  1
  C  C228  1  0.00077364  0.04469557  0.87148924  1
  C  C229  1  -0.00284307  0.37938711  0.86738882  1
  C  C230  1  -0.00638843  0.71424875  0.86864480  1
  C  C231  1  0.49670745  0.04578448  0.86822069  1
  C  C232  1  0.49953739  0.37924702  0.87144070  1
  C  C233  1  0.49589395  0.71231987  0.86635722  1
  C  C234  1  0.00102777  0.28675090  0.36550118  1
  C  C235  1  0.00791778  0.62145689  0.37047680  1
  C  C236  1  0.00438206  0.95491694  0.36885612  1
  C  C237  1  0.50636958  0.28626816  0.36913519  1
  C  C238  1  0.50034961  0.62056501  0.36926474  1
  C  C239  1  0.49890143  0.95486954  0.37082489  1
  C  C240  1  0.24454896  0.21321033  0.62984527  1
  C  C241  1  0.24656748  0.54770527  0.63100104  1
  C  C242  1  0.24859491  0.87794012  0.63480698  1
  C  C243  1  0.74318786  0.21205829  0.63333132  1
  C  C244  1  0.74962645  0.54471464  0.63286687  1
  C  C245  1  0.75101463  0.88024696  0.62695213  1
  C  C246  1  0.25185367  0.11941331  0.12976419  1
  C  C247  1  0.25405537  0.45524145  0.13308367  1
  C  C248  1  0.25314905  0.78897259  0.13259703  1
  C  C249  1  0.75274269  0.11840640  0.13029038  1
  C  C250  1  0.74810818  0.45451027  0.13269854  1
  C  C251  1  0.75216811  0.78930871  0.13152836  1
  C  C252  1  0.25687064  0.21179288  0.86748121  1
  C  C253  1  0.24606926  0.54479719  0.86452287  1
  C  C254  1  0.24829281  0.87944012  0.87074211  1
  C  C255  1  0.75480866  0.21303188  0.86681940  1
  C  C256  1  0.75079900  0.54442650  0.86935311  1
  C  C257  1  0.75088164  0.88051695  0.87007613  1
  C  C258  1  0.25124204  0.12101920  0.36692867  1
  C  C259  1  0.25125112  0.45539169  0.36451647  1
  C  C260  1  0.24871007  0.78633515  0.36845442  1
  C  C261  1  0.74975454  0.11912733  0.36929312  1
  C  C262  1  0.74973791  0.45334772  0.36852256  1
  C  C263  1  0.74530185  0.78613337  0.37099207  1
  C  C264  1  0.77788217  0.75461982  0.46549708  1
  C  C265  1  0.71756150  0.09068387  0.03622238  1
  C  C266  1  0.76156299  0.23910191  0.53725504  1
  C  C267  1  0.04308585  0.59812400  0.04094542  1
  C  C268  1  0.22843856  0.57141168  0.96084504  1
  C  C269  1  0.57368735  0.73463267  0.54696873  1
  C  C270  1  0.28951634  0.09570166  0.45975645  1
  C  C271  1  0.51964419  0.40572751  0.96741499  1
  C  C272  1  0.19366849  0.75608075  0.45677388  1
  C  C273  1  0.71848919  0.42795550  0.46525685  1
  C  C274  1  0.47675042  0.59467762  0.46612438  1
  C  C275  1  0.46769441  0.25695683  0.46169667  1
  C  C276  1  0.73493021  0.24174539  0.96224030  1
  C  C277  1  0.19034977  0.23835616  0.53978133  1
  C  C278  1  0.54185447  0.59436734  0.03782819  1
  C  C279  1  0.27120762  0.24117353  0.53417241  1
  C  C280  1  0.77022000  0.91092640  0.96522191  1
  C  C281  1  0.55763944  0.59614587  0.45863169  1
  C  C282  1  0.43084012  0.73551658  0.95196138  1
  C  C283  1  0.43932878  0.40260365  0.95862560  1
  C  C284  1  0.21201637  0.42774622  0.04039195  1
  C  C285  1  0.79992764  0.42846863  0.45976565  1
  C  C286  1  0.94338159  0.07019555  0.95903548  1
  C  C287  1  0.22611860  0.23495935  0.96459493  1
  C  C288  1  0.54522088  0.07542245  0.95723751  1
  C  C289  1  0.49435592  0.73762778  0.53208025  1
  C  C290  1  0.02148550  0.25770506  0.03689251  1
  C  C291  1  0.04000571  0.40666276  0.95973954  1
  C  C292  1  0.03394562  0.74630568  0.53369361  1
  C  C293  1  0.72952499  0.08820582  0.46436474  1
  C  C294  1  0.56482787  0.40843509  0.54706971  1
  C  C295  1  0.29363452  0.42729921  0.03892104  1
  C  C296  1  0.46042399  0.59360064  0.03768792  1
  C  C297  1  0.51053558  0.73834436  0.96505125  1
  C  C298  1  0.95892347  0.92754471  0.03549864  1
  C  C299  1  0.96098349  0.59839429  0.04112995  1
  C  C300  1  0.30194717  0.76044922  0.04342145  1
  C  C301  1  0.93555082  0.40613583  0.54824153  1
  C  C302  1  0.56954875  0.93060019  0.45412076  1
  C  C303  1  0.03911450  0.92807878  0.03467582  1
  C  C304  1  0.45403119  0.92598414  0.03611381  1
  C  C305  1  0.21074683  0.43113441  0.45869356  1
  C  C306  1  0.98338364  0.25848551  0.46134307  1
  C  C307  1  0.30729424  0.23376377  0.95896543  1
  C  C308  1  0.29286488  0.43157191  0.45857105  1
  C  C309  1  0.28479289  0.09266436  0.03607725  1
  C  C310  1  0.29269156  0.90711861  0.54380436  1
  C  C311  1  0.26926647  0.57535338  0.53516060  1
  N  N312  1  0.48711718  0.41129348  0.53604901  1
  N  N313  1  0.30025252  0.90784377  0.95711090  1
  N  N314  1  0.69303914  0.90807912  0.95881266  1
  N  N315  1  0.19216379  0.57308821  0.54075029  1
  N  N316  1  0.95634483  0.74150248  0.95963708  1
  N  N317  1  0.51914058  0.26010020  0.03639575  1
  N  N318  1  0.70292611  0.90217707  0.53638471  1
  N  N319  1  0.45500754  0.07319982  0.54328044  1
  N  N320  1  0.54732254  0.25658092  0.45969529  1
  N  N321  1  0.46805339  0.07765076  0.96337766  1
  N  N322  1  0.44162935  0.26149322  0.04110371  1
  N  N323  1  0.77085953  0.57476057  0.96271255  1
  N  N324  1  0.01280481  0.92263164  0.46261457  1
  N  N325  1  0.69331690  0.57220488  0.95663446  1
  N  N326  1  0.22269477  0.90972981  0.96608723  1
  N  N327  1  0.21296279  0.90802844  0.54301598  1
  N  N328  1  0.22323502  0.75946535  0.03691929  1
  N  N329  1  0.01985584  0.07446792  0.96895354  1
  N  N330  1  0.30670852  0.56978812  0.95229897  1
  N  N331  1  0.81455738  0.76286821  0.04577647  1
  N  N332  1  0.96021274  0.40750534  0.95959305  1
  N  N333  1  0.68296132  0.23716489  0.54532550  1
  N  N334  1  0.06152175  0.26072904  0.45249125  1
  N  N335  1  0.53142999  0.07362984  0.53991220  1
  N  N336  1  0.95253256  0.07213237  0.54059864  1
  N  N337  1  0.01373079  0.40982626  0.53624112  1
  N  N338  1  0.69888541  0.75656704  0.46052649  1
  N  N339  1  0.80047433  0.42802137  0.04305806  1
  N  N340  1  0.93619469  0.92612594  0.45114841  1
  N  N341  1  0.73726096  0.75781728  0.03801665  1
  N  N342  1  0.03058052  0.07357516  0.53506207  1
  N  N343  1  0.27229323  0.75559731  0.46201838  1
  N  N344  1  0.81351153  0.23862873  0.95502731  1
  N  N345  1  0.76459966  0.57588076  0.53911764  1
  N  N346  1  0.79731969  0.09000356  0.03991549  1
  N  N347  1  0.80658275  0.09138553  0.45812874  1
  N  N348  1  0.94254064  0.25924767  0.04436904  1
  N  N349  1  0.72422286  0.42674297  0.03658179  1
  N  N350  1  0.98651574  0.58710046  0.46274051  1
  N  N351  1  0.95543501  0.74282255  0.54110443  1
  N  N352  1  0.20757953  0.09266009  0.03668411  1
  N  N353  1  0.06382891  0.60005934  0.45797372  1
  N  N354  1  0.53347776  0.92463608  0.03573274  1
  N  N355  1  0.49241509  0.92522878  0.46670258  1
  N  N356  1  0.68779411  0.57173725  0.54762671  1
  N  N357  1  0.03444197  0.74114815  0.96189807  1
  N  N358  1  0.78045237  0.91462148  0.53559798  1
  N  N359  1  0.21022442  0.09421613  0.46089865  1
  N  N360  1  0.05831870  0.05908681  0.59150966  1
  N  N361  1  0.05529434  0.38957747  0.58678179  1
  N  N362  1  0.06569586  0.72831300  0.58803141  1
  N  N363  1  0.56098148  0.05752402  0.59663050  1
  N  N364  1  0.57103987  0.38901084  0.60583144  1
  N  N365  1  0.57891168  0.71965986  0.60724746  1
  N  N366  1  0.42769882  0.27860155  0.09938542  1
  N  N367  1  0.43686221  0.60972556  0.09728593  1
  N  N368  1  0.43332194  0.94360902  0.09380809  1
  N  N369  1  0.92626089  0.27841664  0.10260746  1
  N  N370  1  0.93714526  0.61238770  0.10042486  1
  N  N371  1  0.93442696  0.94329308  0.09182385  1
  N  N372  1  0.43750206  0.05894821  0.90665989  1
  N  N373  1  0.42761377  0.38653148  0.89949639  1
  N  N374  1  0.42223311  0.72018216  0.89226322  1
  N  N375  1  0.92940104  0.05267834  0.89936767  1
  N  N376  1  0.93397064  0.39104069  0.90245311  1
  N  N377  1  0.92989272  0.72520298  0.90341271  1
  N  N378  1  0.07118702  0.27797072  0.39271794  1
  N  N379  1  0.07765257  0.61147919  0.39816458  1
  N  N380  1  0.05587502  0.94249240  0.41373603  1
  N  N381  1  0.57095168  0.27573182  0.40304178  1
  N  N382  1  0.57097859  0.61230071  0.39731353  1
  N  N383  1  0.57351776  0.94720834  0.39429636  1
  N  N384  1  0.30395021  0.22603559  0.58854322  1
  N  N385  1  0.30475928  0.55986867  0.58922893  1
  N  N386  1  0.31500508  0.88989235  0.60108916  1
  N  N387  1  0.79976802  0.22391761  0.59084799  1
  N  N388  1  0.80391255  0.55607927  0.58955188  1
  N  N389  1  0.81114701  0.89262100  0.58873613  1
  N  N390  1  0.18666977  0.10951593  0.09633369  1
  N  N391  1  0.18836412  0.44429503  0.09745827  1
  N  N392  1  0.19434362  0.77777119  0.09292022  1
  N  N393  1  0.68970643  0.10793787  0.09249204  1
  N  N394  1  0.69061034  0.44340605  0.09171894  1
  N  N395  1  0.69784618  0.77647634  0.08891055  1
  N  N396  1  0.19563255  0.22107613  0.90629055  1
  N  N397  1  0.18948351  0.55643944  0.90718203  1
  N  N398  1  0.19069297  0.89251104  0.91160294  1
  N  N399  1  0.69757305  0.22581928  0.90855166  1
  N  N400  1  0.68139255  0.55516991  0.89801093  1
  N  N401  1  0.68118670  0.88882946  0.89794032  1
  N  N402  1  0.31631274  0.11141025  0.40218592  1
  N  N403  1  0.31663666  0.44669315  0.39982306  1
  N  N404  1  0.30738197  0.77486613  0.40809120  1
  N  N405  1  0.81918711  0.11078452  0.39748206  1
  N  N406  1  0.81827392  0.44340909  0.40107593  1
  N  N407  1  0.80676838  0.77262442  0.40994695  1
  N  N408  1  0.44199843  0.27498315  0.40535697  1
  N  N409  1  0.44239767  0.60947091  0.41228897  1
  N  N410  1  0.44767754  0.94319103  0.41599973  1
  N  N411  1  0.94471334  0.27468350  0.40831416  1
  N  N412  1  0.95108853  0.61034377  0.41194755  1
  N  N413  1  0.93193456  0.94458743  0.39231672  1
  N  N414  1  0.05592443  0.05772422  0.91334280  1
  N  N415  1  0.06295022  0.38942763  0.90239362  1
  N  N416  1  0.05714645  0.72427671  0.90484170  1
  N  N417  1  0.56531989  0.05634793  0.89960308  1
  N  N418  1  0.55632303  0.39153665  0.91436963  1
  N  N419  1  0.55036981  0.72355011  0.91015651  1
  N  N420  1  0.05440259  0.27478122  0.09136508  1
  N  N421  1  0.06748111  0.61193220  0.09994385  1
  N  N422  1  0.06545703  0.94420042  0.09026579  1
  N  N423  1  0.55414798  0.27934666  0.08905934  1
  N  N424  1  0.56690377  0.61008314  0.09445126  1
  N  N425  1  0.56209742  0.94278306  0.09236504  1
  N  N426  1  0.43460313  0.05709549  0.60245803  1
  N  N427  1  0.44445171  0.39043938  0.58648012  1
  N  N428  1  0.45170259  0.72340814  0.58588749  1
  N  N429  1  0.93126473  0.05670921  0.59828561  1
  N  N430  1  0.92928335  0.38906953  0.60783784  1
  N  N431  1  0.93777417  0.72225447  0.59955240  1
  N  N432  1  0.18822753  0.11008321  0.40282496  1
  N  N433  1  0.18625313  0.44589576  0.39993805  1
  N  N434  1  0.17878238  0.77502157  0.39880016  1
  N  N435  1  0.69240587  0.10492774  0.41122700  1
  N  N436  1  0.68855021  0.44358237  0.40680951  1
  N  N437  1  0.67865702  0.77589990  0.40230086  1
  N  N438  1  0.32547663  0.22028354  0.90030058  1
  N  N439  1  0.31593836  0.55320237  0.89239265  1
  N  N440  1  0.31695932  0.88910022  0.89972265  1
  N  N441  1  0.82431789  0.22084932  0.89536530  1
  N  N442  1  0.80776163  0.55537971  0.91061128  1
  N  N443  1  0.80802192  0.89437904  0.91230736  1
  N  N444  1  0.31502016  0.10872873  0.09202489  1
  N  N445  1  0.31834654  0.44470599  0.09791393  1
  N  N446  1  0.32169530  0.77783920  0.10215020  1
  N  N447  1  0.81835496  0.10712469  0.09793657  1
  N  N448  1  0.81638280  0.44480641  0.10288405  1
  N  N449  1  0.82306838  0.78049635  0.10469201  1
  N  N450  1  0.17492727  0.22117243  0.60032553  1
  N  N451  1  0.17764211  0.55602007  0.60186436  1
  N  N452  1  0.18592350  0.88637440  0.59812018  1
  N  N453  1  0.67325982  0.22025955  0.60551896  1
  N  N454  1  0.67882209  0.55500519  0.60645153  1
  N  N455  1  0.68404410  0.88976649  0.59537631  1
  Cl  Cl456  1  0.24834646  0.05383913  0.61661721  1
  Cl  Cl457  1  0.25050684  0.39353327  0.60380868  1
  Cl  Cl458  1  0.26173500  0.72368074  0.60031178  1
  Cl  Cl459  1  0.74724783  0.05200208  0.61709612  1
  Cl  Cl460  1  0.75035646  0.38510953  0.62248840  1
  Cl  Cl461  1  0.75884073  0.72012406  0.62376902  1
  Cl  Cl462  1  0.23951786  0.27956756  0.11310929  1
  Cl  Cl463  1  0.25025187  0.61062858  0.11905259  1
  Cl  Cl464  1  0.25256159  0.94893569  0.12760574  1
  Cl  Cl465  1  0.73799313  0.27453877  0.11372487  1
  Cl  Cl466  1  0.75357272  0.61108816  0.11523916  1
  Cl  Cl467  1  0.74603989  0.94752031  0.11885949  1
  Cl  Cl468  1  0.24816134  0.05584472  0.88481490  1
  Cl  Cl469  1  0.24373720  0.38463966  0.87067626  1
  Cl  Cl470  1  0.23801243  0.71808371  0.86896043  1
  Cl  Cl471  1  0.74786249  0.05297835  0.88577408  1
  Cl  Cl472  1  0.74802944  0.38611701  0.88598893  1
  Cl  Cl473  1  0.74071319  0.72654073  0.89782494  1
  Cl  Cl474  1  0.25886102  0.28113939  0.37878569  1
  Cl  Cl475  1  0.25849989  0.61640668  0.38640834  1
  Cl  Cl476  1  0.24665738  0.93525951  0.40316211  1
  Cl  Cl477  1  0.75895547  0.27553271  0.38767026  1
  Cl  Cl478  1  0.77070466  0.60577733  0.39733243  1
  Cl  Cl479  1  0.75194150  0.94213736  0.38736269  1
  Cl  Cl480  1  -0.01614084  0.22206776  0.61462884  1
  Cl  Cl481  1  -0.01351358  0.56504831  0.60411306  1
  Cl  Cl482  1  0.00132012  0.89378210  0.60353923  1
  Cl  Cl483  1  0.48602078  0.22667136  0.61621005  1
  Cl  Cl484  1  0.49056312  0.55133745  0.61274110  1
  Cl  Cl485  1  0.49809223  0.88982878  0.60767693  1
  Cl  Cl486  1  0.00125731  0.11518451  0.12051765  1
  Cl  Cl487  1  0.00077894  0.44339024  0.11581817  1
  Cl  Cl488  1  0.00741628  0.78235779  0.11929409  1
  Cl  Cl489  1  0.50480608  0.11391698  0.11876823  1
  Cl  Cl490  1  0.50701313  0.44684870  0.12182586  1
  Cl  Cl491  1  0.51402641  0.77928039  0.11441201  1
  Cl  Cl492  1  0.00955591  0.22349200  0.88464428  1
  Cl  Cl493  1  -0.00345829  0.55698623  0.88807401  1
  Cl  Cl494  1  0.00070381  0.88881017  0.88245306  1
  Cl  Cl495  1  0.51431170  0.22606451  0.88935553  1
  Cl  Cl496  1  0.49933903  0.54992404  0.87752303  1
  Cl  Cl497  1  0.49833118  0.88825562  0.88155606  1
  Cl  Cl498  1  0.00251189  0.11413209  0.38457694  1
  Cl  Cl499  1  0.00330119  0.44244465  0.38858342  1
  Cl  Cl500  1  -0.00870263  0.77636540  0.38843888  1
  Cl  Cl501  1  0.50420618  0.11396866  0.38305353  1
  Cl  Cl502  1  0.49969165  0.44314603  0.39123008  1
  Cl  Cl503  1  0.49193089  0.78054410  0.38469976  1
  Cl  Cl504  1  0.36193603  0.14668926  0.74975968  1
  Cl  Cl505  1  0.35727289  0.48153672  0.75147998  1
  Cl  Cl506  1  0.36033927  0.81254508  0.75543293  1
  Cl  Cl507  1  0.85792578  0.14762085  0.75409642  1
  Cl  Cl508  1  0.86203578  0.47887510  0.74747957  1
  Cl  Cl509  1  0.85701337  0.81336494  0.74934186  1
  Cl  Cl510  1  0.13934371  0.18729453  0.25285184  1
  Cl  Cl511  1  0.13691294  0.52201767  0.24972209  1
  Cl  Cl512  1  0.14297544  0.85071797  0.25601976  1
  Cl  Cl513  1  0.64479978  0.18620034  0.25195005  1
  Cl  Cl514  1  0.64337368  0.51987564  0.25386768  1
  Cl  Cl515  1  0.63954309  0.85322759  0.25776599  1
  Cl  Cl516  1  0.13856654  0.14748719  0.74389686  1
  Cl  Cl517  1  0.13306093  0.48025534  0.74044854  1
  Cl  Cl518  1  0.13889095  0.81501345  0.74356404  1
  Cl  Cl519  1  0.63563616  0.14628707  0.74647968  1
  Cl  Cl520  1  0.63841781  0.48129171  0.74748415  1
  Cl  Cl521  1  0.64073237  0.81119388  0.74591267  1
  Cl  Cl522  1  0.36225699  0.18555748  0.24746212  1
  Cl  Cl523  1  0.35983472  0.51785016  0.25185189  1
  Cl  Cl524  1  0.36267375  0.85198728  0.24862924  1
  Cl  Cl525  1  0.86419941  0.18669876  0.24764032  1
  Cl  Cl526  1  0.86536075  0.51981629  0.25012955  1
  Cl  Cl527  1  0.85854900  0.85107855  0.25093617  1
  Cl  Cl528  1  0.10443170  0.31490137  0.74763128  1
  Cl  Cl529  1  0.10884394  0.64752017  0.74470180  1
  Cl  Cl530  1  0.10639057  0.98099581  0.74508751  1
  Cl  Cl531  1  0.61190656  0.31298901  0.74228746  1
  Cl  Cl532  1  0.61216886  0.64547374  0.74379941  1
  Cl  Cl533  1  0.61318607  0.97693850  0.75493941  1
  Cl  Cl534  1  0.39161937  0.01775670  0.25268094  1
  Cl  Cl535  1  0.39138212  0.35277063  0.24832729  1
  Cl  Cl536  1  0.39367534  0.68400197  0.24993446  1
  Cl  Cl537  1  0.88922247  0.01928302  0.25490828  1
  Cl  Cl538  1  0.89495745  0.35304146  0.24794974  1
  Cl  Cl539  1  0.89147419  0.68606189  0.24878884  1
  Cl  Cl540  1  0.38873536  0.31608716  0.75469562  1
  Cl  Cl541  1  0.38738329  0.64721338  0.75349758  1
  Cl  Cl542  1  0.39150682  0.97724449  0.74757664  1
  Cl  Cl543  1  0.88441645  0.31269916  0.75150228  1
  Cl  Cl544  1  0.89086268  0.64619375  0.74820425  1
  Cl  Cl545  1  0.88486272  0.97888731  0.74575766  1
  Cl  Cl546  1  0.11176702  0.01807018  0.25044859  1
  Cl  Cl547  1  0.11521661  0.35368545  0.25407476  1
  Cl  Cl548  1  0.11168662  0.68667198  0.25797393  1
  Cl  Cl549  1  0.61255762  0.01884185  0.25456589  1
  Cl  Cl550  1  0.61049590  0.35102049  0.25529503  1
  Cl  Cl551  1  0.61538610  0.68572128  0.25735747  1
