# generated using pymatgen
data_H8PbC4(N3Cl2)2
_symmetry_space_group_name_H-M   'P 1'
_cell_length_a   16.63427197
_cell_length_b   22.53956104
_cell_length_c   21.60637775
_cell_angle_alpha   90.00477797
_cell_angle_beta   89.99277634
_cell_angle_gamma   90.01246365
_symmetry_Int_Tables_number   1
_chemical_formula_structural   H8PbC4(N3Cl2)2
_chemical_formula_sum   'H192 Pb24 C96 N144 Cl96'
_cell_volume   8100.86139212
_cell_formula_units_Z   24
loop_
 _symmetry_equiv_pos_site_id
 _symmetry_equiv_pos_as_xyz
  1  'x, y, z'
loop_
 _atom_site_type_symbol
 _atom_site_label
 _atom_site_symmetry_multiplicity
 _atom_site_fract_x
 _atom_site_fract_y
 _atom_site_fract_z
 _atom_site_occupancy
  H  H0  1  -0.01787782  0.02387608  0.67984503  1
  H  H1  1  0.00984847  0.36403461  0.67858502  1
  H  H2  1  -0.00587740  0.69697629  0.68133028  1
  H  H3  1  0.52033119  0.03390852  0.67435392  1
  H  H4  1  0.49558395  0.36282679  0.68208035  1
  H  H5  1  0.51463339  0.69445120  0.67383765  1
  H  H6  1  0.00476872  0.30311825  0.17932423  1
  H  H7  1  0.01308657  0.64214452  0.17610454  1
  H  H8  1  -0.01755522  0.97657558  0.17215696  1
  H  H9  1  0.50586597  0.30670666  0.17721250  1
  H  H10  1  0.48503335  0.64062191  0.17355394  1
  H  H11  1  0.48784091  0.96933215  0.16142070  1
  H  H12  1  -0.00014584  0.02563432  0.82520873  1
  H  H13  1  -0.01950690  0.35979614  0.82645097  1
  H  H14  1  0.00560425  0.69753993  0.82844736  1
  H  H15  1  0.50681745  0.02281064  0.82176428  1
  H  H16  1  0.52454310  0.36723260  0.82413291  1
  H  H17  1  0.52781351  0.69644697  0.84058488  1
  H  H18  1  -0.00282660  0.30496506  0.31908709  1
  H  H19  1  0.01524986  0.63533455  0.32171890  1
  H  H20  1  -0.03026300  0.96776920  0.32519775  1
  H  H21  1  0.49815297  0.30896612  0.32738315  1
  H  H22  1  0.50083002  0.63632054  0.32012712  1
  H  H23  1  0.51591789  0.98148326  0.32623269  1
  H  H24  1  0.24994129  0.19392274  0.67970836  1
  H  H25  1  0.25315340  0.53095045  0.68673827  1
  H  H26  1  0.26265445  0.85760444  0.67754108  1
  H  H27  1  0.74931037  0.19233617  0.67792882  1
  H  H28  1  0.74867398  0.52343491  0.68129746  1
  H  H29  1  0.74025793  0.86332872  0.67659096  1
  H  H30  1  0.25729888  0.14212988  0.17507498  1
  H  H31  1  0.25322479  0.46985347  0.16986827  1
  H  H32  1  0.23809944  0.80089008  0.18096402  1
  H  H33  1  0.73497643  0.13600553  0.18200805  1
  H  H34  1  0.75140445  0.47322064  0.17941727  1
  H  H35  1  0.73277556  0.80450552  0.14996594  1
  H  H36  1  0.24728037  0.19222279  0.82203159  1
  H  H37  1  0.26785830  0.52441001  0.82470759  1
  H  H38  1  0.26207925  0.86843196  0.85366916  1
  H  H39  1  0.75663492  0.19599499  0.82083129  1
  H  H40  1  0.74489553  0.52548233  0.82498788  1
  H  H41  1  0.75276347  0.85922571  0.81788331  1
  H  H42  1  0.23957590  0.13673306  0.31906000  1
  H  H43  1  0.25336730  0.47776724  0.32161524  1
  H  H44  1  0.23050964  0.80358669  0.32578592  1
  H  H45  1  0.75259331  0.13704308  0.32124103  1
  H  H46  1  0.75747163  0.47461744  0.31871201  1
  H  H47  1  0.76914617  0.80043368  0.31604064  1
  H  H48  1  0.12438381  0.04729808  0.63057095  1
  H  H49  1  0.13979078  0.38641869  0.61371894  1
  H  H50  1  0.13129251  0.71851932  0.62349031  1
  H  H51  1  0.62665443  0.06179807  0.59199065  1
  H  H52  1  0.63389007  0.38112046  0.62859165  1
  H  H53  1  0.62518531  0.72621664  0.59532947  1
  H  H54  1  0.38764089  0.27746065  0.10479989  1
  H  H55  1  0.39082587  0.60280423  0.08622199  1
  H  H56  1  0.35113022  0.95325418  0.10943482  1
  H  H57  1  0.89269019  0.27428596  0.09998570  1
  H  H58  1  0.87757656  0.62587166  0.11816258  1
  H  H59  1  0.85421521  0.94136160  0.11058028  1
  H  H60  1  0.36914301  0.04593125  0.87853375  1
  H  H61  1  0.38000761  0.38535850  0.87057693  1
  H  H62  1  0.41607919  0.72972753  0.91652593  1
  H  H63  1  0.87482069  0.05328688  0.88991744  1
  H  H64  1  0.88619881  0.39476858  0.91541889  1
  H  H65  1  0.89326775  0.72315430  0.90602630  1
  H  H66  1  0.13409313  0.28252588  0.37688247  1
  H  H67  1  0.12019877  0.60811532  0.40385859  1
  H  H68  1  0.11064021  0.95053105  0.37216514  1
  H  H69  1  0.63479803  0.27723724  0.37991655  1
  H  H70  1  0.61748255  0.61041206  0.39747485  1
  H  H71  1  0.61080636  0.94443325  0.41412234  1
  H  H72  1  0.36236203  0.22087639  0.60119767  1
  H  H73  1  0.38134767  0.55525154  0.61788417  1
  H  H74  1  0.38224596  0.88826973  0.60513243  1
  H  H75  1  0.86298244  0.22250841  0.60079182  1
  H  H76  1  0.88062980  0.54898478  0.61756292  1
  H  H77  1  0.88356128  0.88374892  0.62719630  1
  H  H78  1  0.12783472  0.11216039  0.11127711  1
  H  H79  1  0.12697221  0.44306897  0.10271930  1
  H  H80  1  0.10028964  0.78462967  0.12362347  1
  H  H81  1  0.63282842  0.10500322  0.09676546  1
  H  H82  1  0.62561737  0.44618620  0.11028971  1
  H  H83  1  0.59344345  0.78476188  0.10093975  1
  H  H84  1  0.11244453  0.21510400  0.88311575  1
  H  H85  1  0.12392517  0.54710949  0.87154143  1
  H  H86  1  0.16194285  0.90120936  0.93710810  1
  H  H87  1  0.61933496  0.21830099  0.87852579  1
  H  H88  1  0.62196350  0.55621046  0.89440169  1
  H  H89  1  0.64227387  0.88919003  0.89657082  1
  H  H90  1  0.36617849  0.11231923  0.38876401  1
  H  H91  1  0.36019330  0.44400573  0.40124906  1
  H  H92  1  0.37044452  0.78373639  0.38202724  1
  H  H93  1  0.86290102  0.11038071  0.40011809  1
  H  H94  1  0.87016784  0.44477948  0.39600703  1
  H  H95  1  0.87222706  0.77483821  0.40240175  1
  H  H96  1  0.39021002  0.27556892  0.40867974  1
  H  H97  1  0.36858746  0.61304395  0.38104963  1
  H  H98  1  0.37084265  0.95682882  0.36664569  1
  H  H99  1  0.88752448  0.27739478  0.39962353  1
  H  H100  1  0.87537303  0.61848748  0.37330181  1
  H  H101  1  0.86820612  0.94035914  0.41200505  1
  H  H102  1  0.12321589  0.04627704  0.89590532  1
  H  H103  1  0.12547263  0.37885991  0.86866803  1
  H  H104  1  0.13933389  0.72061785  0.88407942  1
  H  H105  1  0.61504728  0.05679482  0.90309640  1
  H  H106  1  0.62065246  0.39552506  0.91349368  1
  H  H107  1  0.66463671  0.71731509  0.89735623  1
  H  H108  1  0.14021922  0.28244698  0.11979344  1
  H  H109  1  0.12424505  0.61057493  0.09869731  1
  H  H110  1  0.10025013  0.94902940  0.09967042  1
  H  H111  1  0.63654167  0.27975914  0.11352633  1
  H  H112  1  0.63084051  0.62824022  0.12642349  1
  H  H113  1  0.59390632  0.93501214  0.08271626  1
  H  H114  1  0.38186260  0.04908721  0.62196634  1
  H  H115  1  0.38804512  0.38838867  0.60023222  1
  H  H116  1  0.37795651  0.71938852  0.61828346  1
  H  H117  1  0.88017584  0.05497552  0.59587529  1
  H  H118  1  0.89114386  0.39012975  0.60331011  1
  H  H119  1  0.88447946  0.72463715  0.59973833  1
  H  H120  1  0.11789204  0.10977586  0.39262404  1
  H  H121  1  0.11422530  0.45147429  0.37458840  1
  H  H122  1  0.12565128  0.77145748  0.40993330  1
  H  H123  1  0.61576963  0.11631738  0.37768347  1
  H  H124  1  0.62298125  0.44844470  0.37827056  1
  H  H125  1  0.62795151  0.78687738  0.37048614  1
  H  H126  1  0.35921547  0.22346686  0.90087154  1
  H  H127  1  0.36443952  0.56312727  0.91071416  1
  H  H128  1  0.40468424  0.88732671  0.89859238  1
  H  H129  1  0.86593759  0.22593752  0.90075086  1
  H  H130  1  0.86993779  0.55085201  0.89299424  1
  H  H131  1  0.88862002  0.88094554  0.87730653  1
  H  H132  1  0.37548766  0.11138644  0.09936942  1
  H  H133  1  0.37513961  0.44238635  0.10060916  1
  H  H134  1  0.34806160  0.77794359  0.10054744  1
  H  H135  1  0.87702225  0.11703514  0.12981916  1
  H  H136  1  0.87375329  0.44515699  0.10686215  1
  H  H137  1  0.83694452  0.76718055  0.07100375  1
  H  H138  1  0.11450991  0.21763924  0.62054817  1
  H  H139  1  0.13353064  0.55522902  0.61054379  1
  H  H140  1  0.13406643  0.88435745  0.61222710  1
  H  H141  1  0.61504513  0.21656125  0.61627816  1
  H  H142  1  0.63318865  0.55621080  0.60463260  1
  H  H143  1  0.64101486  0.89650177  0.58903941  1
  H  H144  1  0.72491131  0.92320660  0.49328427  1
  H  H145  1  0.95494032  0.75622462  0.49696798  1
  H  H146  1  0.89937275  0.58898849  0.00727151  1
  H  H147  1  0.28231396  0.74944439  -0.00683071  1
  H  H148  1  0.55723600  0.58257649  0.49989777  1
  H  H149  1  0.29004351  0.41210245  0.50489236  1
  H  H150  1  0.47789423  0.58589041  -0.01008069  1
  H  H151  1  0.91611466  0.08831059  1.00058464  1
  H  H152  1  0.38862612  0.40738594  0.98050160  1
  H  H153  1  0.89405450  0.91070165  0.00351127  1
  H  H154  1  0.53867887  0.08492048  1.00212585  1
  H  H155  1  0.29901089  0.25212697  0.49535304  1
  H  H156  1  0.52916828  0.90552995  -0.02249200  1
  H  H157  1  0.79710623  0.25696051  1.00443714  1
  H  H158  1  0.95558708  0.08242234  0.49301992  1
  H  H159  1  0.40501075  0.74790407  0.50974731  1
  H  H160  1  0.70887034  0.91639768  1.00267664  1
  H  H161  1  0.16858664  0.41264422  -0.00282808  1
  H  H162  1  0.56010605  0.75968581  0.49166503  1
  H  H163  1  0.46664722  0.24253967  0.50591518  1
  H  H164  1  0.40099240  0.58279631  0.49293131  1
  H  H165  1  0.33060936  0.91806588  0.49808721  1
  H  H166  1  0.71046272  0.07712972  -0.00406755  1
  H  H167  1  0.45586179  0.41712047  0.49503814  1
  H  H168  1  0.89012978  0.58795762  0.48705106  1
  H  H169  1  0.06383287  0.58292685  -0.00725697  1
  H  H170  1  0.14432593  0.24683880  0.51287768  1
  H  H171  1  0.44275156  0.24107539  -0.00182561  1
  H  H172  1  0.10089792  0.91633972  0.48683325  1
  H  H173  1  0.61546916  0.41014735  0.51432319  1
  H  H174  1  0.14296452  0.24398511  0.99087309  1
  H  H175  1  0.13430462  0.42358057  0.48460121  1
  H  H176  1  0.59888957  0.25229414  0.00701992  1
  H  H177  1  0.79783366  0.25453511  0.49604669  1
  H  H178  1  0.79739837  0.07903995  0.50683084  1
  H  H179  1  0.27889289  0.58730345  1.00676832  1
  H  H180  1  0.53547831  0.43245364  1.00188711  1
  H  H181  1  0.10794978  0.07367639  0.52099852  1
  H  H182  1  0.95646800  0.24833354  0.50419349  1
  H  H183  1  0.47652738  0.76489301  1.02119442  1
  H  H184  1  0.80512211  0.41247598  0.50094330  1
  H  H185  1  0.62174917  0.58491333  0.02278523  1
  H  H186  1  0.52360502  0.91751802  0.50825286  1
  H  H187  1  0.79470610  0.74696828  0.50371071  1
  H  H188  1  0.97163533  0.41805541  1.01006868  1
  H  H189  1  0.39831346  0.08352238  0.50819100  1
  H  H190  1  0.11569121  0.75431347  1.00112489  1
  H  H191  1  0.04932709  0.58183957  0.50971568  1
  Pb  Pb192  1  0.25228976  0.04887632  0.74819976  1
  Pb  Pb193  1  0.25421316  0.38286126  0.74612148  1
  Pb  Pb194  1  0.26065328  0.71651117  0.76276702  1
  Pb  Pb195  1  0.75171003  0.04906169  0.75092012  1
  Pb  Pb196  1  0.75680661  0.38336739  0.75584677  1
  Pb  Pb197  1  0.76091499  0.71846372  0.74244288  1
  Pb  Pb198  1  0.25500370  0.28609790  0.25487403  1
  Pb  Pb199  1  0.24330566  0.61558777  0.24112425  1
  Pb  Pb200  1  0.24087020  0.94982369  0.24806843  1
  Pb  Pb201  1  0.75268058  0.28445919  0.24870430  1
  Pb  Pb202  1  0.74491921  0.61889880  0.25395226  1
  Pb  Pb203  1  0.73686611  0.94790586  0.24929868  1
  Pb  Pb204  1  -0.00249774  0.21707416  0.74700123  1
  Pb  Pb205  1  0.00304066  0.54910808  0.75129994  1
  Pb  Pb206  1  0.01413107  0.88238013  0.76598957  1
  Pb  Pb207  1  0.50042995  0.21660659  0.75022782  1
  Pb  Pb208  1  0.50777616  0.55456401  0.74905930  1
  Pb  Pb209  1  0.50279694  0.88252310  0.73848432  1
  Pb  Pb210  1  -0.00270183  0.11674745  0.25739438  1
  Pb  Pb211  1  -0.00379103  0.44996037  0.24301990  1
  Pb  Pb212  1  -0.01315245  0.78246450  0.25187737  1
  Pb  Pb213  1  0.49622611  0.11738756  0.23827193  1
  Pb  Pb214  1  0.49680329  0.45159782  0.24983523  1
  Pb  Pb215  1  0.48951304  0.78333215  0.25409258  1
  C  C216  1  -0.00341154  0.04046636  0.63379789  1
  C  C217  1  0.01345327  0.37963024  0.63137130  1
  C  C218  1  0.00341999  0.71240648  0.63435569  1
  C  C219  1  0.50864518  0.04857331  0.62749103  1
  C  C220  1  0.50643880  0.37712153  0.63476152  1
  C  C221  1  0.50535236  0.71232319  0.62763533  1
  C  C222  1  0.01241425  0.28712526  0.13255765  1
  C  C223  1  0.00478233  0.62572002  0.12922261  1
  C  C224  1  -0.02143420  0.95678944  0.12662359  1
  C  C225  1  0.51069800  0.28907529  0.13051030  1
  C  C226  1  0.50255886  0.62409048  0.12813867  1
  C  C227  1  0.47673818  0.95315604  0.11471879  1
  C  C228  1  -0.00121644  0.04250588  0.87211480  1
  C  C229  1  -0.00277981  0.37627204  0.87183309  1
  C  C230  1  0.01350832  0.71430196  0.87510197  1
  C  C231  1  0.49740416  0.04147321  0.86747308  1
  C  C232  1  0.50801883  0.38271549  0.87011972  1
  C  C233  1  0.53648847  0.71424096  0.88689604  1
  C  C234  1  0.00686358  0.28884951  0.36583452  1
  C  C235  1  0.00298083  0.62077667  0.36876902  1
  C  C236  1  -0.01605645  0.95259882  0.37152609  1
  C  C237  1  0.50743014  0.28882619  0.37238307  1
  C  C238  1  0.49586886  0.62094930  0.36768807  1
  C  C239  1  0.49916975  0.96263870  0.37062792  1
  C  C240  1  0.24150713  0.21010899  0.63274533  1
  C  C241  1  0.25617624  0.54594855  0.63902185  1
  C  C242  1  0.25970378  0.87560208  0.63106397  1
  C  C243  1  0.74219887  0.20976201  0.63144140  1
  C  C244  1  0.75409490  0.54156558  0.63496872  1
  C  C245  1  0.75455774  0.88014715  0.63087114  1
  C  C246  1  0.25376147  0.12343676  0.12894851  1
  C  C247  1  0.25117740  0.45201433  0.12327631  1
  C  C248  1  0.22883308  0.78751606  0.13323189  1
  C  C249  1  0.74867807  0.12012190  0.13572832  1
  C  C250  1  0.75027089  0.45574339  0.13271446  1
  C  C251  1  0.72034681  0.78615446  0.10464134  1
  C  C252  1  0.23918187  0.20836290  0.86884990  1
  C  C253  1  0.25231996  0.54321877  0.86930887  1
  C  C254  1  0.27752100  0.88477837  0.89952940  1
  C  C255  1  0.74692796  0.21279518  0.86735355  1
  C  C256  1  0.74509343  0.54273067  0.87158091  1
  C  C257  1  0.76184088  0.87546539  0.86470858  1
  C  C258  1  0.24121356  0.12069201  0.36646422  1
  C  C259  1  0.24171508  0.45990135  0.36759011  1
  C  C260  1  0.24215398  0.78646904  0.37190142  1
  C  C261  1  0.74384196  0.12157047  0.36817681  1
  C  C262  1  0.74986099  0.45686135  0.36506610  1
  C  C263  1  0.75596038  0.78733417  0.36329968  1
  C  C264  1  0.06830671  0.74439188  0.96323546  1
  C  C265  1  0.42558133  0.93010918  0.44910400  1
  C  C266  1  0.56745782  0.40163947  0.54748307  1
  C  C267  1  0.98474611  0.74285225  0.53962931  1
  C  C268  1  0.76593206  0.09159633  0.46463330  1
  C  C269  1  0.26127925  0.42628907  0.46204616  1
  C  C270  1  0.02044240  0.59344795  0.46628520  1
  C  C271  1  0.51040763  0.74913355  0.98122519  1
  C  C272  1  0.05813934  0.40818772  0.54101055  1
  C  C273  1  0.29156134  0.90650808  0.53816070  1
  C  C274  1  0.25097439  0.76152762  0.03590993  1
  C  C275  1  0.95728825  0.07566770  0.96367723  1
  C  C276  1  0.97010283  0.92260027  0.46826105  1
  C  C277  1  0.06380149  0.25834460  0.04447275  1
  C  C278  1  0.68523459  0.09412246  0.45533062  1
  C  C279  1  0.03859988  0.07319671  0.96391001  1
  C  C280  1  0.34669208  0.91205602  0.98521078  1
  C  C281  1  0.65737227  0.75591123  0.01861015  1
  C  C282  1  0.41447581  0.92496493  0.02718307  1
  C  C283  1  0.26458174  0.91606801  0.99652858  1
  C  C284  1  0.73717561  0.09033475  0.03996038  1
  C  C285  1  0.98672648  0.25963265  0.46099153  1
  C  C286  1  0.26768664  0.24043743  0.53791792  1
  C  C287  1  0.94801385  0.59877882  0.04063778  1
  C  C288  1  0.49660643  0.91962796  0.01867728  1
  C  C289  1  0.44754479  0.07477135  0.54025358  1
  C  C290  1  0.74019040  0.74982489  0.00953655  1
  C  C291  1  0.07110716  0.40290980  0.95249226  1
  C  C292  1  0.52902821  0.74589755  0.53357320  1
  C  C293  1  0.76674705  0.24410110  0.96181832  1
  C  C294  1  0.01451889  0.92091817  0.03444202  1
  C  C295  1  0.48644045  0.40487025  0.53767574  1
  C  C296  1  0.76584304  0.24189167  0.53801228  1
  C  C297  1  0.76776394  0.75992953  0.45969768  1
  C  C298  1  0.59307857  0.74359047  0.97508137  1
  C  C299  1  0.47743664  0.25542836  0.03823250  1
  C  C300  1  0.78498767  0.57354595  0.96301580  1
  C  C301  1  0.98200153  0.07072030  0.53751314  1
  C  C302  1  0.98713733  0.74544948  0.96957200  1
  C  C303  1  0.52834259  0.07896873  0.53128391  1
  C  C304  1  0.29086020  0.41950861  0.03090546  1
  C  C305  1  0.02948580  0.59472753  0.03364720  1
  C  C306  1  0.73999155  0.90447982  0.95978669  1
  C  C307  1  0.17024011  0.76561034  0.04470500  1
  C  C308  1  0.44434848  0.59263940  0.45671964  1
  C  C309  1  0.05000259  0.92554773  0.45645782  1
  C  C310  1  0.77339612  0.42488312  0.45876132  1
  C  C311  1  0.93959371  0.59657168  0.45510830  1
  N  N312  1  0.55686431  0.25737875  0.04226413  1
  N  N313  1  0.68980935  0.76410532  0.44940233  1
  N  N314  1  0.52375046  0.59105058  0.46094749  1
  N  N315  1  0.81488291  0.09495251  0.05048084  1
  N  N316  1  0.26626259  0.24041003  0.96305230  1
  N  N317  1  0.06520199  0.26006686  0.45302037  1
  N  N318  1  0.74655667  0.91459642  0.53819468  1
  N  N319  1  0.18210492  0.57380134  0.94960409  1
  N  N320  1  0.70988799  0.42360050  0.04157025  1
  N  N321  1  0.69460696  0.42556865  0.45257403  1
  N  N322  1  0.21148971  0.42049411  0.03269359  1
  N  N323  1  0.30112503  0.75659089  0.45770845  1
  N  N324  1  0.56761397  0.24894447  0.45304241  1
  N  N325  1  0.28230547  0.09313629  0.45903481  1
  N  N326  1  0.28457155  0.09006659  0.03600953  1
  N  N327  1  0.29938461  0.57263189  0.54667631  1
  N  N328  1  0.18879488  0.23624709  0.95599933  1
  N  N329  1  0.50209047  0.92620530  0.46375119  1
  N  N330  1  0.99454595  0.40826643  0.96679548  1
  N  N331  1  0.68716007  0.24026140  0.54334210  1
  N  N332  1  0.57222849  0.60140891  0.04702117  1
  N  N333  1  0.43898322  0.40992245  0.95043955  1
  N  N334  1  0.98059933  0.40923875  0.53614724  1
  N  N335  1  0.49067001  0.24929317  0.46221810  1
  N  N336  1  0.72629896  0.57463184  0.54146669  1
  N  N337  1  0.22587001  0.75232697  0.46674150  1
  N  N338  1  0.43707568  0.07518596  0.95109253  1
  N  N339  1  0.22323225  0.57364733  0.54446734  1
  N  N340  1  0.51432921  0.07798520  0.95850295  1
  N  N341  1  0.25819715  0.57930595  0.96155691  1
  N  N342  1  0.21224559  0.90570808  0.53996468  1
  N  N343  1  0.93601497  0.92035843  0.03891249  1
  N  N344  1  0.98674877  0.25533616  0.03681801  1
  N  N345  1  0.70713716  0.57389060  0.96491985  1
  N  N346  1  0.51534411  0.40393201  0.96801997  1
  N  N347  1  0.18884708  0.24035851  0.54610340  1
  N  N348  1  0.68811265  0.24183423  0.95438224  1
  N  N349  1  0.49694289  0.58542485  0.03621099  1
  N  N350  1  0.78628300  0.42343123  0.04055379  1
  N  N351  1  0.18290260  0.43017412  0.45212011  1
  N  N352  1  0.82286197  0.91036031  0.54954544  1
  N  N353  1  0.45015668  0.74334172  0.54226703  1
  N  N354  1  0.06308010  0.73988935  0.54691248  1
  N  N355  1  0.20846037  0.09041884  0.03955543  1
  N  N356  1  0.20583700  0.09160680  0.45996357  1
  N  N357  1  0.80224920  0.57244801  0.54585524  1
  N  N358  1  0.81870036  0.90119293  0.95343369  1
  N  N359  1  0.05977581  0.06824550  0.55057854  1
  N  N360  1  0.06846127  0.04787732  0.60920994  1
  N  N361  1  0.08086135  0.39034472  0.59889004  1
  N  N362  1  0.07299084  0.72090030  0.60592898  1
  N  N363  1  0.56499433  0.06299980  0.58392801  1
  N  N364  1  0.57828663  0.38465236  0.60773806  1
  N  N365  1  0.56360835  0.72762146  0.58695262  1
  N  N366  1  0.44845038  0.27431544  0.09324909  1
  N  N367  1  0.45295697  0.60933201  0.08253417  1
  N  N368  1  0.40492767  0.94651647  0.08804566  1
  N  N369  1  0.95478124  0.27385639  0.09295010  1
  N  N370  1  0.93456058  0.61773767  0.10031428  1
  N  N371  1  0.91295787  0.94352786  0.09533511  1
  N  N372  1  0.42719289  0.05439158  0.89366435  1
  N  N373  1  0.43472626  0.38718490  0.89322129  1
  N  N374  1  0.47795377  0.73078413  0.92620846  1
  N  N375  1  0.93357087  0.05638530  0.90510790  1
  N  N376  1  0.94805807  0.38979126  0.91767413  1
  N  N377  1  0.95449439  0.72702476  0.91623233  1
  N  N378  1  0.07625232  0.27842635  0.39352724  1
  N  N379  1  0.05851232  0.60859855  0.41212799  1
  N  N380  1  0.05695147  0.94415769  0.39516741  1
  N  N381  1  0.57740451  0.27199413  0.39661311  1
  N  N382  1  0.55552449  0.61042152  0.40661212  1
  N  N383  1  0.54831155  0.94928834  0.41659148  1
  N  N384  1  0.30069199  0.22243725  0.59189621  1
  N  N385  1  0.32133364  0.55491507  0.60508954  1
  N  N386  1  0.32184221  0.88883995  0.59411532  1
  N  N387  1  0.80137029  0.22359604  0.59179088  1
  N  N388  1  0.82106980  0.55244820  0.60371746  1
  N  N389  1  0.82734259  0.89034574  0.60768197  1
  N  N390  1  0.18785652  0.11066468  0.09726255  1
  N  N391  1  0.18689099  0.44130327  0.08951666  1
  N  N392  1  0.15735800  0.78162828  0.10443674  1
  N  N393  1  0.69514850  0.10533630  0.09194106  1
  N  N394  1  0.68617725  0.44311752  0.09884081  1
  N  N395  1  0.64838432  0.77827268  0.07929393  1
  N  N396  1  0.17113899  0.21558397  0.89941597  1
  N  N397  1  0.17925342  0.55336078  0.89163555  1
  N  N398  1  0.22373308  0.89910606  0.94419170  1
  N  N399  1  0.67737896  0.22243453  0.89514446  1
  N  N400  1  0.68209039  0.55427778  0.90653774  1
  N  N401  1  0.70395515  0.88905189  0.90560874  1
  N  N402  1  0.30555865  0.11154009  0.40143351  1
  N  N403  1  0.29826725  0.44401710  0.40939629  1
  N  N404  1  0.31254338  0.77704225  0.39855221  1
  N  N405  1  0.80160591  0.10890900  0.40906817  1
  N  N406  1  0.80866190  0.44361983  0.40528758  1
  N  N407  1  0.80982177  0.77442543  0.40752615  1
  N  N408  1  0.45251852  0.27592118  0.41458794  1
  N  N409  1  0.42676768  0.61035785  0.39855670  1
  N  N410  1  0.42374291  0.95085681  0.39070808  1
  N  N411  1  0.94954779  0.27691100  0.40777705  1
  N  N412  1  0.93042458  0.61318259  0.39452730  1
  N  N413  1  0.93020269  0.93901064  0.41721606  1
  N  N414  1  0.06351904  0.05359721  0.90878881  1
  N  N415  1  0.07281857  0.38446872  0.89319167  1
  N  N416  1  0.08335723  0.72535657  0.90341680  1
  N  N417  1  0.55273263  0.05499583  0.90922076  1
  N  N418  1  0.55828868  0.39862804  0.91470096  1
  N  N419  1  0.60668204  0.72153571  0.91568562  1
  N  N420  1  0.08215861  0.27740123  0.10289581  1
  N  N421  1  0.06348797  0.61124775  0.08928308  1
  N  N422  1  0.04123566  0.94297544  0.08892669  1
  N  N423  1  0.57714217  0.28027961  0.09834815  1
  N  N424  1  0.57637238  0.61591006  0.10697591  1
  N  N425  1  0.53256598  0.93724445  0.07328114  1
  N  N426  1  0.43706836  0.05580582  0.60106117  1
  N  N427  1  0.44983718  0.38953012  0.59254130  1
  N  N428  1  0.43586331  0.72064695  0.59942605  1
  N  N429  1  0.94240953  0.05447224  0.58951418  1
  N  N430  1  0.95302071  0.39082626  0.59371568  1
  N  N431  1  0.94631147  0.72584636  0.59274234  1
  N  N432  1  0.17900512  0.10838195  0.40255293  1
  N  N433  1  0.17112116  0.45286965  0.39465863  1
  N  N434  1  0.18788067  0.77111976  0.41394854  1
  N  N435  1  0.67255511  0.11190154  0.39706089  1
  N  N436  1  0.68148216  0.44555435  0.39399401  1
  N  N437  1  0.68442469  0.78071922  0.38926123  1
  N  N438  1  0.29729472  0.22350044  0.90832484  1
  N  N439  1  0.30242249  0.55813790  0.91424322  1
  N  N440  1  0.35091491  0.89168895  0.92292936  1
  N  N441  1  0.80410575  0.22644034  0.90884596  1
  N  N442  1  0.81012277  0.55480156  0.90663634  1
  N  N443  1  0.83079643  0.88286705  0.89392834  1
  N  N444  1  0.31425962  0.11128190  0.09103105  1
  N  N445  1  0.31539231  0.43861354  0.08720558  1
  N  N446  1  0.28647580  0.77545817  0.09206155  1
  N  N447  1  0.82031680  0.11322943  0.11022097  1
  N  N448  1  0.81270136  0.44383301  0.09672158  1
  N  N449  1  0.77602105  0.76850510  0.06138610  1
  N  N450  1  0.17293748  0.22046554  0.60403725  1
  N  N451  1  0.19504175  0.55733331  0.60152221  1
  N  N452  1  0.19417488  0.88638259  0.59821695  1
  N  N453  1  0.67406704  0.22004394  0.60147936  1
  N  N454  1  0.69497074  0.55531105  0.59650277  1
  N  N455  1  0.70340231  0.89401217  0.58620220  1
  Cl  Cl456  1  0.25118847  0.05413958  0.61952523  1
  Cl  Cl457  1  0.26488605  0.38650935  0.60983129  1
  Cl  Cl458  1  0.25591681  0.72536971  0.63214533  1
  Cl  Cl459  1  0.75502387  0.05807537  0.61487242  1
  Cl  Cl460  1  0.76879255  0.39014467  0.61896273  1
  Cl  Cl461  1  0.75568796  0.72550617  0.60696329  1
  Cl  Cl462  1  0.26475850  0.28461987  0.12328670  1
  Cl  Cl463  1  0.26891157  0.60104401  0.09964217  1
  Cl  Cl464  1  0.22286880  0.93369784  0.06513589  1
  Cl  Cl465  1  0.76483252  0.27386759  0.11297173  1
  Cl  Cl466  1  0.75407037  0.63098757  0.12208091  1
  Cl  Cl467  1  0.72027285  0.93207968  0.11037065  1
  Cl  Cl468  1  0.24572339  0.03397143  0.87939542  1
  Cl  Cl469  1  0.25397658  0.38948727  0.87974065  1
  Cl  Cl470  1  0.29479413  0.72488713  0.89560104  1
  Cl  Cl471  1  0.73669901  0.05741971  0.88748862  1
  Cl  Cl472  1  0.74968644  0.39302593  0.88769659  1
  Cl  Cl473  1  0.77912661  0.71594700  0.87692717  1
  Cl  Cl474  1  0.26909002  0.27908999  0.39232507  1
  Cl  Cl475  1  0.24151167  0.60648163  0.37220680  1
  Cl  Cl476  1  0.24365013  0.95036788  0.37384001  1
  Cl  Cl477  1  0.76576512  0.27614200  0.38347646  1
  Cl  Cl478  1  0.73943696  0.61168058  0.38366491  1
  Cl  Cl479  1  0.73346189  0.94107912  0.40112736  1
  Cl  Cl480  1  -0.01302591  0.22220418  0.61019276  1
  Cl  Cl481  1  0.00970647  0.55285581  0.61668531  1
  Cl  Cl482  1  0.01020736  0.88367919  0.63329575  1
  Cl  Cl483  1  0.48446180  0.22384664  0.60928669  1
  Cl  Cl484  1  0.51064056  0.56305178  0.60967219  1
  Cl  Cl485  1  0.51810373  0.89508245  0.59893091  1
  Cl  Cl486  1  0.00592941  0.10828480  0.12669778  1
  Cl  Cl487  1  -0.00196725  0.43915302  0.10490703  1
  Cl  Cl488  1  -0.03064957  0.77686731  0.12058277  1
  Cl  Cl489  1  0.50794516  0.10405795  0.09857507  1
  Cl  Cl490  1  0.50082181  0.44643608  0.10925559  1
  Cl  Cl491  1  0.46970533  0.78799067  0.12086509  1
  Cl  Cl492  1  -0.01049885  0.22557522  0.87805230  1
  Cl  Cl493  1  -0.00760288  0.54747656  0.88312661  1
  Cl  Cl494  1  0.03174437  0.89477767  0.90093701  1
  Cl  Cl495  1  0.48549446  0.22390036  0.88765254  1
  Cl  Cl496  1  0.48738789  0.56820110  0.89697328  1
  Cl  Cl497  1  0.52266808  0.88844644  0.87254723  1
  Cl  Cl498  1  -0.00812193  0.10896873  0.39371557  1
  Cl  Cl499  1  -0.00908179  0.44556647  0.37297641  1
  Cl  Cl500  1  -0.00263115  0.77567033  0.39051109  1
  Cl  Cl501  1  0.48800469  0.11009274  0.37005653  1
  Cl  Cl502  1  0.48526775  0.44528159  0.38385683  1
  Cl  Cl503  1  0.49586637  0.78351916  0.38735700  1
  Cl  Cl504  1  0.34779145  0.15249244  0.75450438  1
  Cl  Cl505  1  0.36359902  0.48423335  0.75343744  1
  Cl  Cl506  1  0.36410145  0.82240963  0.76010949  1
  Cl  Cl507  1  0.85637900  0.15385381  0.74895024  1
  Cl  Cl508  1  0.85534746  0.48888624  0.75334575  1
  Cl  Cl509  1  0.86288439  0.81645888  0.74742898  1
  Cl  Cl510  1  0.13714101  0.19002995  0.25214957  1
  Cl  Cl511  1  0.13124493  0.52500385  0.23133083  1
  Cl  Cl512  1  0.13392950  0.85571113  0.24693953  1
  Cl  Cl513  1  0.63431143  0.18720703  0.25196778  1
  Cl  Cl514  1  0.63229759  0.52090369  0.24948876  1
  Cl  Cl515  1  0.63910706  0.85161816  0.25199207  1
  Cl  Cl516  1  0.12512909  0.14061875  0.74071726  1
  Cl  Cl517  1  0.13609028  0.47776770  0.75777832  1
  Cl  Cl518  1  0.14655620  0.81566500  0.75988599  1
  Cl  Cl519  1  0.63300230  0.14703686  0.75291264  1
  Cl  Cl520  1  0.63293954  0.47720731  0.74692016  1
  Cl  Cl521  1  0.64006649  0.81413820  0.74384117  1
  Cl  Cl522  1  0.35820766  0.18088166  0.24710469  1
  Cl  Cl523  1  0.35323886  0.51305659  0.24514472  1
  Cl  Cl524  1  0.35184229  0.84947992  0.25567225  1
  Cl  Cl525  1  0.85825323  0.17980812  0.24926183  1
  Cl  Cl526  1  0.85805066  0.51805398  0.24524613  1
  Cl  Cl527  1  0.85717265  0.85276686  0.24445274  1
  Cl  Cl528  1  0.12389655  0.30818703  0.75375502  1
  Cl  Cl529  1  0.12053903  0.64576696  0.76223441  1
  Cl  Cl530  1  0.11056274  0.97997599  0.74619469  1
  Cl  Cl531  1  0.61142220  0.31010977  0.74920096  1
  Cl  Cl532  1  0.61355224  0.64742318  0.76125478  1
  Cl  Cl533  1  0.61366598  0.98328996  0.74428299  1
  Cl  Cl534  1  0.38828715  0.01390426  0.23704806  1
  Cl  Cl535  1  0.40041496  0.34367201  0.24888739  1
  Cl  Cl536  1  0.39457925  0.68133619  0.25184258  1
  Cl  Cl537  1  0.88716223  0.01684160  0.24918334  1
  Cl  Cl538  1  0.89848838  0.34410015  0.24311818  1
  Cl  Cl539  1  0.88856434  0.68255501  0.26183190  1
  Cl  Cl540  1  0.39250072  0.31948504  0.75602998  1
  Cl  Cl541  1  0.39558182  0.65125783  0.73724487  1
  Cl  Cl542  1  0.39396409  0.98556727  0.74172347  1
  Cl  Cl543  1  0.90081151  0.32568017  0.74535369  1
  Cl  Cl544  1  0.89785574  0.65271540  0.74676234  1
  Cl  Cl545  1  0.88965255  0.97902911  0.76050363  1
  Cl  Cl546  1  0.10865185  0.01577286  0.25422801  1
  Cl  Cl547  1  0.12313330  0.36053425  0.26153217  1
  Cl  Cl548  1  0.11220786  0.68955705  0.24582558  1
  Cl  Cl549  1  0.60638877  0.01599505  0.24254889  1
  Cl  Cl550  1  0.61824736  0.35640117  0.25713948  1
  Cl  Cl551  1  0.61085276  0.68908128  0.24464202  1
