# generated using pymatgen
data_H8PbC4(N3Cl2)2
_symmetry_space_group_name_H-M   'P 1'
_cell_length_a   16.62317005
_cell_length_b   22.50147246
_cell_length_c   21.58782635
_cell_angle_alpha   89.99856306
_cell_angle_beta   89.99223347
_cell_angle_gamma   90.00214220
_symmetry_Int_Tables_number   1
_chemical_formula_structural   H8PbC4(N3Cl2)2
_chemical_formula_sum   'H192 Pb24 C96 N144 Cl96'
_cell_volume   8074.83575961
_cell_formula_units_Z   24
loop_
 _symmetry_equiv_pos_site_id
 _symmetry_equiv_pos_as_xyz
  1  'x, y, z'
loop_
 _atom_site_type_symbol
 _atom_site_label
 _atom_site_symmetry_multiplicity
 _atom_site_fract_x
 _atom_site_fract_y
 _atom_site_fract_z
 _atom_site_occupancy
  H  H0  1  -0.00175852  0.03373837  0.67989605  1
  H  H1  1  0.00907517  0.36498382  0.68225098  1
  H  H2  1  -0.00660309  0.69781188  0.67974498  1
  H  H3  1  0.50253293  0.03310676  0.67957216  1
  H  H4  1  0.49352466  0.36561540  0.68059474  1
  H  H5  1  0.49387361  0.69853805  0.68231770  1
  H  H6  1  0.00728015  0.30216606  0.18185636  1
  H  H7  1  0.00518314  0.63547251  0.18176791  1
  H  H8  1  -0.00036985  0.96565837  0.18114798  1
  H  H9  1  0.48947567  0.30074914  0.18195225  1
  H  H10  1  0.50104653  0.63649871  0.17921608  1
  H  H11  1  0.49985034  0.96750846  0.18097021  1
  H  H12  1  0.00625224  0.03176024  0.81798178  1
  H  H13  1  -0.00063007  0.36541333  0.82054753  1
  H  H14  1  0.00406903  0.69974234  0.82125019  1
  H  H15  1  0.50357685  0.03083263  0.81838597  1
  H  H16  1  0.49174205  0.36473281  0.81890255  1
  H  H17  1  0.49677724  0.69924120  0.82084812  1
  H  H18  1  -0.00242604  0.30062427  0.31860267  1
  H  H19  1  -0.00553666  0.63444913  0.31991075  1
  H  H20  1  0.01028678  0.96888021  0.31912795  1
  H  H21  1  0.50706987  0.29999220  0.32251098  1
  H  H22  1  0.50562466  0.63524130  0.31969712  1
  H  H23  1  0.49131104  0.96821770  0.32020519  1
  H  H24  1  0.24454532  0.19961442  0.67726760  1
  H  H25  1  0.25341702  0.53157098  0.67889383  1
  H  H26  1  0.25054331  0.86653273  0.68245769  1
  H  H27  1  0.75060323  0.19802376  0.67896089  1
  H  H28  1  0.74597176  0.53192271  0.68163039  1
  H  H29  1  0.74642919  0.86651973  0.67741686  1
  H  H30  1  0.24357032  0.13376324  0.18384032  1
  H  H31  1  0.25297616  0.46835128  0.17947845  1
  H  H32  1  0.24922557  0.80336086  0.17843854  1
  H  H33  1  0.74748314  0.13474115  0.18315345  1
  H  H34  1  0.74946456  0.46698618  0.18085965  1
  H  H35  1  0.74446751  0.80160325  0.17832027  1
  H  H36  1  0.24912422  0.19982864  0.81600628  1
  H  H37  1  0.24759266  0.53257198  0.81956234  1
  H  H38  1  0.24959984  0.86360864  0.82118865  1
  H  H39  1  0.75264632  0.20041101  0.81882438  1
  H  H40  1  0.74774492  0.53170576  0.81746536  1
  H  H41  1  0.75562099  0.86420207  0.82036975  1
  H  H42  1  0.24505793  0.13492169  0.32223235  1
  H  H43  1  0.24120852  0.46845142  0.31749800  1
  H  H44  1  0.25073192  0.79987863  0.31837248  1
  H  H45  1  0.75749507  0.13585260  0.32021338  1
  H  H46  1  0.75555748  0.46464310  0.32107779  1
  H  H47  1  0.75270369  0.80209031  0.31776794  1
  H  H48  1  0.12420572  0.05498434  0.60913938  1
  H  H49  1  0.12185357  0.38858491  0.60231317  1
  H  H50  1  0.13015633  0.71732665  0.62216172  1
  H  H51  1  0.62208991  0.05513849  0.60502337  1
  H  H52  1  0.62743774  0.38346150  0.61923216  1
  H  H53  1  0.62793113  0.72032395  0.62106214  1
  H  H54  1  0.37891204  0.27732620  0.09853302  1
  H  H55  1  0.37067842  0.61449105  0.11523960  1
  H  H56  1  0.37779388  0.94420880  0.10741244  1
  H  H57  1  0.87268325  0.28194644  0.11858328  1
  H  H58  1  0.87097280  0.61462125  0.12048632  1
  H  H59  1  0.88150358  0.94474234  0.10699744  1
  H  H60  1  0.37164157  0.05075107  0.88164264  1
  H  H61  1  0.38061602  0.39179510  0.90111267  1
  H  H62  1  0.37483770  0.72185651  0.89392543  1
  H  H63  1  0.87284058  0.05182817  0.88055093  1
  H  H64  1  0.87687546  0.38779359  0.89255423  1
  H  H65  1  0.87189742  0.72048813  0.88585362  1
  H  H66  1  0.12457060  0.27858330  0.38710519  1
  H  H67  1  0.12142689  0.61244477  0.38903246  1
  H  H68  1  0.11907820  0.94531211  0.40217673  1
  H  H69  1  0.61813063  0.27653954  0.40338062  1
  H  H70  1  0.62010314  0.60890504  0.39825337  1
  H  H71  1  0.62700621  0.94794981  0.37894566  1
  H  H72  1  0.37991803  0.21820197  0.61960523  1
  H  H73  1  0.37609868  0.55563224  0.60761527  1
  H  H74  1  0.37350278  0.88916607  0.60900820  1
  H  H75  1  0.87616799  0.21935010  0.60791108  1
  H  H76  1  0.87998306  0.55149043  0.62207109  1
  H  H77  1  0.87608978  0.88884996  0.61186515  1
  H  H78  1  0.13047370  0.10918164  0.10447767  1
  H  H79  1  0.12047481  0.44647894  0.11774252  1
  H  H80  1  0.12681017  0.77958671  0.10648402  1
  H  H81  1  0.62973133  0.11260051  0.10789689  1
  H  H82  1  0.62598635  0.44677624  0.11093203  1
  H  H83  1  0.63069630  0.77544872  0.09874012  1
  H  H84  1  0.12442062  0.22070890  0.88534869  1
  H  H85  1  0.13233246  0.55637655  0.89998422  1
  H  H86  1  0.12357411  0.88705823  0.89109182  1
  H  H87  1  0.62733497  0.22035323  0.88682286  1
  H  H88  1  0.62921327  0.55516280  0.89170878  1
  H  H89  1  0.62061612  0.88320239  0.87968071  1
  H  H90  1  0.37854051  0.11571900  0.38385900  1
  H  H91  1  0.37595056  0.44796241  0.37967772  1
  H  H92  1  0.36701237  0.77744953  0.39542204  1
  H  H93  1  0.87527754  0.11131949  0.39595735  1
  H  H94  1  0.87266497  0.44520344  0.39959928  1
  H  H95  1  0.86957241  0.77613052  0.39489200  1
  H  H96  1  0.37116027  0.28074689  0.38175073  1
  H  H97  1  0.37174309  0.61450605  0.37991706  1
  H  H98  1  0.37943144  0.94256611  0.40143748  1
  H  H99  1  0.87503629  0.27775447  0.39296886  1
  H  H100  1  0.87269045  0.61056928  0.39201845  1
  H  H101  1  0.87262454  0.94965464  0.37737817  1
  H  H102  1  0.11983384  0.05484935  0.89938399  1
  H  H103  1  0.12569351  0.38854585  0.89087871  1
  H  H104  1  0.11996263  0.72363238  0.89947724  1
  H  H105  1  0.62060657  0.05617882  0.89548041  1
  H  H106  1  0.62726834  0.38411708  0.87913133  1
  H  H107  1  0.62382951  0.72130463  0.88943131  1
  H  H108  1  0.12098616  0.27933943  0.10204989  1
  H  H109  1  0.11784261  0.60983065  0.10006817  1
  H  H110  1  0.13076014  0.94649576  0.11662992  1
  H  H111  1  0.62521450  0.28263685  0.12146024  1
  H  H112  1  0.61923328  0.61177061  0.10294114  1
  H  H113  1  0.62692279  0.94386923  0.11280969  1
  H  H114  1  0.37259286  0.05452385  0.61343329  1
  H  H115  1  0.37931842  0.38817243  0.60359914  1
  H  H116  1  0.38147929  0.72284701  0.60057306  1
  H  H117  1  0.87511369  0.05524813  0.60810456  1
  H  H118  1  0.87405170  0.38436910  0.62059037  1
  H  H119  1  0.88508868  0.72537534  0.59583728  1
  H  H120  1  0.13098024  0.11055009  0.40213148  1
  H  H121  1  0.12800901  0.44433805  0.39696563  1
  H  H122  1  0.11815045  0.77920373  0.38232983  1
  H  H123  1  0.62663962  0.11425564  0.38578238  1
  H  H124  1  0.62467213  0.44449779  0.38592695  1
  H  H125  1  0.62072768  0.78286379  0.38121969  1
  H  H126  1  0.37434786  0.21971392  0.88521163  1
  H  H127  1  0.38011001  0.55393648  0.88296541  1
  H  H128  1  0.37253587  0.88667342  0.89282664  1
  H  H129  1  0.87655748  0.22066792  0.89024741  1
  H  H130  1  0.87821395  0.55086805  0.88148087  1
  H  H131  1  0.86827803  0.89003824  0.90080290  1
  H  H132  1  0.37858899  0.11419014  0.12110675  1
  H  H133  1  0.36887082  0.44461083  0.10083194  1
  H  H134  1  0.37598529  0.77882844  0.10980142  1
  H  H135  1  0.87866826  0.11514418  0.11994834  1
  H  H136  1  0.87511816  0.44704711  0.11134079  1
  H  H137  1  0.87823990  0.78127992  0.11768606  1
  H  H138  1  0.13293861  0.22079188  0.59836678  1
  H  H139  1  0.12684177  0.55429030  0.61015263  1
  H  H140  1  0.12356791  0.88792772  0.61474446  1
  H  H141  1  0.62704026  0.22205282  0.60835024  1
  H  H142  1  0.63150058  0.55510262  0.60402081  1
  H  H143  1  0.62756912  0.89037006  0.60255279  1
  H  H144  1  0.30446485  0.41952025  -0.00294714  1
  H  H145  1  0.15267381  0.75116829  0.48955251  1
  H  H146  1  0.43654903  0.41524664  0.49518019  1
  H  H147  1  0.83580625  0.91922513  0.50547964  1
  H  H148  1  0.39515406  0.25150401  0.49135197  1
  H  H149  1  0.81337831  0.40986569  0.49835183  1
  H  H150  1  0.04797300  0.58387785  -0.00122979  1
  H  H151  1  0.67128439  0.41731490  -0.00063717  1
  H  H152  1  0.17289878  0.58232468  0.50422128  1
  H  H153  1  0.84627392  0.08804328  0.00733215  1
  H  H154  1  0.40464584  0.07986518  0.99349281  1
  H  H155  1  0.85379069  0.57906729  0.50848944  1
  H  H156  1  0.55760597  0.58788595  -0.00214706  1
  H  H157  1  0.45269932  0.41716845  1.00195695  1
  H  H158  1  0.07923204  0.24813608  0.49626704  1
  H  H159  1  0.95978765  0.74775598  0.49511722  1
  H  H160  1  0.65824301  0.41919692  0.49392757  1
  H  H161  1  0.84504067  0.57852099  0.99373800  1
  H  H162  1  0.30864603  0.74954855  0.50383607  1
  H  H163  1  0.57009761  0.08501308  0.49697531  1
  H  H164  1  0.32955597  0.24339027  0.99846247  1
  H  H165  1  0.05470355  0.25627547  -0.00572176  1
  H  H166  1  0.32041499  0.91476608  0.50343073  1
  H  H167  1  0.19319596  0.41472523  0.50259002  1
  H  H168  1  0.40999489  0.08418076  0.50727471  1
  H  H169  1  0.69146297  0.57938133  0.49460979  1
  H  H170  1  0.56015815  0.07783908  0.99993602  1
  H  H171  1  0.44946520  0.91781615  0.50403587  1
  H  H172  1  0.65435797  0.75387425  0.49327289  1
  H  H173  1  0.16999293  0.24651817  0.99813632  1
  H  H174  1  0.19560489  0.08178216  -0.00189747  1
  H  H175  1  0.79994794  0.91504877  1.00341006  1
  H  H176  1  0.40047635  0.58373336  0.49240390  1
  H  H177  1  0.05488835  0.41596955  0.49578784  1
  H  H178  1  0.19988931  0.58479554  1.00115369  1
  H  H179  1  0.58428718  0.91448891  0.00331524  1
  H  H180  1  0.68510519  0.08791921  -0.00266880  1
  H  H181  1  0.16674044  0.91608019  0.50269634  1
  H  H182  1  0.68343127  0.58124786  1.00221843  1
  H  H183  1  0.05131711  0.07884653  1.00156049  1
  H  H184  1  0.04788338  0.92213655  0.50806441  1
  H  H185  1  0.45120603  0.75039521  0.49966476  1
  H  H186  1  0.66966665  0.24932726  0.99927093  1
  H  H187  1  0.90848332  0.74676770  0.99305483  1
  H  H188  1  0.93598267  0.91892585  -0.00460758  1
  H  H189  1  0.55572348  0.58788625  0.50249581  1
  H  H190  1  0.80969241  0.75220058  0.49888081  1
  H  H191  1  0.45146035  0.25331892  -0.00257425  1
  Pb  Pb192  1  0.24869022  0.04618910  0.75250708  1
  Pb  Pb193  1  0.24850908  0.38115256  0.75081571  1
  Pb  Pb194  1  0.25469405  0.71495412  0.74954238  1
  Pb  Pb195  1  0.74682361  0.04688808  0.75086940  1
  Pb  Pb196  1  0.75401595  0.37995744  0.74699981  1
  Pb  Pb197  1  0.75613178  0.71502402  0.74383165  1
  Pb  Pb198  1  0.24632291  0.28559524  0.24363422  1
  Pb  Pb199  1  0.24943731  0.61937105  0.24753218  1
  Pb  Pb200  1  0.25013391  0.95360131  0.25923802  1
  Pb  Pb201  1  0.75343718  0.28568306  0.25381786  1
  Pb  Pb202  1  0.74325262  0.61885721  0.25092220  1
  Pb  Pb203  1  0.75029592  0.95393006  0.24593930  1
  Pb  Pb204  1  0.00037633  0.21134166  0.74716485  1
  Pb  Pb205  1  0.00685776  0.54783816  0.75638817  1
  Pb  Pb206  1  0.00013529  0.88171270  0.75212880  1
  Pb  Pb207  1  0.49977147  0.21490913  0.75182730  1
  Pb  Pb208  1  0.50484465  0.54808477  0.74766893  1
  Pb  Pb209  1  0.50047994  0.88041365  0.74548134  1
  Pb  Pb210  1  0.00382371  0.11871327  0.24833435  1
  Pb  Pb211  1  -0.00123312  0.45527849  0.25602897  1
  Pb  Pb212  1  -0.00262159  0.78502627  0.25192362  1
  Pb  Pb213  1  0.50144226  0.12036511  0.24896831  1
  Pb  Pb214  1  0.49860625  0.44928713  0.24338842  1
  Pb  Pb215  1  0.49822202  0.78828913  0.25208013  1
  C  C216  1  -0.00054290  0.04797902  0.63212165  1
  C  C217  1  0.00135662  0.37926965  0.63463576  1
  C  C218  1  0.00268805  0.71263075  0.63241063  1
  C  C219  1  0.49862409  0.04821976  0.63176041  1
  C  C220  1  0.49987866  0.37944442  0.63274185  1
  C  C221  1  0.50100782  0.71381616  0.63495564  1
  C  C222  1  0.00026084  0.28734176  0.13435422  1
  C  C223  1  -0.00167815  0.62075782  0.13420842  1
  C  C224  1  0.00364116  0.95246242  0.13305369  1
  C  C225  1  0.49737576  0.28698716  0.13415626  1
  C  C226  1  0.49722256  0.62163487  0.13164560  1
  C  C227  1  0.50156790  0.95236481  0.13335411  1
  C  C228  1  -0.00009108  0.04589840  0.86579741  1
  C  C229  1  0.00103903  0.38030797  0.86814449  1
  C  C230  1  -0.00181627  0.71433485  0.86892893  1
  C  C231  1  0.49876510  0.04604884  0.86608382  1
  C  C232  1  0.49950086  0.37956575  0.86633366  1
  C  C233  1  0.49866798  0.71394243  0.86842332  1
  C  C234  1  -0.00109284  0.28556802  0.36624157  1
  C  C235  1  -0.00353158  0.61946743  0.36738903  1
  C  C236  1  0.00043132  0.95432073  0.36649401  1
  C  C237  1  0.49824978  0.28573170  0.36998993  1
  C  C238  1  0.49942578  0.62024352  0.36738631  1
  C  C239  1  0.49898359  0.95382638  0.36769935  1
  C  C240  1  0.25267047  0.21313273  0.62958126  1
  C  C241  1  0.25161978  0.54688465  0.63133693  1
  C  C242  1  0.24960384  0.88072392  0.63427199  1
  C  C243  1  0.75150408  0.21314837  0.63147408  1
  C  C244  1  0.75283397  0.54646813  0.63395603  1
  C  C245  1  0.75041185  0.88172690  0.62992007  1
  C  C246  1  0.25130042  0.11955066  0.13613536  1
  C  C247  1  0.24775791  0.45372471  0.13190262  1
  C  C248  1  0.25087041  0.78737836  0.13126332  1
  C  C249  1  0.75229436  0.12061271  0.13518171  1
  C  C250  1  0.74968868  0.45334053  0.13277148  1
  C  C251  1  0.75099866  0.78648964  0.13105715  1
  C  C252  1  0.24932251  0.21388315  0.86416628  1
  C  C253  1  0.25309004  0.54732159  0.86720157  1
  C  C254  1  0.24826268  0.87908231  0.86854615  1
  C  C255  1  0.75164449  0.21395060  0.86695806  1
  C  C256  1  0.75200137  0.54615222  0.86534373  1
  C  C257  1  0.74848042  0.87874367  0.86794315  1
  C  C258  1  0.25142588  0.12062818  0.36979649  1
  C  C259  1  0.24869939  0.45375328  0.36502591  1
  C  C260  1  0.24453237  0.78566011  0.36629985  1
  C  C261  1  0.75283281  0.12069471  0.36757027  1
  C  C262  1  0.75103178  0.45126143  0.36941268  1
  C  C263  1  0.74780388  0.78720698  0.36553371  1
  C  C264  1  0.72501531  0.57078482  0.53692218  1
  C  C265  1  0.72034853  0.09682360  0.03875816  1
  C  C266  1  0.22519370  0.42647449  0.46029964  1
  C  C267  1  0.22764206  0.09334867  0.04055704  1
  C  C268  1  0.30154813  0.09569817  0.45999934  1
  C  C269  1  0.71504848  0.24160195  0.53914619  1
  C  C270  1  0.20864043  0.23703417  0.95870058  1
  C  C271  1  0.03874707  0.25910179  0.45823566  1
  C  C272  1  0.78253175  0.09162443  0.46145940  1
  C  C273  1  0.29062376  0.23607932  0.95872583  1
  C  C274  1  0.46466792  0.74068846  0.96187952  1
  C  C275  1  0.47302528  0.40510470  0.53563109  1
  C  C276  1  0.96336450  0.07438351  0.53897327  1
  C  C277  1  0.53297610  0.07445994  0.53702660  1
  C  C278  1  0.71515358  0.91055559  0.53511867  1
  C  C279  1  0.44556940  0.59304438  0.45609387  1
  C  C280  1  0.55683754  0.92611601  0.45604676  1
  C  C281  1  0.69102688  0.90502723  0.95691300  1
  C  C282  1  0.80173405  0.75897297  0.04195032  1
  C  C283  1  0.02393688  0.26334456  0.03811816  1
  C  C284  1  0.79183224  0.23846832  0.96083250  1
  C  C285  1  0.30851363  0.23757669  0.54089839  1
  C  C286  1  0.71086735  0.42792794  0.03787848  1
  C  C287  1  0.54191059  0.92537043  0.04134541  1
  C  C288  1  0.52311282  0.25825879  0.46719492  1
  C  C289  1  0.71031132  0.23880321  0.96135835  1
  C  C290  1  0.97181613  0.92844594  0.03641726  1
  C  C291  1  0.22836498  0.23859047  0.53385664  1
  C  C292  1  0.96514951  0.40797633  0.96119737  1
  C  C293  1  0.20533535  0.90624005  0.54193957  1
  C  C294  1  0.55452257  0.40332979  0.54256579  1
  C  C295  1  0.71921242  0.57100048  0.96136581  1
  C  C296  1  0.01892142  0.93002476  0.46355601  1
  C  C297  1  0.96115373  0.59141927  0.46087333  1
  C  C298  1  0.80227897  0.09749614  0.04328490  1
  C  C299  1  0.69698568  0.76262546  0.45619309  1
  C  C300  1  0.27509760  0.76011087  0.46193310  1
  C  C301  1  0.19444954  0.42551627  0.04216829  1
  C  C302  1  0.44629832  0.59368119  0.04102250  1
  C  C303  1  0.02374782  0.40537688  0.53882728  1
  C  C304  1  0.79249127  0.42833234  0.03957128  1
  C  C305  1  0.80121182  0.56947726  0.95752461  1
  C  C306  1  0.05304778  0.92915659  0.04169928  1
  C  C307  1  0.80689304  0.57027842  0.54348661  1
  C  C308  1  0.44772084  0.07101815  0.95663672  1
  C  C309  1  0.21593014  0.75771807  0.03887000  1
  C  C310  1  0.29188813  0.57459459  0.53737782  1
  C  C311  1  0.28396907  0.90784480  0.96107507  1
  N  N312  1  0.55719822  0.73821815  0.54592710  1
  N  N313  1  0.47997639  0.40684219  0.96056252  1
  N  N314  1  0.94043617  0.93023383  0.45511211  1
  N  N315  1  0.04071605  0.07395747  0.53786751  1
  N  N316  1  0.19578342  0.76179593  0.45654911  1
  N  N317  1  0.22911258  0.57291121  0.96119715  1
  N  N318  1  0.28487356  0.90634186  0.54108617  1
  N  N319  1  0.47953701  0.73875329  0.54015861  1
  N  N320  1  0.72453151  0.75696744  0.03459466  1
  N  N321  1  0.22440031  0.09349758  0.46689245  1
  N  N322  1  0.45329323  0.07376829  0.54088649  1
  N  N323  1  0.94484833  0.40438428  0.54496462  1
  N  N324  1  0.54199290  0.74033962  0.96189678  1
  N  N325  1  0.02249906  0.07170133  0.96018865  1
  N  N326  1  0.46259440  0.92569261  0.03868929  1
  N  N327  1  0.06312980  0.73809910  0.54546972  1
  N  N328  1  0.20663081  0.90843962  0.96174174  1
  N  N329  1  0.52507748  0.59043370  0.46125373  1
  N  N330  1  0.29330361  0.75710707  0.03879042  1
  N  N331  1  0.78055966  0.43263023  0.46551420  1
  N  N332  1  0.30648183  0.09530374  0.04591878  1
  N  N333  1  0.95168001  0.73849780  0.95849891  1
  N  N334  1  0.52715383  0.07395775  0.96008560  1
  N  N335  1  0.79234008  0.24094716  0.53780727  1
  N  N336  1  0.27311001  0.42619470  0.03742998  1
  N  N337  1  0.04249143  0.40812578  0.96198979  1
  N  N338  1  0.55587248  0.26359586  0.04585948  1
  N  N339  1  0.77636725  0.75963415  0.45957823  1
  N  N340  1  0.03921956  0.59205496  0.46116761  1
  N  N341  1  0.47831888  0.92558768  0.46271873  1
  N  N342  1  0.70254951  0.42348362  0.45804956  1
  N  N343  1  0.47840620  0.26130323  0.03930240  1
  N  N344  1  0.30682003  0.57175405  0.95711291  1
  N  N345  1  0.21261031  0.57402647  0.53938280  1
  N  N346  1  0.52517750  0.59364503  0.03771048  1
  N  N347  1  0.94487908  0.07005062  0.95519521  1
  N  N348  1  0.30416304  0.42799337  0.45474346  1
  N  N349  1  0.70503145  0.09221079  0.45940200  1
  N  N350  1  0.01980527  0.59363237  0.04012197  1
  N  N351  1  0.55748777  0.40398743  0.95453605  1
  N  N352  1  0.79408569  0.90911477  0.53915331  1
  N  N353  1  0.98569361  0.74188098  0.53826563  1
  N  N354  1  0.76987192  0.90734922  0.96270843  1
  N  N355  1  0.95957969  0.25876850  0.46059914  1
  N  N356  1  0.94528782  0.26292199  0.04409108  1
  N  N357  1  0.02970683  0.73960867  0.96476489  1
  N  N358  1  0.94219851  0.59576338  0.04554324  1
  N  N359  1  0.44496512  0.26042986  0.45866818  1
  N  N360  1  0.06349925  0.05744851  0.59731077  1
  N  N361  1  0.06001310  0.39016821  0.59346066  1
  N  N362  1  0.07300105  0.72199068  0.60482392  1
  N  N363  1  0.56131917  0.05853928  0.59346656  1
  N  N364  1  0.56962470  0.38776764  0.60153134  1
  N  N365  1  0.56992501  0.72285003  0.60501295  1
  N  N366  1  0.44094706  0.27686246  0.09236187  1
  N  N367  1  0.42878199  0.61029909  0.09921895  1
  N  N368  1  0.43919043  0.94233348  0.09656661  1
  N  N369  1  0.93223914  0.27811562  0.10382032  1
  N  N370  1  0.92935298  0.61158985  0.10444201  1
  N  N371  1  0.94196058  0.94315980  0.09471269  1
  N  N372  1  0.42991096  0.05504321  0.89789750  1
  N  N373  1  0.44291607  0.39076762  0.90766930  1
  N  N374  1  0.43505307  0.72476726  0.90568531  1
  N  N375  1  0.93141663  0.05533252  0.89607159  1
  N  N376  1  0.93693961  0.39120444  0.90483883  1
  N  N377  1  0.93134277  0.72291075  0.90074840  1
  N  N378  1  0.06458169  0.27555411  0.40069952  1
  N  N379  1  0.06088097  0.60968319  0.40149588  1
  N  N380  1  0.05731191  0.94394068  0.40932534  1
  N  N381  1  0.55658582  0.27399613  0.41232628  1
  N  N382  1  0.55823103  0.61048491  0.40740563  1
  N  N383  1  0.56965326  0.94327914  0.39720892  1
  N  N384  1  0.32292668  0.22219059  0.60032688  1
  N  N385  1  0.31615965  0.55818657  0.59444736  1
  N  N386  1  0.31228744  0.88930991  0.59766161  1
  N  N387  1  0.81543189  0.22290624  0.59646018  1
  N  N388  1  0.82228653  0.55538878  0.60406465  1
  N  N389  1  0.81648777  0.89141112  0.59762731  1
  N  N390  1  0.19236511  0.10832092  0.09542412  1
  N  N391  1  0.17855675  0.44206360  0.10068538  1
  N  N392  1  0.18700720  0.77588424  0.09456038  1
  N  N393  1  0.69066018  0.11104254  0.09647111  1
  N  N394  1  0.68534212  0.44385435  0.09713627  1
  N  N395  1  0.69277141  0.77452393  0.09138239  1
  N  N396  1  0.18426610  0.22337721  0.89955191  1
  N  N397  1  0.19449705  0.55784215  0.90713099  1
  N  N398  1  0.18407652  0.89009858  0.90278221  1
  N  N399  1  0.68647427  0.22316561  0.90167986  1
  N  N400  1  0.69002138  0.55647498  0.90351912  1
  N  N401  1  0.67790191  0.88822150  0.89795055  1
  N  N402  1  0.32049723  0.11180691  0.40076190  1
  N  N403  1  0.31687441  0.44484163  0.39529245  1
  N  N404  1  0.30565509  0.77516590  0.40604174  1
  N  N405  1  0.81442133  0.10863635  0.40636599  1
  N  N406  1  0.81127856  0.44125401  0.40816678  1
  N  N407  1  0.80772858  0.77640326  0.40415608  1
  N  N408  1  0.42936453  0.27715413  0.39883142  1
  N  N409  1  0.42965865  0.60999789  0.39735086  1
  N  N410  1  0.44140409  0.94423717  0.40887024  1
  N  N411  1  0.93633241  0.27504806  0.40282065  1
  N  N412  1  0.93287597  0.60799704  0.40427992  1
  N  N413  1  0.93084382  0.94541441  0.39453347  1
  N  N414  1  0.05765374  0.05524130  0.90668043  1
  N  N415  1  0.06519327  0.39055777  0.90260309  1
  N  N416  1  0.05824927  0.72499231  0.90838752  1
  N  N417  1  0.55869123  0.05663859  0.90478258  1
  N  N418  1  0.56898429  0.38810953  0.89551634  1
  N  N419  1  0.56350131  0.72356767  0.90237792  1
  N  N420  1  0.05961602  0.27726045  0.09348574  1
  N  N421  1  0.05562443  0.61038310  0.09322976  1
  N  N422  1  0.07198454  0.94336185  0.09998141  1
  N  N423  1  0.56692206  0.27838875  0.10506387  1
  N  N424  1  0.55772760  0.61240962  0.09310980  1
  N  N425  1  0.56720705  0.94182300  0.09915100  1
  N  N426  1  0.43258291  0.05821916  0.59944890  1
  N  N427  1  0.44018678  0.39023355  0.59307220  1
  N  N428  1  0.44374663  0.72449345  0.59400300  1
  N  N429  1  0.93513181  0.05846804  0.59558593  1
  N  N430  1  0.93292734  0.38834270  0.60485330  1
  N  N431  1  0.94745573  0.72365130  0.58993130  1
  N  N432  1  0.19298712  0.10959216  0.40958946  1
  N  N433  1  0.18957886  0.44228071  0.40562903  1
  N  N434  1  0.17724955  0.77738666  0.39759364  1
  N  N435  1  0.68649593  0.11072991  0.39947562  1
  N  N436  1  0.68397388  0.44337508  0.40149335  1
  N  N437  1  0.67897307  0.77861822  0.39748300  1
  N  N438  1  0.31462203  0.22195426  0.89953918  1
  N  N439  1  0.32125883  0.55636531  0.89813576  1
  N  N440  1  0.31237613  0.89030322  0.90505161  1
  N  N441  1  0.81655291  0.22367607  0.90394477  1
  N  N442  1  0.82000028  0.55424701  0.89767300  1
  N  N443  1  0.80623179  0.88954548  0.90838279  1
  N  N444  1  0.31952874  0.11157877  0.10577678  1
  N  N445  1  0.30710392  0.44507278  0.09213611  1
  N  N446  1  0.31540310  0.77587099  0.09752989  1
  N  N447  1  0.82053445  0.11208805  0.10333995  1
  N  N448  1  0.81545087  0.44352501  0.09679556  1
  N  N449  1  0.82028956  0.77674930  0.10066615  1
  N  N450  1  0.19405384  0.22371794  0.58789119  1
  N  N451  1  0.18723717  0.55645577  0.59714666  1
  N  N452  1  0.18307688  0.89059363  0.59983742  1
  N  N453  1  0.68708393  0.22497156  0.59558023  1
  N  N454  1  0.69269028  0.55604668  0.59368301  1
  N  N455  1  0.68787726  0.89334132  0.59112780  1
  Cl  Cl456  1  0.24955732  0.04976619  0.62103360  1
  Cl  Cl457  1  0.24590346  0.38845287  0.61749876  1
  Cl  Cl458  1  0.26029335  0.72080070  0.60824928  1
  Cl  Cl459  1  0.74804190  0.04964421  0.61998757  1
  Cl  Cl460  1  0.75060237  0.38825508  0.60957778  1
  Cl  Cl461  1  0.76235936  0.72805078  0.60259836  1
  Cl  Cl462  1  0.25285028  0.28011956  0.10720545  1
  Cl  Cl463  1  0.23840383  0.60908036  0.10758547  1
  Cl  Cl464  1  0.25494314  0.94824157  0.12779252  1
  Cl  Cl465  1  0.74849920  0.28225569  0.12052599  1
  Cl  Cl466  1  0.74240433  0.61121964  0.11640278  1
  Cl  Cl467  1  0.75512861  0.94058819  0.10979469  1
  Cl  Cl468  1  0.24063229  0.05446862  0.88867222  1
  Cl  Cl469  1  0.25889887  0.39350000  0.89406817  1
  Cl  Cl470  1  0.24417081  0.71919798  0.88076702  1
  Cl  Cl471  1  0.74389917  0.05252330  0.88690936  1
  Cl  Cl472  1  0.75189516  0.38546436  0.87868666  1
  Cl  Cl473  1  0.74960506  0.72063213  0.87476937  1
  Cl  Cl474  1  0.24776297  0.28155248  0.37537054  1
  Cl  Cl475  1  0.24535867  0.61417480  0.38322107  1
  Cl  Cl476  1  0.25422502  0.94072642  0.39943998  1
  Cl  Cl477  1  0.74589313  0.28318033  0.38576345  1
  Cl  Cl478  1  0.74428495  0.61104256  0.38689003  1
  Cl  Cl479  1  0.74991519  0.94699075  0.37927979  1
  Cl  Cl480  1  0.00486606  0.21821381  0.61561623  1
  Cl  Cl481  1  0.00514785  0.55137987  0.62511633  1
  Cl  Cl482  1  0.00028962  0.88745716  0.61624501  1
  Cl  Cl483  1  0.50457732  0.21960036  0.61929164  1
  Cl  Cl484  1  0.50498992  0.56023055  0.60716176  1
  Cl  Cl485  1  0.49609366  0.89089958  0.60450697  1
  Cl  Cl486  1  0.00964845  0.10811864  0.10933842  1
  Cl  Cl487  1  -0.00226417  0.45178038  0.12536775  1
  Cl  Cl488  1  0.00195877  0.78134385  0.12047084  1
  Cl  Cl489  1  0.50645582  0.11015448  0.11090761  1
  Cl  Cl490  1  0.49062955  0.44465777  0.10443552  1
  Cl  Cl491  1  0.50389101  0.77847661  0.12117791  1
  Cl  Cl492  1  0.00124919  0.21875329  0.88227924  1
  Cl  Cl493  1  0.01165897  0.55788661  0.89459354  1
  Cl  Cl494  1  -0.00754229  0.88807291  0.88655654  1
  Cl  Cl495  1  0.49752035  0.22239186  0.88891022  1
  Cl  Cl496  1  0.50642334  0.55647497  0.88537449  1
  Cl  Cl497  1  0.49640979  0.88438436  0.87647804  1
  Cl  Cl498  1  0.00359833  0.11298946  0.37935995  1
  Cl  Cl499  1  0.00061530  0.44572412  0.39179308  1
  Cl  Cl500  1  -0.00912136  0.77373356  0.39543463  1
  Cl  Cl501  1  0.50211402  0.11354367  0.38416903  1
  Cl  Cl502  1  0.50292633  0.44857036  0.37671685  1
  Cl  Cl503  1  0.49017068  0.77868980  0.39372863  1
  Cl  Cl504  1  0.36441888  0.14449054  0.74907894  1
  Cl  Cl505  1  0.36287645  0.47931365  0.75138808  1
  Cl  Cl506  1  0.36051022  0.81026470  0.74580920  1
  Cl  Cl507  1  0.86268027  0.14379391  0.75259673  1
  Cl  Cl508  1  0.86092364  0.47690698  0.74788850  1
  Cl  Cl509  1  0.85948875  0.81034596  0.74750326  1
  Cl  Cl510  1  0.14135830  0.18838353  0.24929004  1
  Cl  Cl511  1  0.13821115  0.52208164  0.24858425  1
  Cl  Cl512  1  0.13806990  0.85618211  0.25379572  1
  Cl  Cl513  1  0.63560521  0.18897771  0.25043523  1
  Cl  Cl514  1  0.64088218  0.52277068  0.25321930  1
  Cl  Cl515  1  0.63622335  0.85470260  0.25383325  1
  Cl  Cl516  1  0.13843325  0.14408228  0.75022409  1
  Cl  Cl517  1  0.13953260  0.47713212  0.75125394  1
  Cl  Cl518  1  0.13720975  0.81090973  0.74667840  1
  Cl  Cl519  1  0.63811747  0.14320479  0.75159198  1
  Cl  Cl520  1  0.63756761  0.47778129  0.74846457  1
  Cl  Cl521  1  0.63601470  0.81139047  0.74587274  1
  Cl  Cl522  1  0.36620189  0.18925683  0.24861939  1
  Cl  Cl523  1  0.36007330  0.52451642  0.25222301  1
  Cl  Cl524  1  0.36220166  0.85507087  0.25253822  1
  Cl  Cl525  1  0.86142913  0.19055098  0.24694175  1
  Cl  Cl526  1  0.86263766  0.52249432  0.25061106  1
  Cl  Cl527  1  0.86203859  0.85520000  0.25108187  1
  Cl  Cl528  1  0.11363134  0.31190769  0.75577794  1
  Cl  Cl529  1  0.10925649  0.64400501  0.74695730  1
  Cl  Cl530  1  0.11278725  0.97688999  0.74797249  1
  Cl  Cl531  1  0.61235637  0.31193073  0.75069235  1
  Cl  Cl532  1  0.60975817  0.64374656  0.74696562  1
  Cl  Cl533  1  0.61020404  0.97709090  0.74995670  1
  Cl  Cl534  1  0.38850234  0.02167284  0.25020558  1
  Cl  Cl535  1  0.39062061  0.35738419  0.25281492  1
  Cl  Cl536  1  0.38611134  0.68739819  0.25257930  1
  Cl  Cl537  1  0.88560310  0.02251222  0.25081012  1
  Cl  Cl538  1  0.88668068  0.35597295  0.24954262  1
  Cl  Cl539  1  0.89086968  0.69025802  0.24884010  1
  Cl  Cl540  1  0.39129625  0.31052213  0.75150310  1
  Cl  Cl541  1  0.38731676  0.64479182  0.74906886  1
  Cl  Cl542  1  0.38866262  0.97801655  0.74635076  1
  Cl  Cl543  1  0.88730013  0.31086204  0.74765912  1
  Cl  Cl544  1  0.88753078  0.64448809  0.75249570  1
  Cl  Cl545  1  0.88799977  0.97766550  0.75274706  1
  Cl  Cl546  1  0.11198667  0.02160827  0.24810230  1
  Cl  Cl547  1  0.11209929  0.35528927  0.25002906  1
  Cl  Cl548  1  0.11163551  0.69038951  0.25573894  1
  Cl  Cl549  1  0.61333383  0.02116840  0.25180629  1
  Cl  Cl550  1  0.60861403  0.35717044  0.24762947  1
  Cl  Cl551  1  0.61008181  0.68813689  0.25438108  1
