# generated using pymatgen
data_H8PbC4(N3Cl2)2
_symmetry_space_group_name_H-M   'P 1'
_cell_length_a   16.63213251
_cell_length_b   22.52060222
_cell_length_c   21.59588711
_cell_angle_alpha   89.99923753
_cell_angle_beta   89.98112809
_cell_angle_gamma   90.01673215
_symmetry_Int_Tables_number   1
_chemical_formula_structural   H8PbC4(N3Cl2)2
_chemical_formula_sum   'H192 Pb24 C96 N144 Cl96'
_cell_volume   8089.07649836
_cell_formula_units_Z   24
loop_
 _symmetry_equiv_pos_site_id
 _symmetry_equiv_pos_as_xyz
  1  'x, y, z'
loop_
 _atom_site_type_symbol
 _atom_site_label
 _atom_site_symmetry_multiplicity
 _atom_site_fract_x
 _atom_site_fract_y
 _atom_site_fract_z
 _atom_site_occupancy
  H  H0  1  0.00127383  0.03063046  0.67802644  1
  H  H1  1  0.00797657  0.36026058  0.68086710  1
  H  H2  1  -0.00451117  0.69432306  0.68102200  1
  H  H3  1  0.51955882  0.03385506  0.65177316  1
  H  H4  1  0.48593901  0.36532940  0.68213585  1
  H  H5  1  0.50633957  0.69262553  0.67159095  1
  H  H6  1  0.01110919  0.30026402  0.18389820  1
  H  H7  1  0.01300515  0.63460017  0.17613116  1
  H  H8  1  -0.00347341  0.96782876  0.17542684  1
  H  H9  1  0.48684156  0.29928557  0.18289905  1
  H  H10  1  0.50065353  0.63829500  0.17458854  1
  H  H11  1  0.50914568  0.96974024  0.17534761  1
  H  H12  1  -0.00132403  0.02773524  0.82327401  1
  H  H13  1  -0.01887889  0.36451357  0.82331983  1
  H  H14  1  -0.00578918  0.69149175  0.82217779  1
  H  H15  1  0.49449739  0.02497384  0.81960811  1
  H  H16  1  0.52254097  0.36225724  0.82633662  1
  H  H17  1  0.49414957  0.69555854  0.82085279  1
  H  H18  1  0.00296270  0.30704645  0.32427102  1
  H  H19  1  -0.00777614  0.64232445  0.32112372  1
  H  H20  1  -0.00132890  0.97248964  0.32056279  1
  H  H21  1  0.50838592  0.30722725  0.32229489  1
  H  H22  1  0.50709674  0.63619139  0.32117166  1
  H  H23  1  0.50990314  0.97284462  0.32810982  1
  H  H24  1  0.24561376  0.19002790  0.68089420  1
  H  H25  1  0.24481098  0.52973018  0.68439011  1
  H  H26  1  0.24072614  0.86206263  0.67694926  1
  H  H27  1  0.74803826  0.19162625  0.67583160  1
  H  H28  1  0.75783192  0.52552858  0.67978797  1
  H  H29  1  0.75514189  0.86100311  0.67539997  1
  H  H30  1  0.25507527  0.13210786  0.18229863  1
  H  H31  1  0.25220088  0.47339649  0.16883226  1
  H  H32  1  0.26363105  0.80670483  0.17792133  1
  H  H33  1  0.76226495  0.13717120  0.17841047  1
  H  H34  1  0.75061370  0.47120786  0.18484683  1
  H  H35  1  0.76002900  0.80320036  0.18301543  1
  H  H36  1  0.23846948  0.20379040  0.81380033  1
  H  H37  1  0.24233776  0.52755298  0.82088553  1
  H  H38  1  0.26387115  0.86270764  0.82585823  1
  H  H39  1  0.76647004  0.19563735  0.82451951  1
  H  H40  1  0.74265615  0.53115872  0.81635539  1
  H  H41  1  0.74840168  0.86424572  0.82890068  1
  H  H42  1  0.24910881  0.13696360  0.32813677  1
  H  H43  1  0.25962072  0.47068915  0.31648859  1
  H  H44  1  0.23903336  0.80763404  0.32439925  1
  H  H45  1  0.72293670  0.13135220  0.33757378  1
  H  H46  1  0.74242180  0.47338154  0.32396786  1
  H  H47  1  0.74556134  0.80415379  0.32206224  1
  H  H48  1  0.13979116  0.04954191  0.62317507  1
  H  H49  1  0.12591576  0.38863006  0.60406193  1
  H  H50  1  0.12229744  0.72088255  0.61206054  1
  H  H51  1  0.65750950  0.05197070  0.59976858  1
  H  H52  1  0.62679502  0.38282395  0.62774710  1
  H  H53  1  0.62155060  0.72510775  0.59723268  1
  H  H54  1  0.38004192  0.27813217  0.09920329  1
  H  H55  1  0.36766326  0.61348459  0.11364246  1
  H  H56  1  0.38153587  0.94433730  0.10783527  1
  H  H57  1  0.88005031  0.27582202  0.11943788  1
  H  H58  1  0.87449210  0.61764420  0.12472360  1
  H  H59  1  0.88093631  0.94282132  0.09753218  1
  H  H60  1  0.38219046  0.05265296  0.90007203  1
  H  H61  1  0.37596548  0.38059591  0.86628880  1
  H  H62  1  0.38416716  0.72723676  0.90134135  1
  H  H63  1  0.88752469  0.05461228  0.90387146  1
  H  H64  1  0.88890963  0.39536018  0.91254314  1
  H  H65  1  0.88176454  0.72480251  0.90011075  1
  H  H66  1  0.11386321  0.27592610  0.40400900  1
  H  H67  1  0.11714210  0.61493654  0.38968662  1
  H  H68  1  0.12350950  0.94717351  0.39214031  1
  H  H69  1  0.61170845  0.27228569  0.40565251  1
  H  H70  1  0.61800097  0.61267224  0.40184667  1
  H  H71  1  0.61981864  0.94111930  0.40653856  1
  H  H72  1  0.38006129  0.20931856  0.62255163  1
  H  H73  1  0.37828260  0.55382861  0.62049662  1
  H  H74  1  0.37698933  0.88577646  0.61839911  1
  H  H75  1  0.88392300  0.22160846  0.62195164  1
  H  H76  1  0.87860519  0.55504096  0.60679236  1
  H  H77  1  0.87663692  0.88868406  0.60401544  1
  H  H78  1  0.11617254  0.11490573  0.12581045  1
  H  H79  1  0.12498148  0.44457545  0.10372438  1
  H  H80  1  0.12269858  0.78068641  0.12890546  1
  H  H81  1  0.62139200  0.11530916  0.12777837  1
  H  H82  1  0.62548826  0.44960319  0.11632376  1
  H  H83  1  0.62062294  0.78385446  0.12732449  1
  H  H84  1  0.12106498  0.22106513  0.89066552  1
  H  H85  1  0.13151965  0.55819328  0.90170696  1
  H  H86  1  0.12383657  0.88327764  0.87930637  1
  H  H87  1  0.62335366  0.21803385  0.87119850  1
  H  H88  1  0.62949143  0.55589904  0.89820099  1
  H  H89  1  0.62168968  0.88800933  0.89340296  1
  H  H90  1  0.35796898  0.10685838  0.40701033  1
  H  H91  1  0.37054563  0.44583966  0.39645427  1
  H  H92  1  0.37296285  0.78245083  0.38336745  1
  H  H93  1  0.83381845  0.10476036  0.41606081  1
  H  H94  1  0.87311505  0.44651755  0.38695724  1
  H  H95  1  0.87284473  0.78220090  0.38713884  1
  H  H96  1  0.36754361  0.28173456  0.37076297  1
  H  H97  1  0.37130842  0.61807669  0.37689412  1
  H  H98  1  0.37335840  0.95215603  0.38546335  1
  H  H99  1  0.86825448  0.27955398  0.38182146  1
  H  H100  1  0.86771406  0.61520313  0.39159237  1
  H  H101  1  0.87477739  0.94537701  0.39213394  1
  H  H102  1  0.13410100  0.04827041  0.88279981  1
  H  H103  1  0.12837118  0.38142302  0.86329094  1
  H  H104  1  0.12857816  0.71714751  0.87827208  1
  H  H105  1  0.62894903  0.04820808  0.87652941  1
  H  H106  1  0.61364093  0.39643981  0.91672264  1
  H  H107  1  0.63071859  0.71933932  0.87562325  1
  H  H108  1  0.12901283  0.28289122  0.10631504  1
  H  H109  1  0.11919495  0.60749395  0.09312424  1
  H  H110  1  0.12911918  0.94477128  0.11141713  1
  H  H111  1  0.62541904  0.28127727  0.13001230  1
  H  H112  1  0.61568135  0.60832117  0.09983126  1
  H  H113  1  0.63055176  0.94336943  0.10328004  1
  H  H114  1  0.41261827  0.06517946  0.57158740  1
  H  H115  1  0.38179050  0.39218969  0.59707601  1
  H  H116  1  0.37389217  0.71969039  0.61147418  1
  H  H117  1  0.89285650  0.05465341  0.59742480  1
  H  H118  1  0.87810567  0.38555773  0.61525048  1
  H  H119  1  0.87412823  0.72309520  0.60798190  1
  H  H120  1  0.11239327  0.11594609  0.38139886  1
  H  H121  1  0.12352323  0.45189038  0.37290672  1
  H  H122  1  0.12669969  0.77630066  0.40310974  1
  H  H123  1  0.58600863  0.11150251  0.39496553  1
  H  H124  1  0.62423624  0.44625077  0.39758676  1
  H  H125  1  0.62392269  0.77990496  0.39402440  1
  H  H126  1  0.36975402  0.21998589  0.87712480  1
  H  H127  1  0.37807385  0.55101805  0.88125448  1
  H  H128  1  0.36920965  0.89454370  0.90759813  1
  H  H129  1  0.86638095  0.22617594  0.91124305  1
  H  H130  1  0.87711199  0.55254905  0.88027493  1
  H  H131  1  0.87016280  0.88852302  0.89827072  1
  H  H132  1  0.36151029  0.10497444  0.09873509  1
  H  H133  1  0.37299706  0.44887554  0.09507255  1
  H  H134  1  0.36478464  0.77611322  0.09091557  1
  H  H135  1  0.86383012  0.10363129  0.09266114  1
  H  H136  1  0.87483253  0.45009726  0.11470309  1
  H  H137  1  0.86611607  0.77803827  0.09849870  1
  H  H138  1  0.13292930  0.22019326  0.60475784  1
  H  H139  1  0.13031876  0.55640452  0.60473434  1
  H  H140  1  0.13074081  0.89254007  0.59512956  1
  H  H141  1  0.63783628  0.22053052  0.59457714  1
  H  H142  1  0.62971585  0.55386534  0.61515867  1
  H  H143  1  0.62766942  0.88603054  0.60709262  1
  H  H144  1  0.83540418  0.41896327  0.49354779  1
  H  H145  1  0.32280742  0.41434430  -0.00659517  1
  H  H146  1  0.28178072  0.75144846  -0.00637001  1
  H  H147  1  0.07085379  0.26885134  -0.00522045  1
  H  H148  1  0.67765623  0.41454112  0.50488926  1
  H  H149  1  0.66898312  0.42477611  0.00374706  1
  H  H150  1  0.82952939  0.42667382  0.00266383  1
  H  H151  1  0.06760500  0.58101737  0.49749719  1
  H  H152  1  0.40156989  0.92146336  0.49390187  1
  H  H153  1  0.77365561  0.07361217  0.52248713  1
  H  H154  1  0.78201946  0.07838451  -0.00480964  1
  H  H155  1  0.78219510  0.24789569  1.01046632  1
  H  H156  1  0.30603051  0.41899758  0.50358807  1
  H  H157  1  0.97514023  0.42641267  1.01073583  1
  H  H158  1  0.10152836  0.74805908  0.99140455  1
  H  H159  1  0.67297220  0.59001836  0.50725054  1
  H  H160  1  0.19432814  0.24602188  0.49608368  1
  H  H161  1  0.45328225  0.75091650  1.00267294  1
  H  H162  1  0.35532212  0.23966964  0.50899261  1
  H  H163  1  0.19486152  0.75077600  0.50416088  1
  H  H164  1  0.94839734  0.74762735  1.00286628  1
  H  H165  1  0.91927090  0.26432329  0.00890498  1
  H  H166  1  0.96013665  0.08141557  0.48994072  1
  H  H167  1  0.60664809  0.75331961  0.98780694  1
  H  H168  1  0.40895760  0.75030943  0.50456003  1
  H  H169  1  0.60920387  0.25721328  0.01370419  1
  H  H170  1  0.60236665  0.07958286  0.98951082  1
  H  H171  1  0.28908547  0.07937996  -0.00511502  1
  H  H172  1  0.14545074  0.42295331  0.48641160  1
  H  H173  1  0.83343303  0.75145580  0.49977095  1
  H  H174  1  0.45059793  0.25408517  -0.00754768  1
  H  H175  1  0.10380926  0.08392280  0.98863222  1
  H  H176  1  0.33534348  0.23910186  0.99343497  1
  H  H177  1  0.39393763  0.58694706  0.49118974  1
  H  H178  1  0.09120198  0.91834446  0.00495730  1
  H  H179  1  0.79217242  0.75398422  -0.00550069  1
  H  H180  1  0.52438104  0.42152378  1.01042336  1
  H  H181  1  0.40272878  0.58317692  0.00638547  1
  H  H182  1  0.44976109  0.07488488  1.00239752  1
  H  H183  1  0.04179290  0.25222712  0.50569596  1
  H  H184  1  0.12911139  0.07727344  0.49861509  1
  H  H185  1  0.53225720  0.24475234  0.50423729  1
  H  H186  1  0.45748086  0.42319982  0.49598800  1
  H  H187  1  0.95810332  0.07069205  1.00694046  1
  H  H188  1  0.17661314  0.23218960  1.00340073  1
  H  H189  1  0.16249446  0.41885916  -0.00411555  1
  H  H190  1  0.89046072  0.58435302  1.01014022  1
  H  H191  1  0.70873840  0.24946664  0.49452086  1
  Pb  Pb192  1  0.25989955  0.04666668  0.74907293  1
  Pb  Pb193  1  0.25655105  0.38018312  0.74083805  1
  Pb  Pb194  1  0.25016654  0.71837398  0.75262871  1
  Pb  Pb195  1  0.75699925  0.04648026  0.75966852  1
  Pb  Pb196  1  0.74956315  0.38290990  0.76210206  1
  Pb  Pb197  1  0.75597738  0.71706318  0.74910620  1
  Pb  Pb198  1  0.23784596  0.28306662  0.24616459  1
  Pb  Pb199  1  0.23994514  0.61611160  0.24677867  1
  Pb  Pb200  1  0.24364611  0.95301021  0.24634135  1
  Pb  Pb201  1  0.74299876  0.28266537  0.25394747  1
  Pb  Pb202  1  0.74212631  0.62032572  0.25238939  1
  Pb  Pb203  1  0.74006014  0.94934399  0.24995929  1
  Pb  Pb204  1  0.00038810  0.21707588  0.75549287  1
  Pb  Pb205  1  0.00475824  0.54734340  0.74905263  1
  Pb  Pb206  1  0.00164792  0.88284122  0.74804294  1
  Pb  Pb207  1  0.50562908  0.21256699  0.74073895  1
  Pb  Pb208  1  0.50269629  0.55166365  0.75694260  1
  Pb  Pb209  1  0.50429264  0.88226363  0.74960091  1
  Pb  Pb210  1  -0.01532518  0.11446173  0.25060000  1
  Pb  Pb211  1  -0.00852989  0.45371080  0.24967244  1
  Pb  Pb212  1  -0.00735845  0.78495084  0.24500914  1
  Pb  Pb213  1  0.48505039  0.11608026  0.24103922  1
  Pb  Pb214  1  0.49413048  0.45072819  0.24949484  1
  Pb  Pb215  1  0.48661478  0.78293819  0.24591853  1
  C  C216  1  0.01132905  0.04487206  0.63067386  1
  C  C217  1  0.00417013  0.37718984  0.63391417  1
  C  C218  1  -0.00260449  0.71141127  0.63409387  1
  C  C219  1  0.53051690  0.05038761  0.60538958  1
  C  C220  1  0.49853191  0.37951472  0.63506385  1
  C  C221  1  0.50006356  0.71084916  0.62542152  1
  C  C222  1  0.00606185  0.28703711  0.13562433  1
  C  C223  1  0.00122402  0.61977187  0.12932814  1
  C  C224  1  0.00274757  0.95191844  0.12831735  1
  C  C225  1  0.49816573  0.28643247  0.13515107  1
  C  C226  1  0.49422819  0.62102428  0.12802969  1
  C  C227  1  0.50680610  0.95252976  0.12866534  1
  C  C228  1  0.00704577  0.04336838  0.87044428  1
  C  C229  1  -0.00032102  0.38030041  0.86867082  1
  C  C230  1  0.00143871  0.70911138  0.86871477  1
  C  C231  1  0.50189081  0.04092494  0.86679649  1
  C  C232  1  0.50410452  0.37851520  0.87150430  1
  C  C233  1  0.50296997  0.71207884  0.86767764  1
  C  C234  1  -0.00490071  0.28942394  0.37061282  1
  C  C235  1  -0.00772964  0.62443851  0.36772020  1
  C  C236  1  -0.00098798  0.95602742  0.36780576  1
  C  C237  1  0.49610264  0.28916718  0.36786375  1
  C  C238  1  0.49785987  0.62202064  0.36856116  1
  C  C239  1  0.50050564  0.95622354  0.37464457  1
  C  C240  1  0.25335683  0.20639771  0.63393745  1
  C  C241  1  0.25120054  0.54577020  0.63723994  1
  C  C242  1  0.24936464  0.87909093  0.63038539  1
  C  C243  1  0.75652812  0.20916091  0.62961097  1
  C  C244  1  0.75543889  0.54407341  0.63352402  1
  C  C245  1  0.75291359  0.87790968  0.62857537  1
  C  C246  1  0.24363497  0.11898909  0.13473334  1
  C  C247  1  0.25009985  0.45575141  0.12197486  1
  C  C248  1  0.25025960  0.78963355  0.13210094  1
  C  C249  1  0.74909160  0.12017511  0.13252318  1
  C  C250  1  0.75024319  0.45647910  0.13697311  1
  C  C251  1  0.74828184  0.78917502  0.13575507  1
  C  C252  1  0.24328011  0.21492483  0.86256036  1
  C  C253  1  0.25069712  0.54504935  0.86731479  1
  C  C254  1  0.25190293  0.87964367  0.87172709  1
  C  C255  1  0.75221144  0.21150465  0.87069942  1
  C  C256  1  0.74980476  0.54597800  0.86390331  1
  C  C257  1  0.74668272  0.88051000  0.87600791  1
  C  C258  1  0.23914657  0.11979863  0.37452023  1
  C  C259  1  0.25078878  0.45639992  0.36406848  1
  C  C260  1  0.24588095  0.79007624  0.37084556  1
  C  C261  1  0.71415135  0.11628324  0.38492596  1
  C  C262  1  0.74705575  0.45576895  0.37075242  1
  C  C263  1  0.74804782  0.78884143  0.36952110  1
  C  C264  1  0.79045482  0.43373528  0.04226900  1
  C  C265  1  0.56021991  0.26516837  0.04714490  1
  C  C266  1  0.07185081  0.06803277  0.54298468  1
  C  C267  1  0.52469000  0.58728795  0.03419896  1
  C  C268  1  0.73959380  0.08658471  0.48161037  1
  C  C269  1  0.27430665  0.43016183  0.46114850  1
  C  C270  1  0.43052254  0.25547056  0.44978718  1
  C  C271  1  0.70279411  0.91011212  0.96614857  1
  C  C272  1  0.54065952  0.92037706  0.03692991  1
  C  C273  1  0.30871537  0.23123626  0.54435978  1
  C  C274  1  0.22723724  0.23461399  0.53795264  1
  C  C275  1  0.71370148  0.42545573  0.46443598  1
  C  C276  1  0.26025305  0.09293193  0.03808655  1
  C  C277  1  0.52489544  0.92274861  0.46965924  1
  C  C278  1  0.70838544  0.43330638  0.04285648  1
  C  C279  1  0.55797114  0.07043391  0.95378437  1
  C  C280  1  0.52242309  0.59498781  0.46502340  1
  C  C281  1  0.44138153  0.59616931  0.45767653  1
  C  C282  1  0.78706518  0.90988928  0.53676847  1
  C  C283  1  0.21138048  0.23002226  0.96077785  1
  C  C284  1  0.02913499  0.59310373  0.45876820  1
  C  C285  1  0.29301732  0.23145163  0.95595161  1
  C  C286  1  0.26772633  0.91379644  0.96585322  1
  C  C287  1  0.48511290  0.40928288  0.53939769  1
  C  C288  1  0.68335332  0.24162058  0.95273401  1
  C  C289  1  0.56105594  0.74309432  0.95319671  1
  C  C290  1  0.79195094  0.76150723  0.46241696  1
  C  C291  1  0.26138772  0.08667016  0.46865155  1
  C  C292  1  0.53074579  0.74595485  0.53198423  1
  C  C293  1  0.07624758  0.40618662  0.94784273  1
  C  C294  1  0.65689900  0.08966619  0.47415734  1
  C  C295  1  0.03866652  0.26876266  0.03860892  1
  C  C296  1  0.18054951  0.08972199  0.46126032  1
  C  C297  1  0.71038245  0.76075435  0.46313451  1
  C  C298  1  0.99105390  0.07067153  0.53307061  1
  C  C299  1  0.59157245  0.07783741  0.51738789  1
  C  C300  1  0.71394041  0.57666148  0.54409376  1
  C  C301  1  0.42730261  0.40446842  0.95136832  1
  C  C302  1  0.47947850  0.26334974  0.03656192  1
  C  C303  1  0.50852292  0.08289569  0.50896112  1
  C  C304  1  0.99846317  0.41178889  0.96612953  1
  C  C305  1  0.78365686  0.91044705  0.96783683  1
  C  C306  1  0.76400248  0.76391207  0.03896559  1
  C  C307  1  0.81507213  0.24537690  0.54502330  1
  C  C308  1  0.05726819  0.73935604  0.95545500  1
  C  C309  1  0.02019713  0.59030049  0.03291272  1
  C  C310  1  0.93962698  0.59332696  0.04233501  1
  C  C311  1  0.19288177  0.43213907  0.45283698  1
  N  N312  1  0.06119915  0.06548534  0.95841809  1
  N  N313  1  0.96130488  0.92482727  0.46003707  1
  N  N314  1  0.22844814  0.91203036  0.53575872  1
  N  N315  1  0.22797592  0.57641802  0.96240100  1
  N  N316  1  0.72451726  0.57334728  0.95986957  1
  N  N317  1  0.94991485  0.59264295  0.45959329  1
  N  N318  1  0.97822714  0.74270884  0.96141582  1
  N  N319  1  0.30225976  0.75997183  0.45780790  1
  N  N320  1  0.45220847  0.74254045  0.53756172  1
  N  N321  1  0.95814126  0.40572181  0.54292832  1
  N  N322  1  0.80021792  0.57167024  0.95410901  1
  N  N323  1  0.50804728  0.25292038  0.46070738  1
  N  N324  1  0.30420246  0.90997169  0.54352334  1
  N  N325  1  0.04894457  0.92514244  0.03968168  1
  N  N326  1  0.79316755  0.42415012  0.45921630  1
  N  N327  1  0.96219043  0.74301554  0.54140196  1
  N  N328  1  0.97111594  0.92513071  0.03309369  1
  N  N329  1  0.26044394  0.75689635  0.03870752  1
  N  N330  1  0.03476201  0.40656957  0.53939173  1
  N  N331  1  0.79296920  0.57687607  0.54081947  1
  N  N332  1  0.44684530  0.92808599  0.46170162  1
  N  N333  1  0.70991759  0.90942542  0.53665645  1
  N  N334  1  0.75957338  0.08654938  0.03953899  1
  N  N335  1  0.50344583  0.40993068  0.96699699  1
  N  N336  1  0.68316400  0.09123022  0.04959326  1
  N  N337  1  0.30021732  0.57381776  0.54736577  1
  N  N338  1  0.73701202  0.24323230  0.53653082  1
  N  N339  1  0.44598661  0.59068396  0.03989429  1
  N  N340  1  0.30399215  0.57400263  0.95560954  1
  N  N341  1  0.03739352  0.92515933  0.45996659  1
  N  N342  1  0.18406370  0.75866130  0.05015145  1
  N  N343  1  0.48222583  0.74584882  0.96072003  1
  N  N344  1  0.47892566  0.07246153  0.96039639  1
  N  N345  1  0.56309470  0.40546079  0.54912631  1
  N  N346  1  0.20649064  0.42178334  0.03395294  1
  N  N347  1  0.22422411  0.75694154  0.46288514  1
  N  N348  1  0.03879644  0.74194533  0.54249837  1
  N  N349  1  0.22426441  0.57466398  0.54195608  1
  N  N350  1  0.46331257  0.92050472  0.03700223  1
  N  N351  1  0.98321562  0.07533981  0.96332922  1
  N  N352  1  0.68595133  0.76510828  0.04871413  1
  N  N353  1  0.95972404  0.26414333  0.04449782  1
  N  N354  1  0.28418272  0.43207738  0.02802811  1
  N  N355  1  0.18213507  0.09821239  0.04639023  1
  N  N356  1  0.01498184  0.25729474  0.46307240  1
  N  N357  1  0.76060582  0.24335300  0.96564295  1
  N  N358  1  0.19102632  0.90959623  0.95781457  1
  N  N359  1  0.93738330  0.25882208  0.45703825  1
  N  N360  1  0.08335056  0.05283009  0.60315655  1
  N  N361  1  0.06444619  0.38891278  0.59565498  1
  N  N362  1  0.06178612  0.72224348  0.59984939  1
  N  N363  1  0.60180773  0.05769081  0.57868469  1
  N  N364  1  0.56963842  0.38720270  0.60886885  1
  N  N365  1  0.56067919  0.72661623  0.58645747  1
  N  N366  1  0.44188888  0.27661341  0.09176859  1
  N  N367  1  0.42653071  0.61210320  0.09750820  1
  N  N368  1  0.44194767  0.94063034  0.09562065  1
  N  N369  1  0.93949706  0.27846631  0.10366031  1
  N  N370  1  0.92942017  0.61161280  0.10333895  1
  N  N371  1  0.94271623  0.94055358  0.08907554  1
  N  N372  1  0.44452228  0.05098727  0.90779433  1
  N  N373  1  0.42795260  0.38608614  0.89184767  1
  N  N374  1  0.44640426  0.72355026  0.90902953  1
  N  N375  1  0.94949254  0.05192584  0.91200615  1
  N  N376  1  0.95110247  0.39498853  0.91540386  1
  N  N377  1  0.94369847  0.72081619  0.90902180  1
  N  N378  1  0.05179161  0.27845292  0.41204189  1
  N  N379  1  0.05679808  0.61186786  0.40252550  1
  N  N380  1  0.06240918  0.94470479  0.40297988  1
  N  N381  1  0.54946830  0.27672568  0.41126688  1
  N  N382  1  0.55622974  0.61047894  0.41113815  1
  N  N383  1  0.55853317  0.94010890  0.41581793  1
  N  N384  1  0.32334647  0.21430816  0.60436181  1
  N  N385  1  0.31842459  0.55625738  0.60630311  1
  N  N386  1  0.31853096  0.88984355  0.60217230  1
  N  N387  1  0.82724474  0.22482906  0.60276275  1
  N  N388  1  0.81730542  0.55665687  0.59704723  1
  N  N389  1  0.81641610  0.89116848  0.59205612  1
  N  N390  1  0.17323749  0.11402219  0.10688748  1
  N  N391  1  0.18479981  0.44331098  0.08936803  1
  N  N392  1  0.17834583  0.77682025  0.10897044  1
  N  N393  1  0.67703517  0.11018461  0.10818520  1
  N  N394  1  0.68482504  0.44706227  0.10200994  1
  N  N395  1  0.67763175  0.78092816  0.10902009  1
  N  N396  1  0.18145859  0.22017213  0.90224053  1
  N  N397  1  0.19361493  0.55835553  0.90797727  1
  N  N398  1  0.18114690  0.88830994  0.89778275  1
  N  N399  1  0.67792804  0.22337431  0.89349578  1
  N  N400  1  0.69172389  0.55756391  0.90426411  1
  N  N401  1  0.68015537  0.89224714  0.90996405  1
  N  N402  1  0.29638713  0.10490650  0.41633203  1
  N  N403  1  0.30903220  0.44521812  0.40545309  1
  N  N404  1  0.31459186  0.77805078  0.39950047  1
  N  N405  1  0.77273444  0.10359071  0.42591570  1
  N  N406  1  0.81342258  0.44437191  0.40201507  1
  N  N407  1  0.81414866  0.77897670  0.40297947  1
  N  N408  1  0.42258703  0.27659736  0.39185391  1
  N  N409  1  0.42761130  0.61298546  0.39663956  1
  N  N410  1  0.43115274  0.94950815  0.40344833  1
  N  N411  1  0.92582111  0.27659076  0.39832563  1
  N  N412  1  0.92861154  0.61226485  0.40256982  1
  N  N413  1  0.93577805  0.94390813  0.40298374  1
  N  N414  1  0.07601443  0.05532935  0.89834900  1
  N  N415  1  0.07616234  0.38754404  0.88864926  1
  N  N416  1  0.07194087  0.72031098  0.89730808  1
  N  N417  1  0.57239475  0.05276533  0.89512140  1
  N  N418  1  0.55165087  0.39222888  0.91831806  1
  N  N419  1  0.57413338  0.72342772  0.89507910  1
  N  N420  1  0.06800966  0.28090840  0.09548442  1
  N  N421  1  0.05727962  0.60630200  0.08527931  1
  N  N422  1  0.06958867  0.94222333  0.09691751  1
  N  N423  1  0.57019974  0.27950456  0.10849128  1
  N  N424  1  0.55477176  0.60595065  0.08867563  1
  N  N425  1  0.57016380  0.93962107  0.09197766  1
  N  N426  1  0.47363337  0.06618593  0.56215036  1
  N  N427  1  0.44396041  0.39302187  0.59154353  1
  N  N428  1  0.43238333  0.71991395  0.59493956  1
  N  N429  1  0.95451564  0.05616499  0.58875183  1
  N  N430  1  0.93812207  0.38796838  0.60151755  1
  N  N431  1  0.93527234  0.72413081  0.59796212  1
  N  N432  1  0.16798809  0.11034351  0.40166009  1
  N  N433  1  0.18008891  0.44812270  0.39242412  1
  N  N434  1  0.18848171  0.77831481  0.41137074  1
  N  N435  1  0.64390833  0.10820129  0.41334073  1
  N  N436  1  0.68494227  0.44371636  0.40900286  1
  N  N437  1  0.68409361  0.77711729  0.40704372  1
  N  N438  1  0.31158935  0.22215756  0.89472505  1
  N  N439  1  0.31925907  0.55525641  0.89643693  1
  N  N440  1  0.30731569  0.89557283  0.91444207  1
  N  N441  1  0.80404627  0.22137653  0.91595604  1
  N  N442  1  0.81752785  0.55497625  0.89471954  1
  N  N443  1  0.81051336  0.89255720  0.91276832  1
  N  N444  1  0.29928295  0.10637664  0.09170147  1
  N  N445  1  0.31198115  0.44541242  0.08486052  1
  N  N446  1  0.30203763  0.77874314  0.08702069  1
  N  N447  1  0.80122197  0.10727407  0.08825745  1
  N  N448  1  0.81505708  0.44772664  0.10111907  1
  N  N449  1  0.80364164  0.77841538  0.09203140  1
  N  N450  1  0.19409647  0.21919229  0.59410648  1
  N  N451  1  0.19248513  0.55725195  0.59750665  1
  N  N452  1  0.19297678  0.89266610  0.58939104  1
  N  N453  1  0.70004932  0.21826864  0.58755742  1
  N  N454  1  0.68914699  0.55678890  0.60074522  1
  N  N455  1  0.68830394  0.88902920  0.59506896  1
  Cl  Cl456  1  0.27389306  0.05668244  0.62185732  1
  Cl  Cl457  1  0.25425293  0.39018098  0.60674432  1
  Cl  Cl458  1  0.24599022  0.72616012  0.61569793  1
  Cl  Cl459  1  0.77535990  0.05147874  0.62595873  1
  Cl  Cl460  1  0.75525585  0.38494295  0.62386001  1
  Cl  Cl461  1  0.74789641  0.72543488  0.61608763  1
  Cl  Cl462  1  0.25434152  0.28069658  0.11070697  1
  Cl  Cl463  1  0.24331985  0.60894819  0.11355610  1
  Cl  Cl464  1  0.25381821  0.94458060  0.11236460  1
  Cl  Cl465  1  0.75957852  0.26710150  0.11046615  1
  Cl  Cl466  1  0.73769705  0.61348827  0.12478144  1
  Cl  Cl467  1  0.75765886  0.94635756  0.11461269  1
  Cl  Cl468  1  0.26111071  0.05303977  0.89007363  1
  Cl  Cl469  1  0.25349116  0.38929272  0.87512550  1
  Cl  Cl470  1  0.26444410  0.73284919  0.89703219  1
  Cl  Cl471  1  0.76809739  0.06113901  0.89928700  1
  Cl  Cl472  1  0.74869208  0.39123547  0.89751753  1
  Cl  Cl473  1  0.76144531  0.72937466  0.88590514  1
  Cl  Cl474  1  0.23295909  0.27197777  0.38064766  1
  Cl  Cl475  1  0.24032689  0.61675317  0.37715523  1
  Cl  Cl476  1  0.24670069  0.94809450  0.37790087  1
  Cl  Cl477  1  0.73318831  0.26985929  0.39418471  1
  Cl  Cl478  1  0.73998426  0.61326930  0.38807840  1
  Cl  Cl479  1  0.74686129  0.94518643  0.38243871  1
  Cl  Cl480  1  0.01143658  0.22882506  0.61756513  1
  Cl  Cl481  1  0.00726988  0.55653279  0.61437537  1
  Cl  Cl482  1  0.00577744  0.89021248  0.61715906  1
  Cl  Cl483  1  0.51764084  0.22274305  0.59914867  1
  Cl  Cl484  1  0.50303891  0.55499146  0.62567087  1
  Cl  Cl485  1  0.50332592  0.88796289  0.61305502  1
  Cl  Cl486  1  -0.01796984  0.10154763  0.10416516  1
  Cl  Cl487  1  0.00196739  0.44610436  0.11471900  1
  Cl  Cl488  1  -0.01330741  0.77271086  0.10514839  1
  Cl  Cl489  1  0.48302160  0.10097210  0.10450903  1
  Cl  Cl490  1  0.49734780  0.44613917  0.10542169  1
  Cl  Cl491  1  0.48291056  0.76952180  0.10400971  1
  Cl  Cl492  1  -0.01139431  0.22843976  0.89700746  1
  Cl  Cl493  1  0.00600271  0.55709515  0.88246667  1
  Cl  Cl494  1  -0.00381769  0.88556310  0.88171920  1
  Cl  Cl495  1  0.49574776  0.22001468  0.87263355  1
  Cl  Cl496  1  0.50523433  0.55392576  0.89373714  1
  Cl  Cl497  1  0.49287888  0.88824115  0.88073727  1
  Cl  Cl498  1  -0.03121670  0.11170364  0.38257642  1
  Cl  Cl499  1  -0.00467826  0.44553728  0.37917875  1
  Cl  Cl500  1  0.00608230  0.77500197  0.37535444  1
  Cl  Cl501  1  0.47133876  0.11520048  0.37559505  1
  Cl  Cl502  1  0.49663800  0.44286971  0.38425010  1
  Cl  Cl503  1  0.49758303  0.78210666  0.38008463  1
  Cl  Cl504  1  0.36566831  0.15105543  0.75153552  1
  Cl  Cl505  1  0.37038528  0.47876877  0.75390768  1
  Cl  Cl506  1  0.36582039  0.81607252  0.74317097  1
  Cl  Cl507  1  0.86230612  0.15175693  0.74911522  1
  Cl  Cl508  1  0.86548924  0.48136363  0.75107922  1
  Cl  Cl509  1  0.86006193  0.82087177  0.74946971  1
  Cl  Cl510  1  0.12787680  0.19001787  0.23918650  1
  Cl  Cl511  1  0.13877617  0.51543768  0.24903056  1
  Cl  Cl512  1  0.13065662  0.85393941  0.23979305  1
  Cl  Cl513  1  0.63158889  0.18859095  0.24185459  1
  Cl  Cl514  1  0.63187120  0.51816573  0.25333764  1
  Cl  Cl515  1  0.63386881  0.85437627  0.24331561  1
  Cl  Cl516  1  0.14231859  0.14368038  0.75090674  1
  Cl  Cl517  1  0.14251556  0.47846493  0.75035854  1
  Cl  Cl518  1  0.14508539  0.81012516  0.76226689  1
  Cl  Cl519  1  0.64209938  0.14585376  0.75838796  1
  Cl  Cl520  1  0.64473329  0.47795176  0.74758008  1
  Cl  Cl521  1  0.64000167  0.81451201  0.75431861  1
  Cl  Cl522  1  0.34916244  0.18226832  0.25225577  1
  Cl  Cl523  1  0.35808831  0.51826781  0.24146725  1
  Cl  Cl524  1  0.35190722  0.84984642  0.25600454  1
  Cl  Cl525  1  0.85264219  0.18341186  0.25176032  1
  Cl  Cl526  1  0.85263360  0.51828539  0.25517475  1
  Cl  Cl527  1  0.85540561  0.85035781  0.25587174  1
  Cl  Cl528  1  0.12187970  0.31096426  0.75919706  1
  Cl  Cl529  1  0.11817999  0.64803829  0.75262348  1
  Cl  Cl530  1  0.12188894  0.97847604  0.75750286  1
  Cl  Cl531  1  0.61352110  0.31522984  0.74761687  1
  Cl  Cl532  1  0.61559044  0.64851183  0.75457637  1
  Cl  Cl533  1  0.61793201  0.98280421  0.74759837  1
  Cl  Cl534  1  0.39258311  0.01375451  0.24826092  1
  Cl  Cl535  1  0.39045337  0.34767967  0.25486668  1
  Cl  Cl536  1  0.38800603  0.68542510  0.25378600  1
  Cl  Cl537  1  0.89364800  0.01391105  0.24540858  1
  Cl  Cl538  1  0.88195705  0.35090863  0.25017187  1
  Cl  Cl539  1  0.88578649  0.68145251  0.24414950  1
  Cl  Cl540  1  0.39215251  0.31217964  0.75257420  1
  Cl  Cl541  1  0.39546819  0.64544033  0.75091550  1
  Cl  Cl542  1  0.40003593  0.98550518  0.74357829  1
  Cl  Cl543  1  0.89884432  0.31449111  0.74816791  1
  Cl  Cl544  1  0.89308977  0.64830296  0.75190194  1
  Cl  Cl545  1  0.90035673  0.98679269  0.75191087  1
  Cl  Cl546  1  0.11328643  0.02545331  0.23873442  1
  Cl  Cl547  1  0.10484055  0.35360299  0.25257670  1
  Cl  Cl548  1  0.10759619  0.68637985  0.24093113  1
  Cl  Cl549  1  0.61049977  0.02471514  0.25262912  1
  Cl  Cl550  1  0.61532654  0.35637352  0.23869833  1
  Cl  Cl551  1  0.60471893  0.68661955  0.24744861  1
