# generated using pymatgen
data_H8PbC4(N3Cl2)2
_symmetry_space_group_name_H-M   'P 1'
_cell_length_a   16.63039660
_cell_length_b   22.52865197
_cell_length_c   21.60018311
_cell_angle_alpha   90.00167585
_cell_angle_beta   90.01097314
_cell_angle_gamma   90.00491232
_symmetry_Int_Tables_number   1
_chemical_formula_structural   H8PbC4(N3Cl2)2
_chemical_formula_sum   'H192 Pb24 C96 N144 Cl96'
_cell_volume   8092.73343275
_cell_formula_units_Z   24
loop_
 _symmetry_equiv_pos_site_id
 _symmetry_equiv_pos_as_xyz
  1  'x, y, z'
loop_
 _atom_site_type_symbol
 _atom_site_label
 _atom_site_symmetry_multiplicity
 _atom_site_fract_x
 _atom_site_fract_y
 _atom_site_fract_z
 _atom_site_occupancy
  H  H0  1  -0.01373346  0.02827594  0.67701412  1
  H  H1  1  0.00947800  0.36075474  0.68096469  1
  H  H2  1  0.00771543  0.69781304  0.67999912  1
  H  H3  1  0.51574394  0.02747501  0.67863417  1
  H  H4  1  0.47611114  0.36561674  0.67378875  1
  H  H5  1  0.50126503  0.69252137  0.67578115  1
  H  H6  1  -0.01138453  0.30503453  0.17212624  1
  H  H7  1  0.00156935  0.64553742  0.17582333  1
  H  H8  1  0.00461113  0.97362320  0.17701339  1
  H  H9  1  0.47518864  0.29749569  0.16012876  1
  H  H10  1  0.48600370  0.64493319  0.17753866  1
  H  H11  1  0.50207710  0.97619832  0.17393461  1
  H  H12  1  -0.00043159  0.02557514  0.81983500  1
  H  H13  1  -0.00635624  0.36462609  0.82499397  1
  H  H14  1  0.00875754  0.69198923  0.82466778  1
  H  H15  1  0.49144792  0.02352646  0.82219723  1
  H  H16  1  0.50748200  0.36179867  0.82050204  1
  H  H17  1  0.50140357  0.69901664  0.81468619  1
  H  H18  1  -0.00094076  0.30090508  0.32032829  1
  H  H19  1  0.00895438  0.63349256  0.31690124  1
  H  H20  1  -0.00250421  0.96875580  0.32316956  1
  H  H21  1  0.48505025  0.31102374  0.32406842  1
  H  H22  1  0.50622701  0.64087193  0.32336439  1
  H  H23  1  0.50234581  0.96778524  0.32364200  1
  H  H24  1  0.24057514  0.19348981  0.67836549  1
  H  H25  1  0.24189828  0.53022329  0.68131897  1
  H  H26  1  0.25354856  0.85983562  0.67372647  1
  H  H27  1  0.73972750  0.19790568  0.67471765  1
  H  H28  1  0.75136730  0.52752203  0.68331782  1
  H  H29  1  0.75280668  0.86268376  0.67658789  1
  H  H30  1  0.24846939  0.13903938  0.17370741  1
  H  H31  1  0.26885172  0.46702697  0.17635274  1
  H  H32  1  0.23936718  0.80469426  0.17715661  1
  H  H33  1  0.76000374  0.13570476  0.17913586  1
  H  H34  1  0.73675512  0.47245003  0.17546618  1
  H  H35  1  0.74467167  0.80499719  0.18258487  1
  H  H36  1  0.27436446  0.19576261  0.84662524  1
  H  H37  1  0.26061964  0.52819420  0.81968225  1
  H  H38  1  0.24235685  0.85780480  0.82524719  1
  H  H39  1  0.76128036  0.19172843  0.82873423  1
  H  H40  1  0.74381736  0.53021021  0.82351232  1
  H  H41  1  0.76580476  0.86510618  0.81980317  1
  H  H42  1  0.25692600  0.13562012  0.31921072  1
  H  H43  1  0.25347834  0.47162766  0.31896113  1
  H  H44  1  0.23955134  0.80509669  0.32135307  1
  H  H45  1  0.73556769  0.13931555  0.32473751  1
  H  H46  1  0.74906655  0.47326065  0.32322478  1
  H  H47  1  0.74909776  0.80233741  0.32198814  1
  H  H48  1  0.11465118  0.05364574  0.61126147  1
  H  H49  1  0.11407884  0.38844578  0.59578135  1
  H  H50  1  0.11258485  0.72819884  0.59707308  1
  H  H51  1  0.61223562  0.05974035  0.58947359  1
  H  H52  1  0.61537526  0.38073872  0.62356777  1
  H  H53  1  0.62311301  0.71876912  0.60551793  1
  H  H54  1  0.33882369  0.27815125  0.10419831  1
  H  H55  1  0.38330116  0.60988967  0.09342564  1
  H  H56  1  0.36715997  0.94890240  0.11577931  1
  H  H57  1  0.85249868  0.27896250  0.11862661  1
  H  H58  1  0.87819168  0.61534278  0.10705589  1
  H  H59  1  0.87088590  0.94855779  0.11703900  1
  H  H60  1  0.38008574  0.05901844  0.89919934  1
  H  H61  1  0.36871710  0.38545996  0.87334060  1
  H  H62  1  0.36944258  0.72211486  0.88066494  1
  H  H63  1  0.88436369  0.05618625  0.89705437  1
  H  H64  1  0.87556999  0.39084980  0.90047248  1
  H  H65  1  0.87423466  0.71264986  0.88085440  1
  H  H66  1  0.11037180  0.27535169  0.40219964  1
  H  H67  1  0.11699528  0.60892353  0.40119576  1
  H  H68  1  0.10905827  0.94320909  0.40222562  1
  H  H69  1  0.61256540  0.28304298  0.38913490  1
  H  H70  1  0.62341855  0.60970984  0.39677083  1
  H  H71  1  0.61163353  0.94009531  0.40584728  1
  H  H72  1  0.37587745  0.21797192  0.62010421  1
  H  H73  1  0.38230230  0.54684467  0.63002740  1
  H  H74  1  0.38774621  0.88500413  0.61598831  1
  H  H75  1  0.88016826  0.21896156  0.62191495  1
  H  H76  1  0.87904907  0.55292345  0.61371455  1
  H  H77  1  0.89000157  0.88499526  0.62241782  1
  H  H78  1  0.11622819  0.11471813  0.11175142  1
  H  H79  1  0.12733953  0.45246772  0.12300093  1
  H  H80  1  0.13088762  0.77693143  0.09639448  1
  H  H81  1  0.62242989  0.11648172  0.12496244  1
  H  H82  1  0.64156534  0.43382297  0.08888089  1
  H  H83  1  0.63689130  0.77949664  0.10137711  1
  H  H84  1  0.16801862  0.23541774  0.92458844  1
  H  H85  1  0.11853090  0.54780884  0.86670464  1
  H  H86  1  0.13732027  0.88839886  0.90938004  1
  H  H87  1  0.65080732  0.22300364  0.90796580  1
  H  H88  1  0.61936860  0.55399149  0.89294608  1
  H  H89  1  0.63488804  0.88650629  0.88296571  1
  H  H90  1  0.37895893  0.11113935  0.38999891  1
  H  H91  1  0.38795094  0.44951156  0.38134816  1
  H  H92  1  0.38043987  0.78255935  0.37272103  1
  H  H93  1  0.88062777  0.11805130  0.36920302  1
  H  H94  1  0.87922285  0.44996340  0.38562522  1
  H  H95  1  0.88287002  0.77934448  0.38463592  1
  H  H96  1  0.36508629  0.28126662  0.39857899  1
  H  H97  1  0.37542614  0.61597444  0.38684594  1
  H  H98  1  0.36585403  0.94885930  0.38319551  1
  H  H99  1  0.86374527  0.28063671  0.37891561  1
  H  H100  1  0.87056804  0.61490224  0.37137869  1
  H  H101  1  0.86129881  0.94933572  0.37987580  1
  H  H102  1  0.13197435  0.05144335  0.88368730  1
  H  H103  1  0.12304617  0.38728227  0.88866025  1
  H  H104  1  0.12062948  0.72521113  0.90069558  1
  H  H105  1  0.62685010  0.04812653  0.88064233  1
  H  H106  1  0.61390314  0.39183616  0.90420830  1
  H  H107  1  0.61795668  0.72221564  0.89414010  1
  H  H108  1  0.09729228  0.27327646  0.09240299  1
  H  H109  1  0.12687958  0.61711394  0.10741846  1
  H  H110  1  0.11846967  0.94264749  0.10080909  1
  H  H111  1  0.58587103  0.26885324  0.08215402  1
  H  H112  1  0.62683760  0.62236623  0.12952247  1
  H  H113  1  0.61536570  0.94290497  0.09870437  1
  H  H114  1  0.37178060  0.04782080  0.63120967  1
  H  H115  1  0.37194358  0.39114320  0.59069431  1
  H  H116  1  0.37484157  0.71844643  0.61137248  1
  H  H117  1  0.86685615  0.05709839  0.60242333  1
  H  H118  1  0.86869767  0.38382175  0.62857729  1
  H  H119  1  0.86722864  0.71818097  0.62719049  1
  H  H120  1  0.13002689  0.11410039  0.38599215  1
  H  H121  1  0.13937371  0.44420066  0.39714988  1
  H  H122  1  0.13776959  0.77362729  0.40751440  1
  H  H123  1  0.64113561  0.10500579  0.41424563  1
  H  H124  1  0.63080245  0.44760245  0.39575804  1
  H  H125  1  0.63561542  0.77495394  0.40241722  1
  H  H126  1  0.41410597  0.21920845  0.89770666  1
  H  H127  1  0.36199690  0.55706738  0.90503325  1
  H  H128  1  0.38214587  0.88267145  0.87598348  1
  H  H129  1  0.89595082  0.22164261  0.88526461  1
  H  H130  1  0.86829617  0.55761108  0.89236619  1
  H  H131  1  0.88368879  0.88614546  0.89499211  1
  H  H132  1  0.36440282  0.10590418  0.10107942  1
  H  H133  1  0.36992096  0.43700786  0.08891022  1
  H  H134  1  0.37661102  0.78640223  0.12376761  1
  H  H135  1  0.86891779  0.10980420  0.09834138  1
  H  H136  1  0.88181147  0.45794912  0.12878506  1
  H  H137  1  0.88406225  0.78730647  0.12720570  1
  H  H138  1  0.13050670  0.22377370  0.59807745  1
  H  H139  1  0.13707541  0.55701540  0.59749314  1
  H  H140  1  0.14063136  0.89221037  0.59736253  1
  H  H141  1  0.63422554  0.22791415  0.59216919  1
  H  H142  1  0.63081763  0.55359469  0.60890743  1
  H  H143  1  0.64299693  0.88619839  0.59552394  1
  H  H144  1  0.89618100  0.75114457  0.99324923  1
  H  H145  1  0.64227308  0.08570338  1.01134409  1
  H  H146  1  0.14496011  0.42073901  0.01442072  1
  H  H147  1  0.36790498  0.57604010  0.51591852  1
  H  H148  1  0.72078615  0.25206951  1.00997567  1
  H  H149  1  0.80225617  0.07913991  -0.00695893  1
  H  H150  1  0.28660398  0.58826014  1.00638083  1
  H  H151  1  0.15240554  0.07992561  0.00659474  1
  H  H152  1  0.04430864  0.91512397  0.50963326  1
  H  H153  1  0.46080840  0.58439712  -0.00424910  1
  H  H154  1  0.87693200  0.91576363  0.50152486  1
  H  H155  1  0.68055371  0.41812102  0.50492469  1
  H  H156  1  0.12821207  0.57987612  -0.01983748  1
  H  H157  1  0.87213510  0.41603659  0.02492131  1
  H  H158  1  0.39580180  0.91796330  0.00736793  1
  H  H159  1  0.55400295  0.90858304  -0.00633250  1
  H  H160  1  0.86207506  0.24819848  0.51126541  1
  H  H161  1  0.72754196  0.41469435  -0.00691337  1
  H  H162  1  0.52521929  0.23954253  -0.02466466  1
  H  H163  1  0.20795948  0.92151940  0.49502714  1
  H  H164  1  0.53936108  0.41692201  1.00387490  1
  H  H165  1  0.42246704  0.25388186  0.50036867  1
  H  H166  1  0.89090484  0.58706232  0.48509372  1
  H  H167  1  0.02787818  0.24705302  -0.00998934  1
  H  H168  1  0.70534246  0.75065832  -0.00494739  1
  H  H169  1  0.88666170  0.74625523  0.51783764  1
  H  H170  1  0.41383207  0.74937014  0.49924841  1
  H  H171  1  0.81878745  0.58508969  0.99856839  1
  H  H172  1  0.23892839  0.25708020  1.02708770  1
  H  H173  1  0.04016811  0.75899927  0.49442985  1
  H  H174  1  0.20397852  0.41305067  0.50202144  1
  H  H175  1  0.20112730  0.25138368  0.49796515  1
  H  H176  1  0.72899030  0.07971312  0.50841332  1
  H  H177  1  0.92284765  0.08390003  0.49995216  1
  H  H178  1  0.33358509  0.08349944  0.49973424  1
  H  H179  1  0.03822735  0.41679692  0.49412394  1
  H  H180  1  0.20879006  0.58646116  0.49399022  1
  H  H181  1  0.21924385  0.74939687  0.50552802  1
  H  H182  1  0.16986241  0.08281639  0.49679528  1
  H  H183  1  0.84549865  0.41986536  0.49750422  1
  H  H184  1  0.70626181  0.26068807  0.49000626  1
  H  H185  1  0.52659710  0.08436628  0.49410919  1
  H  H186  1  0.70929680  0.91437067  0.48906748  1
  H  H187  1  0.04539070  0.57819950  0.49951000  1
  H  H188  1  0.83009735  0.91545703  1.00377886  1
  H  H189  1  0.61523769  0.58753823  0.01717406  1
  H  H190  1  0.53919552  0.90896420  0.50507002  1
  H  H191  1  0.35716046  0.75254556  1.00992736  1
  Pb  Pb192  1  0.25060580  0.04936277  0.75549159  1
  Pb  Pb193  1  0.24931592  0.38145675  0.74046971  1
  Pb  Pb194  1  0.24945998  0.71584344  0.74213073  1
  Pb  Pb195  1  0.75633082  0.05213066  0.74524122  1
  Pb  Pb196  1  0.74922824  0.37943297  0.76191456  1
  Pb  Pb197  1  0.74805865  0.71636124  0.75471062  1
  Pb  Pb198  1  0.24516280  0.28578334  0.25907999  1
  Pb  Pb199  1  0.25538873  0.61463209  0.24944218  1
  Pb  Pb200  1  0.24698472  0.95212472  0.25668413  1
  Pb  Pb201  1  0.74476910  0.28298031  0.24186956  1
  Pb  Pb202  1  0.75115269  0.61685438  0.24375943  1
  Pb  Pb203  1  0.74704552  0.95267129  0.24890696  1
  Pb  Pb204  1  0.01236050  0.21677556  0.75939515  1
  Pb  Pb205  1  -0.00155346  0.54838634  0.73891844  1
  Pb  Pb206  1  0.00638626  0.88205784  0.75530825  1
  Pb  Pb207  1  0.50446675  0.21551428  0.74103746  1
  Pb  Pb208  1  0.50082709  0.54790096  0.76142158  1
  Pb  Pb209  1  0.50630822  0.88310360  0.74306496  1
  Pb  Pb210  1  0.00174335  0.11901436  0.24747295  1
  Pb  Pb211  1  0.00222568  0.44950821  0.25548592  1
  Pb  Pb212  1  0.00629644  0.78281767  0.25371427  1
  Pb  Pb213  1  0.49743839  0.11826971  0.25703589  1
  Pb  Pb214  1  0.50512076  0.44545270  0.23867099  1
  Pb  Pb215  1  0.50452260  0.78501177  0.25171215  1
  C  C216  1  -0.01128156  0.04591291  0.63032344  1
  C  C217  1  -0.00282539  0.37718762  0.63462183  1
  C  C218  1  -0.00501728  0.71267223  0.63306566  1
  C  C219  1  0.50006269  0.04360858  0.63290558  1
  C  C220  1  0.48844086  0.37942803  0.62670124  1
  C  C221  1  0.49909982  0.70930798  0.62884793  1
  C  C222  1  -0.02052756  0.28752062  0.12586953  1
  C  C223  1  0.00257473  0.62715791  0.12972614  1
  C  C224  1  -0.00221888  0.95594878  0.13084344  1
  C  C225  1  0.46595665  0.28240614  0.11284728  1
  C  C226  1  0.49877937  0.62698701  0.13183372  1
  C  C227  1  0.49423895  0.95723855  0.12794244  1
  C  C228  1  0.00537863  0.04251204  0.86671694  1
  C  C229  1  -0.00295183  0.38050717  0.87209411  1
  C  C230  1  0.00048336  0.70969448  0.87086649  1
  C  C231  1  0.49992338  0.04210522  0.86779705  1
  C  C232  1  0.49698829  0.37793607  0.86697564  1
  C  C233  1  0.49619285  0.71389970  0.86230660  1
  C  C234  1  -0.00872552  0.28633936  0.36767017  1
  C  C235  1  -0.00113419  0.61929955  0.36442680  1
  C  C236  1  -0.01088115  0.95395705  0.37054732  1
  C  C237  1  0.48698622  0.29332042  0.37074654  1
  C  C238  1  0.50140166  0.62316170  0.36964672  1
  C  C239  1  0.49332436  0.95234030  0.37072163  1
  C  C240  1  0.24900077  0.21045345  0.63183698  1
  C  C241  1  0.25431725  0.54454840  0.63421642  1
  C  C242  1  0.26051361  0.87766892  0.62757693  1
  C  C243  1  0.75226377  0.21364421  0.62804457  1
  C  C244  1  0.75407488  0.54375897  0.63602794  1
  C  C245  1  0.76216780  0.87761145  0.62933963  1
  C  C246  1  0.24263622  0.12042855  0.12768888  1
  C  C247  1  0.25513083  0.45232721  0.12963996  1
  C  C248  1  0.24990386  0.78940100  0.13032134  1
  C  C249  1  0.74989561  0.12069716  0.13192237  1
  C  C250  1  0.75359760  0.45517536  0.13019060  1
  C  C251  1  0.75492589  0.79082941  0.13526265  1
  C  C252  1  0.28534481  0.21538022  0.89188277  1
  C  C253  1  0.24640436  0.54391770  0.86595622  1
  C  C254  1  0.25394798  0.87566102  0.87085092  1
  C  C255  1  0.76942258  0.21077812  0.87444199  1
  C  C256  1  0.74432373  0.54633263  0.87074814  1
  C  C257  1  0.76170741  0.87907912  0.86767555  1
  C  C258  1  0.25534793  0.12056962  0.36700760  1
  C  C259  1  0.26047557  0.45533996  0.36593238  1
  C  C260  1  0.25243727  0.78881324  0.36749854  1
  C  C261  1  0.75237777  0.12236333  0.36994914  1
  C  C262  1  0.75331041  0.45686529  0.37038634  1
  C  C263  1  0.75610817  0.78655213  0.36923786  1
  C  C264  1  0.52123910  0.92235214  0.03502204  1
  C  C265  1  0.17898312  0.57078405  0.94962675  1
  C  C266  1  0.01234573  0.74481414  0.53772446  1
  C  C267  1  0.71967481  0.42902246  0.46538579  1
  C  C268  1  0.69011859  0.09454603  0.04462590  1
  C  C269  1  0.02279667  0.92026274  0.03866844  1
  C  C270  1  0.93876550  0.26057823  0.45650958  1
  C  C271  1  0.70150170  0.57523993  0.96336703  1
  C  C272  1  0.21151470  0.09375245  0.45972720  1
  C  C273  1  0.77138486  0.09169929  0.03540195  1
  C  C274  1  0.82152752  0.90363343  0.54210807  1
  C  C275  1  0.02588517  0.74363146  0.96447746  1
  C  C276  1  0.27417547  0.08409210  0.03511776  1
  C  C277  1  0.96538742  0.59343437  0.03873751  1
  C  C278  1  0.25914070  0.57455286  0.96286286  1
  C  C279  1  0.43488866  0.41030199  0.95163765  1
  C  C280  1  0.56483106  0.59603960  0.04954201  1
  C  C281  1  0.31285902  0.90496387  0.95579713  1
  C  C282  1  0.01090120  0.40625314  0.53879808  1
  C  C283  1  0.23629045  0.42497942  0.45991625  1
  C  C284  1  0.31838519  0.56822945  0.54800973  1
  C  C285  1  0.23781364  0.57312907  0.53698257  1
  C  C286  1  0.47716427  0.07794113  0.96039812  1
  C  C287  1  0.74056967  0.90401829  0.53217031  1
  C  C288  1  0.30887263  0.76165313  0.04271318  1
  C  C289  1  0.04321796  0.40802684  0.96312261  1
  C  C290  1  0.31663053  0.91242072  0.54158272  1
  C  C291  1  0.40905987  0.25756182  0.02284627  1
  C  C292  1  0.92006641  0.25559813  0.04004242  1
  C  C293  1  0.53066961  0.58864418  0.46165286  1
  C  C294  1  0.53718469  0.73815197  0.53576603  1
  C  C295  1  0.81621871  0.76690070  0.04838164  1
  C  C296  1  0.73443006  0.24609343  0.53293381  1
  C  C297  1  0.45576217  0.73864334  0.53636367  1
  C  C298  1  0.79293285  0.90521135  0.96383028  1
  C  C299  1  0.47209869  0.40709292  0.53064947  1
  C  C300  1  0.73604779  0.76306060  0.03758801  1
  C  C301  1  0.93818851  0.59601000  0.45151079  1
  C  C302  1  0.93139076  0.92827388  0.45857136  1
  C  C303  1  0.01259203  0.92646260  0.46708310  1
  C  C304  1  0.94496093  0.74025967  0.95905573  1
  C  C305  1  0.71179198  0.90453760  0.95848807  1
  C  C306  1  0.80165653  0.42962002  0.46151123  1
  C  C307  1  0.34702992  0.24640765  0.97691583  1
  C  C308  1  0.55183568  0.40367358  0.54150534  1
  C  C309  1  0.29368405  0.09390069  0.46131040  1
  C  C310  1  0.22808608  0.75895457  0.03473961  1
  C  C311  1  0.49158127  0.25262614  0.01649561  1
  N  N312  1  0.93429726  0.74047911  0.54877820  1
  N  N313  1  0.26719146  0.25412914  0.98367178  1
  N  N314  1  0.03677183  0.07489030  0.53996485  1
  N  N315  1  0.79596669  0.57344350  0.54434460  1
  N  N316  1  0.23796096  0.91353800  0.53596224  1
  N  N317  1  0.80651547  0.75881308  0.45872488  1
  N  N318  1  0.74907776  0.08845846  0.46320675  1
  N  N319  1  0.31519526  0.42611862  0.45459619  1
  N  N320  1  0.44919975  0.74025410  0.95318264  1
  N  N321  1  0.52525486  0.74124522  0.95755102  1
  N  N322  1  0.01571910  0.25845063  0.46503556  1
  N  N323  1  0.94557782  0.92239527  0.04279756  1
  N  N324  1  0.81272163  0.24221074  0.54371683  1
  N  N325  1  0.30708917  0.24061422  0.54555517  1
  N  N326  1  -0.00154492  0.25442763  0.03244482  1
  N  N327  1  0.23667037  0.90769628  0.96744054  1
  N  N328  1  0.05411126  0.07192602  0.95621914  1
  N  N329  1  0.82493686  0.09367270  0.44991584  1
  N  N330  1  0.82262893  0.43229727  0.04882133  1
  N  N331  1  0.45686695  0.26135836  0.46168947  1
  N  N332  1  0.27042311  0.42330548  0.03258594  1
  N  N333  1  0.19543219  0.08799521  0.04010846  1
  N  N334  1  0.71996006  0.57325301  0.54230738  1
  N  N335  1  0.42966033  0.07191640  0.55179044  1
  N  N336  1  0.93317381  0.40623833  0.55015290  1
  N  N337  1  0.82598762  0.24295563  0.96042240  1
  N  N338  1  0.24170707  0.75655907  0.46101950  1
  N  N339  1  0.78061211  0.57579242  0.96250394  1
  N  N340  1  0.44214138  0.92479019  0.04182692  1
  N  N341  1  0.53498188  0.26223993  0.46048783  1
  N  N342  1  0.74735783  0.41497368  0.03908183  1
  N  N343  1  0.73051512  0.75730891  0.46441223  1
  N  N344  1  0.55406361  0.07354428  0.95583053  1
  N  N345  1  0.51277191  0.41036109  0.96096888  1
  N  N346  1  0.19386212  0.42798468  0.04524504  1
  N  N347  1  0.31831545  0.76021930  0.45057577  1
  N  N348  1  0.51203652  0.92255205  0.46427772  1
  N  N349  1  0.50562626  0.07621796  0.53922073  1
  N  N350  1  0.04298116  0.59406672  0.03808144  1
  N  N351  1  0.97794777  0.07428825  0.96078621  1
  N  N352  1  0.96524588  0.40850563  0.96814093  1
  N  N353  1  0.43450655  0.92575247  0.45811324  1
  N  N354  1  0.74855991  0.24451890  0.96683862  1
  N  N355  1  0.48659438  0.59091002  0.03878773  1
  N  N356  1  0.95836807  0.07638483  0.53869428  1
  N  N357  1  0.22930258  0.24270115  0.53937060  1
  N  N358  1  0.45345026  0.59061059  0.45923744  1
  N  N359  1  0.01686781  0.59491143  0.46091601  1
  N  N360  1  0.05471497  0.05704428  0.59747942  1
  N  N361  1  0.05163991  0.38891454  0.59041310  1
  N  N362  1  0.05029825  0.72765608  0.59009300  1
  N  N363  1  0.54990409  0.05649541  0.58715610  1
  N  N364  1  0.56135048  0.38700580  0.60044039  1
  N  N365  1  0.56309294  0.72078025  0.59147544  1
  N  N366  1  0.39546834  0.27637892  0.08393949  1
  N  N367  1  0.44584961  0.61309453  0.08847024  1
  N  N368  1  0.42585360  0.94752618  0.09856632  1
  N  N369  1  0.90790866  0.27503866  0.09835271  1
  N  N370  1  0.93857451  0.61329234  0.09438003  1
  N  N371  1  0.92974341  0.94517102  0.10135895  1
  N  N372  1  0.44170033  0.05913139  0.90747923  1
  N  N373  1  0.42493411  0.39080112  0.89323688  1
  N  N374  1  0.42959289  0.72309048  0.89448834  1
  N  N375  1  0.94630110  0.05574715  0.90545923  1
  N  N376  1  0.93660435  0.39097127  0.90991523  1
  N  N377  1  0.93069798  0.71908366  0.89940406  1
  N  N378  1  0.04825060  0.27517211  0.40844633  1
  N  N379  1  0.05432088  0.60758836  0.40660793  1
  N  N380  1  0.04739936  0.94272547  0.41138747  1
  N  N381  1  0.55292297  0.28090100  0.40323422  1
  N  N382  1  0.56242879  0.60820006  0.40763602  1
  N  N383  1  0.54932715  0.93856399  0.41170501  1
  N  N384  1  0.31818231  0.22192745  0.60373801  1
  N  N385  1  0.32703802  0.55067559  0.60824538  1
  N  N386  1  0.33069055  0.89098072  0.59865005  1
  N  N387  1  0.82336071  0.22065449  0.60176563  1
  N  N388  1  0.81867961  0.55592206  0.60262083  1
  N  N389  1  0.83364552  0.88755781  0.60212873  1
  N  N390  1  0.17541965  0.11105011  0.09675124  1
  N  N391  1  0.18369209  0.44503693  0.10408335  1
  N  N392  1  0.19263607  0.77574950  0.08739966  1
  N  N393  1  0.67833217  0.11222898  0.10459321  1
  N  N394  1  0.70358882  0.43936147  0.08527518  1
  N  N395  1  0.69870485  0.77825686  0.09325347  1
  N  N396  1  0.22986462  0.23066170  0.93280036  1
  N  N397  1  0.17273819  0.55202979  0.88959552  1
  N  N398  1  0.20001961  0.88872237  0.91348785  1
  N  N399  1  0.71265592  0.22288142  0.91554674  1
  N  N400  1  0.67877728  0.55757701  0.90633824  1
  N  N401  1  0.69321052  0.88903489  0.90039055  1
  N  N402  1  0.31940574  0.11066131  0.40335544  1
  N  N403  1  0.32839829  0.44534006  0.39619180  1
  N  N404  1  0.32429035  0.77847780  0.39201996  1
  N  N405  1  0.82613787  0.11259513  0.39109324  1
  N  N406  1  0.82110305  0.44640830  0.40217529  1
  N  N407  1  0.82388498  0.77663097  0.39962458  1
  N  N408  1  0.42603964  0.28202046  0.40829085  1
  N  N409  1  0.43472526  0.61241818  0.40097043  1
  N  N410  1  0.42339463  0.94405474  0.39957425  1
  N  N411  1  0.92106328  0.27720002  0.39710529  1
  N  N412  1  0.92686165  0.61191107  0.39189924  1
  N  N413  1  0.91812191  0.94502023  0.39897207  1
  N  N414  1  0.07247838  0.05218605  0.89805628  1
  N  N415  1  0.06434457  0.39165390  0.90462707  1
  N  N416  1  0.05956684  0.72544194  0.91145913  1
  N  N417  1  0.56860077  0.05097452  0.89715359  1
  N  N418  1  0.55206540  0.38785215  0.91001106  1
  N  N419  1  0.55582433  0.72521462  0.90130947  1
  N  N420  1  0.03574221  0.27680630  0.08429972  1
  N  N421  1  0.06650276  0.61529091  0.09549387  1
  N  N422  1  0.05731031  0.94034959  0.09151740  1
  N  N423  1  0.52425097  0.26829698  0.07239886  1
  N  N424  1  0.57217497  0.61643445  0.10803965  1
  N  N425  1  0.55403458  0.94178623  0.08865609  1
  N  N426  1  0.42679697  0.05348179  0.61058365  1
  N  N427  1  0.43336569  0.39259911  0.58262012  1
  N  N428  1  0.43320281  0.72075001  0.59564763  1
  N  N429  1  0.92783152  0.05770591  0.59290847  1
  N  N430  1  0.92613533  0.38800297  0.60973170  1
  N  N431  1  0.92388121  0.71865679  0.60670704  1
  N  N432  1  0.18937567  0.11019749  0.40089955  1
  N  N433  1  0.20108500  0.44246524  0.40584933  1
  N  N434  1  0.20008504  0.77658392  0.41184529  1
  N  N435  1  0.70365867  0.10889800  0.41624509  1
  N  N436  1  0.69131326  0.44592823  0.40811587  1
  N  N437  1  0.69794015  0.77473147  0.40940124  1
  N  N438  1  0.35770104  0.22492268  0.91803527  1
  N  N439  1  0.29981794  0.55762108  0.91021403  1
  N  N440  1  0.32610593  0.88650336  0.89639601  1
  N  N441  1  0.83880072  0.22321665  0.90255623  1
  N  N442  1  0.80782213  0.55638832  0.90582562  1
  N  N443  1  0.82304674  0.88911220  0.90611809  1
  N  N444  1  0.30370526  0.10415253  0.08928378  1
  N  N445  1  0.30799119  0.43858821  0.08554028  1
  N  N446  1  0.32094186  0.78068065  0.10336433  1
  N  N447  1  0.80716131  0.10802663  0.09015716  1
  N  N448  1  0.82707787  0.44778079  0.10848561  1
  N  N449  1  0.82742635  0.78338686  0.10741385  1
  N  N450  1  0.19242246  0.22245317  0.59061465  1
  N  N451  1  0.19913364  0.55816071  0.59121182  1
  N  N452  1  0.20228821  0.88995621  0.58796671  1
  N  N453  1  0.69629805  0.22845554  0.58517033  1
  N  N454  1  0.69231625  0.55417051  0.59869485  1
  N  N455  1  0.70480279  0.88775973  0.58740375  1
  Cl  Cl456  1  0.23824961  0.05320604  0.62281094  1
  Cl  Cl457  1  0.23709172  0.38948717  0.60493408  1
  Cl  Cl458  1  0.23465540  0.73122318  0.60138656  1
  Cl  Cl459  1  0.73546445  0.06194323  0.60040993  1
  Cl  Cl460  1  0.74393915  0.37984943  0.63169002  1
  Cl  Cl461  1  0.74394301  0.72317553  0.62406727  1
  Cl  Cl462  1  0.21642158  0.27081419  0.11724960  1
  Cl  Cl463  1  0.26090013  0.61114294  0.11321551  1
  Cl  Cl464  1  0.24343579  0.94967971  0.12518901  1
  Cl  Cl465  1  0.70857397  0.27277411  0.10105358  1
  Cl  Cl466  1  0.75759353  0.60537541  0.10743267  1
  Cl  Cl467  1  0.74094703  0.94375878  0.11784428  1
  Cl  Cl468  1  0.25613880  0.06330403  0.89134588  1
  Cl  Cl469  1  0.24413961  0.38154156  0.87183513  1
  Cl  Cl470  1  0.24508653  0.72576572  0.87383800  1
  Cl  Cl471  1  0.76227112  0.05977385  0.87828784  1
  Cl  Cl472  1  0.73920776  0.39688719  0.90077241  1
  Cl  Cl473  1  0.73990486  0.71728354  0.88964053  1
  Cl  Cl474  1  0.23713142  0.27492896  0.39677086  1
  Cl  Cl475  1  0.23930825  0.61153710  0.38498108  1
  Cl  Cl476  1  0.23223632  0.93878505  0.39449670  1
  Cl  Cl477  1  0.73573596  0.27835743  0.37660296  1
  Cl  Cl478  1  0.74433390  0.60844765  0.37375901  1
  Cl  Cl479  1  0.73011330  0.94935258  0.38467550  1
  Cl  Cl480  1  0.01020447  0.22138472  0.62707757  1
  Cl  Cl481  1  0.01104958  0.55718258  0.59991323  1
  Cl  Cl482  1  0.02054710  0.89039641  0.61976508  1
  Cl  Cl483  1  0.50626747  0.22347227  0.60791209  1
  Cl  Cl484  1  0.51073825  0.55460120  0.63081157  1
  Cl  Cl485  1  0.51974027  0.88922278  0.60435881  1
  Cl  Cl486  1  -0.00789354  0.11580653  0.11538972  1
  Cl  Cl487  1  0.00474168  0.45328326  0.12305581  1
  Cl  Cl488  1  0.01099104  0.77852698  0.12196158  1
  Cl  Cl489  1  0.48724179  0.10808926  0.12672209  1
  Cl  Cl490  1  0.51337250  0.43527120  0.09678593  1
  Cl  Cl491  1  0.51105327  0.78112452  0.12145923  1
  Cl  Cl492  1  0.04627931  0.23130735  0.90078151  1
  Cl  Cl493  1  -0.01218434  0.55843701  0.86958135  1
  Cl  Cl494  1  0.01323149  0.88780664  0.88841099  1
  Cl  Cl495  1  0.53382525  0.21686572  0.87632914  1
  Cl  Cl496  1  0.48834237  0.55730158  0.89993386  1
  Cl  Cl497  1  0.50932174  0.89124906  0.87670584  1
  Cl  Cl498  1  0.00628019  0.11543485  0.37977761  1
  Cl  Cl499  1  0.01459665  0.44545567  0.39031238  1
  Cl  Cl500  1  0.01478105  0.77261183  0.39158257  1
  Cl  Cl501  1  0.51964774  0.10467667  0.40194157  1
  Cl  Cl502  1  0.51099118  0.44762872  0.37020850  1
  Cl  Cl503  1  0.51275693  0.77637688  0.38752857  1
  Cl  Cl504  1  0.36711562  0.14779889  0.75108561  1
  Cl  Cl505  1  0.36228930  0.47935310  0.75089531  1
  Cl  Cl506  1  0.37119367  0.81074813  0.74565923  1
  Cl  Cl507  1  0.86786506  0.14355449  0.74114529  1
  Cl  Cl508  1  0.86914147  0.47317455  0.74489524  1
  Cl  Cl509  1  0.87250282  0.80863252  0.74296212  1
  Cl  Cl510  1  0.14547143  0.17815783  0.25189258  1
  Cl  Cl511  1  0.14186930  0.51386193  0.24403464  1
  Cl  Cl512  1  0.14531339  0.84635730  0.25113361  1
  Cl  Cl513  1  0.63913969  0.17844584  0.24751200  1
  Cl  Cl514  1  0.64399611  0.51229128  0.24137232  1
  Cl  Cl515  1  0.64538594  0.84678372  0.25460299  1
  Cl  Cl516  1  0.15219550  0.15760189  0.76195330  1
  Cl  Cl517  1  0.13842658  0.48366431  0.74971226  1
  Cl  Cl518  1  0.14959234  0.82224428  0.74762335  1
  Cl  Cl519  1  0.64723531  0.15365750  0.74455763  1
  Cl  Cl520  1  0.64464332  0.48479591  0.75910181  1
  Cl  Cl521  1  0.64969099  0.82422186  0.75295372  1
  Cl  Cl522  1  0.36303900  0.18972288  0.24875979  1
  Cl  Cl523  1  0.36144102  0.52002021  0.25113894  1
  Cl  Cl524  1  0.36942049  0.85802798  0.24862676  1
  Cl  Cl525  1  0.85747564  0.19286756  0.25206645  1
  Cl  Cl526  1  0.86848943  0.52048390  0.25476934  1
  Cl  Cl527  1  0.86725711  0.85943351  0.25502446  1
  Cl  Cl528  1  0.09795799  0.32157507  0.75150887  1
  Cl  Cl529  1  0.10720152  0.65127138  0.74848210  1
  Cl  Cl530  1  0.10639973  0.98996781  0.74881591  1
  Cl  Cl531  1  0.60428907  0.32249758  0.74680152  1
  Cl  Cl532  1  0.60627415  0.65210660  0.75207668  1
  Cl  Cl533  1  0.61055882  0.98768548  0.75463243  1
  Cl  Cl534  1  0.37753802  0.02442680  0.27225413  1
  Cl  Cl535  1  0.37198658  0.35790402  0.22962717  1
  Cl  Cl536  1  0.38595467  0.68827901  0.26185577  1
  Cl  Cl537  1  0.87836277  0.02606881  0.25633898  1
  Cl  Cl538  1  0.87694168  0.35564796  0.24308345  1
  Cl  Cl539  1  0.88171228  0.69054596  0.25147848  1
  Cl  Cl540  1  0.38527776  0.31249056  0.75088944  1
  Cl  Cl541  1  0.38251171  0.64388476  0.74504475  1
  Cl  Cl542  1  0.38661846  0.97886133  0.74439250  1
  Cl  Cl543  1  0.88034527  0.30515320  0.75941888  1
  Cl  Cl544  1  0.87951602  0.64354962  0.74177884  1
  Cl  Cl545  1  0.88344993  0.97545342  0.74262012  1
  Cl  Cl546  1  0.10056451  0.01392428  0.25303088  1
  Cl  Cl547  1  0.10085758  0.34230689  0.24770508  1
  Cl  Cl548  1  0.10440479  0.68180185  0.25011588  1
  Cl  Cl549  1  0.59908933  0.01330094  0.24640337  1
  Cl  Cl550  1  0.58680503  0.34065006  0.24315128  1
  Cl  Cl551  1  0.60964447  0.68002603  0.24565745  1
