# generated using pymatgen
data_H8PbC4(N3Cl2)2
_symmetry_space_group_name_H-M   'P 1'
_cell_length_a   16.62390794
_cell_length_b   22.50765725
_cell_length_c   21.59049853
_cell_angle_alpha   90.00233000
_cell_angle_beta   90.00943924
_cell_angle_gamma   90.00105639
_symmetry_Int_Tables_number   1
_chemical_formula_structural   H8PbC4(N3Cl2)2
_chemical_formula_sum   'H192 Pb24 C96 N144 Cl96'
_cell_volume   8078.41356060
_cell_formula_units_Z   24
loop_
 _symmetry_equiv_pos_site_id
 _symmetry_equiv_pos_as_xyz
  1  'x, y, z'
loop_
 _atom_site_type_symbol
 _atom_site_label
 _atom_site_symmetry_multiplicity
 _atom_site_fract_x
 _atom_site_fract_y
 _atom_site_fract_z
 _atom_site_occupancy
  H  H0  1  0.01298423  0.03116771  0.67971445  1
  H  H1  1  -0.00085044  0.36443282  0.67913678  1
  H  H2  1  -0.00213012  0.69717417  0.68084694  1
  H  H3  1  0.49402083  0.03128441  0.67744057  1
  H  H4  1  0.50680164  0.36266186  0.67968807  1
  H  H5  1  0.50086862  0.69811761  0.68003465  1
  H  H6  1  0.00646820  0.30351061  0.17770132  1
  H  H7  1  0.00708516  0.63600239  0.18102429  1
  H  H8  1  -0.00986379  0.96954616  0.18280242  1
  H  H9  1  0.50588730  0.30316493  0.17938323  1
  H  H10  1  0.50749244  0.63530347  0.17651602  1
  H  H11  1  0.50779571  0.96822402  0.17974548  1
  H  H12  1  0.00820207  0.03191213  0.82288921  1
  H  H13  1  0.00094249  0.36681019  0.82272332  1
  H  H14  1  -0.00048093  0.69556097  0.82391669  1
  H  H15  1  0.50652102  0.03147375  0.82233456  1
  H  H16  1  0.49851741  0.36543339  0.81875009  1
  H  H17  1  0.50413037  0.69406622  0.82205023  1
  H  H18  1  0.00680626  0.30442284  0.32259991  1
  H  H19  1  0.00639368  0.63489171  0.31827809  1
  H  H20  1  -0.00606173  0.96835118  0.31929923  1
  H  H21  1  0.49758787  0.30430799  0.32023115  1
  H  H22  1  0.49054365  0.63560220  0.31865098  1
  H  H23  1  0.49664177  0.96839568  0.32204294  1
  H  H24  1  0.24513057  0.19798753  0.68168406  1
  H  H25  1  0.24634661  0.53126457  0.68127198  1
  H  H26  1  0.24622952  0.86156191  0.68048165  1
  H  H27  1  0.75146682  0.19633746  0.67838265  1
  H  H28  1  0.74880876  0.53219940  0.68038884  1
  H  H29  1  0.75725723  0.86346248  0.67826350  1
  H  H30  1  0.24882591  0.13506381  0.17830148  1
  H  H31  1  0.25452208  0.47200022  0.17909185  1
  H  H32  1  0.26296929  0.80112342  0.18001542  1
  H  H33  1  0.74804852  0.13467632  0.17669812  1
  H  H34  1  0.73642456  0.46899134  0.17578813  1
  H  H35  1  0.73844520  0.79992848  0.17743792  1
  H  H36  1  0.24750463  0.19681470  0.81832058  1
  H  H37  1  0.24876390  0.52947123  0.82573571  1
  H  H38  1  0.23891491  0.86287072  0.82287431  1
  H  H39  1  0.74902954  0.19733373  0.82009221  1
  H  H40  1  0.73833188  0.53173368  0.82465700  1
  H  H41  1  0.75818388  0.86581954  0.81623682  1
  H  H42  1  0.25559353  0.13548845  0.32188372  1
  H  H43  1  0.24799213  0.47070997  0.31807237  1
  H  H44  1  0.25982492  0.80383426  0.31814234  1
  H  H45  1  0.74298618  0.13453173  0.32174303  1
  H  H46  1  0.74779352  0.46682667  0.31945718  1
  H  H47  1  0.74188516  0.80288821  0.32125752  1
  H  H48  1  0.12665802  0.05746527  0.60068332  1
  H  H49  1  0.12246719  0.38885278  0.60856781  1
  H  H50  1  0.12066323  0.72008236  0.61057319  1
  H  H51  1  0.63057438  0.05215197  0.61991975  1
  H  H52  1  0.61992083  0.39118842  0.60080181  1
  H  H53  1  0.61749128  0.71995447  0.60513762  1
  H  H54  1  0.36810799  0.28108237  0.12355922  1
  H  H55  1  0.37033560  0.61480895  0.11820943  1
  H  H56  1  0.37069723  0.94703987  0.12177587  1
  H  H57  1  0.86888813  0.28313853  0.12055447  1
  H  H58  1  0.87267202  0.61432487  0.11769641  1
  H  H59  1  0.87232289  0.94763791  0.10685800  1
  H  H60  1  0.36972674  0.05242471  0.88038890  1
  H  H61  1  0.37553239  0.38947415  0.89112914  1
  H  H62  1  0.36973867  0.71788003  0.88228754  1
  H  H63  1  0.87130372  0.05126989  0.88164020  1
  H  H64  1  0.87506024  0.38795282  0.89037361  1
  H  H65  1  0.86971318  0.71586785  0.89016088  1
  H  H66  1  0.11727650  0.27499437  0.40229210  1
  H  H67  1  0.11724866  0.61023223  0.39834758  1
  H  H68  1  0.13457689  0.95248485  0.37310638  1
  H  H69  1  0.62349895  0.27832387  0.38719857  1
  H  H70  1  0.62115727  0.61490924  0.38541221  1
  H  H71  1  0.63379474  0.95046804  0.37977765  1
  H  H72  1  0.37934399  0.21722980  0.62244790  1
  H  H73  1  0.38022591  0.55345075  0.61844303  1
  H  H74  1  0.36592988  0.88678427  0.60503347  1
  H  H75  1  0.87547443  0.22136630  0.60727621  1
  H  H76  1  0.88129287  0.54987563  0.61577757  1
  H  H77  1  0.86365511  0.89271925  0.59654187  1
  H  H78  1  0.13226938  0.11098356  0.10036770  1
  H  H79  1  0.12075869  0.44909024  0.11659441  1
  H  H80  1  0.13133641  0.77900657  0.11484701  1
  H  H81  1  0.63057176  0.11030535  0.10131636  1
  H  H82  1  0.63121573  0.44306760  0.09171298  1
  H  H83  1  0.63753157  0.77104300  0.09054876  1
  H  H84  1  0.13247833  0.22176724  0.89479950  1
  H  H85  1  0.13276691  0.55749092  0.90067830  1
  H  H86  1  0.13530352  0.89197440  0.90885097  1
  H  H87  1  0.63486814  0.22141877  0.89858835  1
  H  H88  1  0.63386366  0.55858639  0.90891136  1
  H  H89  1  0.62847737  0.88683096  0.88028126  1
  H  H90  1  0.36776564  0.10842319  0.40230211  1
  H  H91  1  0.37757946  0.44546898  0.38625193  1
  H  H92  1  0.37710373  0.77689234  0.39586071  1
  H  H93  1  0.87060375  0.11387587  0.38691144  1
  H  H94  1  0.88096054  0.44881221  0.38268122  1
  H  H95  1  0.87940411  0.78245861  0.37724403  1
  H  H96  1  0.37503172  0.27766984  0.39198333  1
  H  H97  1  0.37314920  0.61142931  0.39719219  1
  H  H98  1  0.38587626  0.94395682  0.40080552  1
  H  H99  1  0.87101917  0.28478093  0.38136016  1
  H  H100  1  0.87008227  0.61600685  0.37437653  1
  H  H101  1  0.88820065  0.94420332  0.40225368  1
  H  H102  1  0.11803984  0.06052529  0.90273830  1
  H  H103  1  0.12386563  0.38852383  0.89293285  1
  H  H104  1  0.11777220  0.72313683  0.89827226  1
  H  H105  1  0.61668233  0.05914748  0.90321555  1
  H  H106  1  0.62492665  0.38847572  0.88915137  1
  H  H107  1  0.61693629  0.72087721  0.90320388  1
  H  H108  1  0.11373503  0.27614183  0.09421574  1
  H  H109  1  0.12033043  0.60891565  0.10035314  1
  H  H110  1  0.12141869  0.94520308  0.11856621  1
  H  H111  1  0.61492126  0.27553678  0.09730337  1
  H  H112  1  0.61728161  0.60768324  0.09553446  1
  H  H113  1  0.61781119  0.94602075  0.09796954  1
  H  H114  1  0.38330356  0.05843347  0.59607209  1
  H  H115  1  0.37189081  0.38388092  0.62103408  1
  H  H116  1  0.36862049  0.71717759  0.61674661  1
  H  H117  1  0.87889565  0.05145854  0.61770948  1
  H  H118  1  0.87345916  0.38864045  0.60909135  1
  H  H119  1  0.87136611  0.71949035  0.61353954  1
  H  H120  1  0.12013826  0.11405526  0.38043683  1
  H  H121  1  0.12908651  0.44441716  0.39425002  1
  H  H122  1  0.12907886  0.78179505  0.38446045  1
  H  H123  1  0.62159318  0.11008297  0.39464608  1
  H  H124  1  0.63203102  0.44451724  0.39509779  1
  H  H125  1  0.63286302  0.77402975  0.40236222  1
  H  H126  1  0.38069870  0.21716871  0.87837926  1
  H  H127  1  0.38104484  0.55348890  0.88831592  1
  H  H128  1  0.37869528  0.88424407  0.87547410  1
  H  H129  1  0.88344000  0.22054030  0.88110099  1
  H  H130  1  0.87827870  0.54748936  0.87524095  1
  H  H131  1  0.87758547  0.88790342  0.89026022  1
  H  H132  1  0.38027443  0.11322531  0.11328169  1
  H  H133  1  0.36834682  0.44377874  0.10094045  1
  H  H134  1  0.37885576  0.77465839  0.10058079  1
  H  H135  1  0.87924288  0.11310136  0.11197428  1
  H  H136  1  0.87612392  0.45028267  0.12164173  1
  H  H137  1  0.88084889  0.78404972  0.12785615  1
  H  H138  1  0.13117444  0.22235858  0.60416128  1
  H  H139  1  0.13163101  0.55383196  0.60240611  1
  H  H140  1  0.11747371  0.88719941  0.61563032  1
  H  H141  1  0.62758088  0.21942778  0.60705978  1
  H  H142  1  0.63173473  0.55526554  0.60580514  1
  H  H143  1  0.61756428  0.88405335  0.62391798  1
  H  H144  1  0.85743394  0.42013687  0.01302137  1
  H  H145  1  0.89957721  0.24725988  0.48521117  1
  H  H146  1  0.19145869  0.24999025  0.49572694  1
  H  H147  1  0.39995052  0.41636386  0.50924384  1
  H  H148  1  0.95917079  0.91859397  0.50872409  1
  H  H149  1  0.54597463  0.74810446  1.00401458  1
  H  H150  1  0.34524888  0.58405778  0.99477480  1
  H  H151  1  0.93163067  0.93094971  -0.00510868  1
  H  H152  1  0.70439200  0.74752377  0.50375222  1
  H  H153  1  0.54971300  0.92220888  -0.00972069  1
  H  H154  1  0.19202761  0.24812608  1.00412725  1
  H  H155  1  0.82406421  0.90687719  1.00269225  1
  H  H156  1  0.54242657  0.24826219  -0.00362857  1
  H  H157  1  0.55396970  0.41319485  0.49730963  1
  H  H158  1  0.29863486  0.08239515  0.50446151  1
  H  H159  1  0.44982708  0.91230603  0.50771407  1
  H  H160  1  0.45405554  0.08407280  0.49428371  1
  H  H161  1  0.90945069  0.74738911  0.50218610  1
  H  H162  1  0.66538961  0.91314799  0.99417342  1
  H  H163  1  0.56080903  0.74588786  0.49384223  1
  H  H164  1  0.34089936  0.08677836  0.00638668  1
  H  H165  1  0.42774265  0.41875796  0.99916705  1
  H  H166  1  0.85162697  0.24898208  0.98865713  1
  H  H167  1  0.69008927  0.42022526  0.50650682  1
  H  H168  1  0.63459263  0.91524528  0.51346827  1
  H  H169  1  0.35319463  0.24602477  0.99182421  1
  H  H170  1  0.05811783  0.73728491  1.00269805  1
  H  H171  1  0.68620608  0.58368733  0.49621479  1
  H  H172  1  0.19594176  0.58079555  0.49552657  1
  H  H173  1  0.21538958  0.91347188  1.00818170  1
  H  H174  1  0.03878541  0.25361186  -0.00663064  1
  H  H175  1  0.79231526  0.92224026  0.49218270  1
  H  H176  1  0.83238170  0.08263881  0.49942185  1
  H  H177  1  0.71695744  0.74406643  -0.00687373  1
  H  H178  1  0.84138643  0.08340639  0.00558219  1
  H  H179  1  0.07541765  0.74980784  0.50070091  1
  H  H180  1  0.90622901  0.74909707  0.99591363  1
  H  H181  1  0.05202904  0.58232061  0.50534338  1
  H  H182  1  0.39708036  0.91971356  0.01309844  1
  H  H183  1  0.67748844  0.24534321  0.50206359  1
  H  H184  1  0.04653703  0.26125922  0.50473017  1
  H  H185  1  0.15434054  0.91802815  0.50514704  1
  H  H186  1  0.69673910  0.25144985  1.00544719  1
  H  H187  1  0.08159646  0.92961725  0.00888241  1
  H  H188  1  0.35224479  0.24724462  0.50961861  1
  H  H189  1  0.88884101  0.58494517  0.48753320  1
  H  H190  1  0.15418850  0.41937470  0.01156763  1
  H  H191  1  0.86401440  0.57903142  -0.00980430  1
  Pb  Pb192  1  0.25081262  0.05180540  0.74569945  1
  Pb  Pb193  1  0.25134095  0.37894612  0.75446974  1
  Pb  Pb194  1  0.24866671  0.71159707  0.75133840  1
  Pb  Pb195  1  0.74928405  0.04581288  0.75635497  1
  Pb  Pb196  1  0.75103693  0.38609210  0.74997797  1
  Pb  Pb197  1  0.74702157  0.71487534  0.74854218  1
  Pb  Pb198  1  0.24254987  0.28407830  0.25114610  1
  Pb  Pb199  1  0.24613421  0.62015119  0.24845953  1
  Pb  Pb200  1  0.25120885  0.95451253  0.24775850  1
  Pb  Pb201  1  0.74694989  0.28710740  0.24768962  1
  Pb  Pb202  1  0.74519522  0.61777723  0.24561033  1
  Pb  Pb203  1  0.74707277  0.95130914  0.24740239  1
  Pb  Pb204  1  -0.00348308  0.21576924  0.74731054  1
  Pb  Pb205  1  0.00682003  0.54785445  0.74938541  1
  Pb  Pb206  1  0.00414973  0.88307364  0.75438152  1
  Pb  Pb207  1  0.50776110  0.21520665  0.75625894  1
  Pb  Pb208  1  0.49992334  0.54646456  0.75603971  1
  Pb  Pb209  1  0.49485123  0.88119777  0.75068594  1
  Pb  Pb210  1  -0.00377045  0.11853979  0.24590740  1
  Pb  Pb211  1  -0.00065274  0.45359510  0.25086791  1
  Pb  Pb212  1  0.00085246  0.78631806  0.24671113  1
  Pb  Pb213  1  0.49950088  0.12115023  0.25431162  1
  Pb  Pb214  1  0.49451142  0.45112923  0.24875509  1
  Pb  Pb215  1  0.49710638  0.78438754  0.24662712  1
  C  C216  1  0.00588919  0.04638739  0.63255008  1
  C  C217  1  -0.00197803  0.38027352  0.63189163  1
  C  C218  1  -0.00351452  0.71266536  0.63316142  1
  C  C219  1  0.50240161  0.04604471  0.63013687  1
  C  C220  1  0.49980080  0.37817711  0.63225777  1
  C  C221  1  0.49588313  0.71174477  0.63213094  1
  C  C222  1  -0.00364484  0.28878616  0.13046223  1
  C  C223  1  -0.00002227  0.62082477  0.13367637  1
  C  C224  1  -0.00469197  0.95460117  0.13514403  1
  C  C225  1  0.49654802  0.28753925  0.13238255  1
  C  C226  1  0.49800252  0.61980239  0.12976196  1
  C  C227  1  0.49807440  0.95336741  0.13239732  1
  C  C228  1  -0.00123733  0.04732993  0.86969900  1
  C  C229  1  -0.00003410  0.38085720  0.87064289  1
  C  C230  1  -0.00450460  0.71218084  0.87118449  1
  C  C231  1  0.49724967  0.04713010  0.86904135  1
  C  C232  1  0.49975772  0.38086899  0.86636830  1
  C  C233  1  0.49730692  0.71029436  0.86903171  1
  C  C234  1  -0.00172362  0.28879630  0.36984408  1
  C  C235  1  -0.00245124  0.62023590  0.36574829  1
  C  C236  1  0.00537337  0.95495028  0.36668573  1
  C  C237  1  0.49838053  0.28725570  0.36693396  1
  C  C238  1  0.49482472  0.62092809  0.36643980  1
  C  C239  1  0.50529416  0.95403035  0.36960923  1
  C  C240  1  0.25221835  0.21271201  0.63409855  1
  C  C241  1  0.25296922  0.54620719  0.63378929  1
  C  C242  1  0.24330407  0.87833864  0.63352999  1
  C  C243  1  0.75150610  0.21223888  0.63094246  1
  C  C244  1  0.75346452  0.54612608  0.63247175  1
  C  C245  1  0.74528783  0.87965198  0.63161604  1
  C  C246  1  0.25420207  0.11958222  0.13086924  1
  C  C247  1  0.24748566  0.45522819  0.13234657  1
  C  C248  1  0.25793855  0.78578835  0.13258376  1
  C  C249  1  0.75312184  0.11933321  0.12931123  1
  C  C250  1  0.74835829  0.45430689  0.12882260  1
  C  C251  1  0.75226569  0.78560907  0.13058097  1
  C  C252  1  0.25399965  0.21195986  0.86582381  1
  C  C253  1  0.25468379  0.54616775  0.87258073  1
  C  C254  1  0.25079068  0.87849710  0.86955728  1
  C  C255  1  0.75647246  0.21286701  0.86744762  1
  C  C256  1  0.75116604  0.54594783  0.87153521  1
  C  C257  1  0.75468322  0.88028269  0.86416917  1
  C  C258  1  0.24813946  0.12034753  0.36912199  1
  C  C259  1  0.25175749  0.45462840  0.36542513  1
  C  C260  1  0.25545899  0.78836396  0.36564186  1
  C  C261  1  0.74558850  0.11944330  0.36929687  1
  C  C262  1  0.75345623  0.45365463  0.36750287  1
  C  C263  1  0.75108134  0.78769878  0.36843224  1
  C  C264  1  0.56376346  0.92922767  0.45801958  1
  C  C265  1  0.30725624  0.23696652  0.95614012  1
  C  C266  1  0.78869544  0.90186665  0.96068382  1
  C  C267  1  0.22537966  0.23803279  0.96200852  1
  C  C268  1  0.98900996  0.92943374  0.46533245  1
  C  C269  1  0.03435119  0.41004025  0.53985519  1
  C  C270  1  0.82023445  0.76176194  0.04596420  1
  C  C271  1  0.30645961  0.23790100  0.54433488  1
  C  C272  1  0.19080935  0.09120788  0.45705629  1
  C  C273  1  0.48277102  0.92554859  0.46635702  1
  C  C274  1  0.22815200  0.57183064  0.53841600  1
  C  C275  1  0.72337508  0.57262066  0.53598054  1
  C  C276  1  0.52586786  0.73655090  0.53531434  1
  C  C277  1  0.72442523  0.42971292  0.46471471  1
  C  C278  1  0.03503750  0.73895466  0.53874048  1
  C  C279  1  0.03900543  0.40653954  0.96404990  1
  C  C280  1  0.80545948  0.43140502  0.45831359  1
  C  C281  1  0.81432691  0.57086325  0.95815107  1
  C  C282  1  0.43632589  0.25894591  0.04586477  1
  C  C283  1  0.01971484  0.07892872  0.96438672  1
  C  C284  1  0.51834393  0.07812379  0.96399270  1
  C  C285  1  0.70821373  0.09205276  0.46344798  1
  C  C286  1  0.46524830  0.40740548  0.95970160  1
  C  C287  1  0.02012205  0.59329070  0.46276198  1
  C  C288  1  0.72856365  0.24083407  0.96284164  1
  C  C289  1  0.22312929  0.57934933  0.96641403  1
  C  C290  1  0.56116909  0.07524021  0.54271587  1
  C  C291  1  0.71974628  0.08980130  0.03432144  1
  C  C292  1  0.44463671  0.40677581  0.54463474  1
  C  C293  1  0.73390717  0.57450988  0.96838613  1
  C  C294  1  0.19979154  0.90698321  0.54278025  1
  C  C295  1  0.06894054  0.93249900  0.45315861  1
  C  C296  1  0.96260514  0.93205073  0.03914764  1
  C  C297  1  0.95286022  0.73812094  0.53968218  1
  C  C298  1  0.72982248  0.42474820  0.03134543  1
  C  C299  1  0.53922323  0.25642594  0.45812068  1
  C  C300  1  0.70699600  0.90319496  0.95678733  1
  C  C301  1  0.80456981  0.56990058  0.54148271  1
  C  C302  1  0.03108897  0.07516525  0.53751152  1
  C  C303  1  0.52121121  0.92880467  0.03512166  1
  C  C304  1  0.81167669  0.75938452  0.45533838  1
  C  C305  1  0.44471219  0.73566139  0.54146296  1
  C  C306  1  0.22464829  0.23934490  0.53770892  1
  C  C307  1  0.95699855  0.40641039  0.96330806  1
  C  C308  1  0.51877046  0.58884011  0.03493697  1
  C  C309  1  0.78994960  0.09283272  0.46237936  1
  C  C310  1  0.93888950  0.59471523  0.45402992  1
  C  C311  1  0.76378242  0.90974223  0.53572062  1
  N  N312  1  0.28509588  0.75967787  0.46050996  1
  N  N313  1  0.44169979  0.59180607  0.04119101  1
  N  N314  1  0.21941482  0.42581522  0.45973042  1
  N  N315  1  0.19882988  0.42746265  0.04473325  1
  N  N316  1  0.54135690  0.59593369  0.45842916  1
  N  N317  1  0.02694623  0.74552290  0.96247321  1
  N  N318  1  0.30701139  0.57291444  0.54383738  1
  N  N319  1  0.95373258  0.07318640  0.54158731  1
  N  N320  1  0.01308293  0.25881136  0.03652157  1
  N  N321  1  0.22140810  0.09363633  0.03538380  1
  N  N322  1  0.20979573  0.75893484  0.04167938  1
  N  N323  1  0.28600561  0.75771302  0.03717811  1
  N  N324  1  0.95697396  0.40978784  0.53866529  1
  N  N325  1  0.48275255  0.07612671  0.53568470  1
  N  N326  1  0.30184811  0.57647139  0.96112775  1
  N  N327  1  0.46505109  0.59469747  0.46208453  1
  N  N328  1  0.04180031  0.92867850  0.04495059  1
  N  N329  1  0.94295519  0.26621997  0.45741917  1
  N  N330  1  0.20873829  0.76138616  0.45695480  1
  N  N331  1  0.26927826  0.09057523  0.46345221  1
  N  N332  1  0.94968994  0.59324438  0.04440114  1
  N  N333  1  0.29550727  0.42644769  0.45715612  1
  N  N334  1  0.27689093  0.42525149  0.03773149  1
  N  N335  1  0.51879331  0.74142821  0.96157569  1
  N  N336  1  0.02108726  0.25396336  0.46201741  1
  N  N337  1  0.29930050  0.09459557  0.04121295  1
  N  N338  1  0.44124179  0.07560955  0.95781326  1
  N  N339  1  0.54452467  0.40654037  0.95964429  1
  N  N340  1  0.23841577  0.90857859  0.96377806  1
  N  N341  1  0.94896369  0.73310087  0.96224337  1
  N  N342  1  0.52388756  0.40993864  0.53876818  1
  N  N343  1  0.44278539  0.92747232  0.04509574  1
  N  N344  1  0.74281522  0.75710658  0.03452041  1
  N  N345  1  0.44120263  0.74094246  0.95579947  1
  N  N346  1  0.93591178  0.26249588  0.04400231  1
  N  N347  1  0.27876976  0.90742986  0.53885743  1
  N  N348  1  0.68536902  0.90712705  0.54631165  1
  N  N349  1  0.80739545  0.42790569  0.04283521  1
  N  N350  1  0.31536611  0.90579620  0.95396486  1
  N  N351  1  0.94256776  0.07500479  0.95866053  1
  N  N352  1  0.46141260  0.25664173  0.46083365  1
  N  N353  1  0.79355819  0.23732763  0.53747250  1
  N  N354  1  0.51437686  0.25720761  0.03780368  1
  N  N355  1  0.71510951  0.23819825  0.53915245  1
  N  N356  1  0.02525778  0.59164875  0.03836509  1
  N  N357  1  0.79853315  0.09144974  0.03932140  1
  N  N358  1  0.73319078  0.75688274  0.46287201  1
  N  N359  1  0.80755917  0.24083109  0.95548511  1
  N  N360  1  0.06544720  0.05919043  0.59205642  1
  N  N361  1  0.06236159  0.39213517  0.59585249  1
  N  N362  1  0.06057216  0.72318375  0.59721326  1
  N  N363  1  0.57348306  0.05708278  0.60133998  1
  N  N364  1  0.55789063  0.38885470  0.59195364  1
  N  N365  1  0.55686347  0.72160588  0.59325387  1
  N  N366  1  0.42470950  0.27677153  0.10469980  1
  N  N367  1  0.42868776  0.61126832  0.10151215  1
  N  N368  1  0.42875104  0.94259652  0.10492307  1
  N  N369  1  0.92602984  0.27893568  0.10310973  1
  N  N370  1  0.93216247  0.61063451  0.10339912  1
  N  N371  1  0.93314926  0.94570455  0.09560208  1
  N  N372  1  0.42802930  0.05626905  0.89728243  1
  N  N373  1  0.43615639  0.39168160  0.90285916  1
  N  N374  1  0.42832445  0.72278744  0.89759801  1
  N  N375  1  0.92953909  0.05524716  0.89835775  1
  N  N376  1  0.93434046  0.39085099  0.90551984  1
  N  N377  1  0.92899090  0.72252532  0.90315955  1
  N  N378  1  0.05564752  0.27861229  0.41106312  1
  N  N379  1  0.05565684  0.60928252  0.40732726  1
  N  N380  1  0.07850322  0.94749674  0.39345718  1
  N  N381  1  0.56388918  0.27478479  0.40127001  1
  N  N382  1  0.56105240  0.61135206  0.39896140  1
  N  N383  1  0.57681922  0.94605402  0.39882015  1
  N  N384  1  0.32191341  0.22154223  0.60429155  1
  N  N385  1  0.32075985  0.55684021  0.60336317  1
  N  N386  1  0.30422410  0.88941871  0.59583558  1
  N  N387  1  0.81519966  0.22256837  0.59540225  1
  N  N388  1  0.82245847  0.55418293  0.59993504  1
  N  N389  1  0.80160516  0.89281326  0.58856539  1
  N  N390  1  0.19389516  0.10893014  0.09174623  1
  N  N391  1  0.18009718  0.44588961  0.10167616  1
  N  N392  1  0.19110007  0.77625693  0.10080092  1
  N  N393  1  0.69123309  0.10721718  0.08999525  1
  N  N394  1  0.69276893  0.44112354  0.08461000  1
  N  N395  1  0.70016522  0.77277018  0.08656894  1
  N  N396  1  0.19360825  0.22260487  0.90553672  1
  N  N397  1  0.19362594  0.56036559  0.91186943  1
  N  N398  1  0.19766434  0.88939857  0.91363642  1
  N  N399  1  0.69655534  0.22389409  0.90809207  1
  N  N400  1  0.69594035  0.55943026  0.91609361  1
  N  N401  1  0.68720123  0.88977121  0.89664159  1
  N  N402  1  0.30578385  0.11039628  0.41007793  1
  N  N403  1  0.31715547  0.44433489  0.39863083  1
  N  N404  1  0.31548964  0.77659410  0.40417717  1
  N  N405  1  0.81182528  0.10990763  0.40268297  1
  N  N406  1  0.82261048  0.44564377  0.39970670  1
  N  N407  1  0.82274418  0.77767074  0.39654447  1
  N  N408  1  0.43590299  0.27594157  0.40281338  1
  N  N409  1  0.43477823  0.61060135  0.40534811  1
  N  N410  1  0.44737940  0.94150264  0.41013603  1
  N  N411  1  0.92897159  0.27845993  0.39779223  1
  N  N412  1  0.92678156  0.61124531  0.39360581  1
  N  N413  1  0.95014150  0.94385991  0.40990498  1
  N  N414  1  0.05641628  0.06199960  0.91112600  1
  N  N415  1  0.06410065  0.39110099  0.90716395  1
  N  N416  1  0.05650842  0.72278116  0.90896665  1
  N  N417  1  0.55491739  0.06070366  0.91085688  1
  N  N418  1  0.56414317  0.39052380  0.90117110  1
  N  N419  1  0.55472622  0.72090150  0.90994254  1
  N  N420  1  0.05141846  0.27815414  0.08767256  1
  N  N421  1  0.05813395  0.60947946  0.09328803  1
  N  N422  1  0.06190793  0.94580806  0.10334886  1
  N  N423  1  0.55263845  0.27686974  0.09056802  1
  N  N424  1  0.55550815  0.60572209  0.08801981  1
  N  N425  1  0.55609844  0.94410165  0.08946570  1
  N  N426  1  0.44536447  0.05605420  0.58866495  1
  N  N427  1  0.42956986  0.38858352  0.60298848  1
  N  N428  1  0.42705271  0.72090490  0.59979888  1
  N  N429  1  0.93807116  0.05514417  0.60222572  1
  N  N430  1  0.93401879  0.39106478  0.59739827  1
  N  N431  1  0.93063853  0.72200798  0.59888144  1
  N  N432  1  0.17757405  0.10902611  0.39848997  1
  N  N433  1  0.19080787  0.44325628  0.40322037  1
  N  N434  1  0.18911209  0.77896490  0.39812258  1
  N  N435  1  0.68190142  0.10787525  0.40697025  1
  N  N436  1  0.69282479  0.44371711  0.40674682  1
  N  N437  1  0.69476817  0.77655981  0.41000012  1
  N  N438  1  0.32327775  0.22097435  0.89602246  1
  N  N439  1  0.32194473  0.55540722  0.90352243  1
  N  N440  1  0.32229069  0.88903990  0.89461380  1
  N  N441  1  0.82458815  0.22293887  0.89705264  1
  N  N442  1  0.82347180  0.55323921  0.89702265  1
  N  N443  1  0.81740603  0.88802079  0.90258692  1
  N  N444  1  0.32073872  0.10995752  0.09888637  1
  N  N445  1  0.30652932  0.44202465  0.09284702  1
  N  N446  1  0.31732218  0.77429661  0.09334193  1
  N  N447  1  0.81980601  0.10964614  0.09782198  1
  N  N448  1  0.81908270  0.44619689  0.10273367  1
  N  N449  1  0.82636043  0.77893230  0.10567410  1
  N  N450  1  0.19223674  0.22359837  0.59396276  1
  N  N451  1  0.19330175  0.55602669  0.59324082  1
  N  N452  1  0.17661982  0.88974222  0.60080141  1
  N  N453  1  0.68829888  0.22201533  0.59527292  1
  N  N454  1  0.69254480  0.55752864  0.59422025  1
  N  N455  1  0.67467793  0.88840053  0.60522629  1
  Cl  Cl456  1  0.25947442  0.06007878  0.60432312  1
  Cl  Cl457  1  0.24609895  0.38426200  0.62457115  1
  Cl  Cl458  1  0.24398189  0.71746294  0.62322948  1
  Cl  Cl459  1  0.75528026  0.05098203  0.62410790  1
  Cl  Cl460  1  0.74295125  0.38900549  0.61441712  1
  Cl  Cl461  1  0.74304975  0.72515533  0.61245231  1
  Cl  Cl462  1  0.23457113  0.27715693  0.11485030  1
  Cl  Cl463  1  0.24240853  0.60750474  0.11300816  1
  Cl  Cl464  1  0.24360963  0.94052814  0.10504394  1
  Cl  Cl465  1  0.73764063  0.27799922  0.11014230  1
  Cl  Cl466  1  0.74272372  0.61416926  0.11245021  1
  Cl  Cl467  1  0.74432919  0.94648409  0.11212437  1
  Cl  Cl468  1  0.24209378  0.05351462  0.87830773  1
  Cl  Cl469  1  0.24993496  0.39019771  0.88661062  1
  Cl  Cl470  1  0.24024160  0.71663998  0.88398321  1
  Cl  Cl471  1  0.74274168  0.05727925  0.89072341  1
  Cl  Cl472  1  0.74930841  0.38707221  0.88403937  1
  Cl  Cl473  1  0.74002040  0.72200496  0.89610028  1
  Cl  Cl474  1  0.24254062  0.27348342  0.38679928  1
  Cl  Cl475  1  0.24418047  0.60993627  0.38328625  1
  Cl  Cl476  1  0.26266331  0.95287559  0.37756572  1
  Cl  Cl477  1  0.74668234  0.27926246  0.38187378  1
  Cl  Cl478  1  0.74286366  0.61787025  0.37902947  1
  Cl  Cl479  1  0.76330765  0.94329883  0.38285445  1
  Cl  Cl480  1  0.00308727  0.22717334  0.60882551  1
  Cl  Cl481  1  0.00884115  0.55302511  0.61348275  1
  Cl  Cl482  1  -0.01304195  0.89198436  0.62057351  1
  Cl  Cl483  1  0.50749037  0.21513468  0.62419853  1
  Cl  Cl484  1  0.50600103  0.54984301  0.62505707  1
  Cl  Cl485  1  0.48945869  0.88455063  0.61722559  1
  Cl  Cl486  1  0.00749421  0.11342004  0.11057104  1
  Cl  Cl487  1  0.00024824  0.44512836  0.11732554  1
  Cl  Cl488  1  0.00785546  0.77638146  0.10929655  1
  Cl  Cl489  1  0.50474797  0.11576822  0.12095524  1
  Cl  Cl490  1  0.49588704  0.44541427  0.11508069  1
  Cl  Cl491  1  0.51423651  0.77343877  0.10334061  1
  Cl  Cl492  1  0.00952864  0.22517718  0.88913668  1
  Cl  Cl493  1  0.01118111  0.55301260  0.87682660  1
  Cl  Cl494  1  0.01174275  0.89427202  0.89625737  1
  Cl  Cl495  1  0.51376747  0.22295096  0.89494997  1
  Cl  Cl496  1  0.50925528  0.55786414  0.89118482  1
  Cl  Cl497  1  0.50549535  0.88900818  0.88598975  1
  Cl  Cl498  1  -0.00348886  0.11849487  0.37662701  1
  Cl  Cl499  1  0.00680727  0.44399304  0.38179866  1
  Cl  Cl500  1  0.00523801  0.78055490  0.37856271  1
  Cl  Cl501  1  0.49062332  0.10701025  0.39416646  1
  Cl  Cl502  1  0.50544377  0.43823464  0.39105194  1
  Cl  Cl503  1  0.50688447  0.77620849  0.38154740  1
  Cl  Cl504  1  0.36281787  0.14240072  0.75319151  1
  Cl  Cl505  1  0.36427829  0.47841205  0.75070817  1
  Cl  Cl506  1  0.36109556  0.81210146  0.75522889  1
  Cl  Cl507  1  0.86359347  0.14566716  0.75368674  1
  Cl  Cl508  1  0.85958854  0.47799740  0.75394763  1
  Cl  Cl509  1  0.85926831  0.81186311  0.75178820  1
  Cl  Cl510  1  0.14507723  0.18588294  0.25164263  1
  Cl  Cl511  1  0.13903056  0.51849317  0.24754119  1
  Cl  Cl512  1  0.13731329  0.85543063  0.24684369  1
  Cl  Cl513  1  0.64117172  0.18361621  0.25180384  1
  Cl  Cl514  1  0.64547808  0.51858064  0.24984155  1
  Cl  Cl515  1  0.64647450  0.85374413  0.25016626  1
  Cl  Cl516  1  0.14411266  0.14563897  0.74737096  1
  Cl  Cl517  1  0.14389537  0.48127923  0.75304008  1
  Cl  Cl518  1  0.13896570  0.81440700  0.75127878  1
  Cl  Cl519  1  0.64387863  0.14865654  0.74986790  1
  Cl  Cl520  1  0.64023413  0.47834323  0.75410410  1
  Cl  Cl521  1  0.64222325  0.81154238  0.74834736  1
  Cl  Cl522  1  0.36368011  0.18868414  0.24592142  1
  Cl  Cl523  1  0.36078077  0.52052194  0.24715341  1
  Cl  Cl524  1  0.36230693  0.85356669  0.24454095  1
  Cl  Cl525  1  0.86151122  0.18784278  0.24398963  1
  Cl  Cl526  1  0.86546149  0.52374908  0.25010819  1
  Cl  Cl527  1  0.86727541  0.85564508  0.24303465  1
  Cl  Cl528  1  0.11351616  0.31293142  0.75194763  1
  Cl  Cl529  1  0.10556200  0.64864217  0.74975232  1
  Cl  Cl530  1  0.10594658  0.97998009  0.74970063  1
  Cl  Cl531  1  0.60627890  0.31344756  0.75158314  1
  Cl  Cl532  1  0.61104811  0.64755429  0.75037471  1
  Cl  Cl533  1  0.61341782  0.97808787  0.74601135  1
  Cl  Cl534  1  0.38879561  0.02046596  0.24123869  1
  Cl  Cl535  1  0.39073125  0.35525611  0.24791570  1
  Cl  Cl536  1  0.39232689  0.68905357  0.24350756  1
  Cl  Cl537  1  0.89479099  0.02169119  0.24863531  1
  Cl  Cl538  1  0.88372494  0.35494132  0.24923684  1
  Cl  Cl539  1  0.88408842  0.69065901  0.24764604  1
  Cl  Cl540  1  0.38666193  0.30955714  0.74817721  1
  Cl  Cl541  1  0.38819560  0.64645579  0.75085498  1
  Cl  Cl542  1  0.39220547  0.97810012  0.75524565  1
  Cl  Cl543  1  0.89109619  0.30895525  0.75127745  1
  Cl  Cl544  1  0.88789994  0.64490595  0.75253900  1
  Cl  Cl545  1  0.88420544  0.97823540  0.75902947  1
  Cl  Cl546  1  0.11604320  0.02223982  0.24994946  1
  Cl  Cl547  1  0.10523161  0.34988278  0.24896615  1
  Cl  Cl548  1  0.10769896  0.68338710  0.24795424  1
  Cl  Cl549  1  0.60983490  0.01867472  0.25462235  1
  Cl  Cl550  1  0.61048501  0.35275379  0.24991336  1
  Cl  Cl551  1  0.61213719  0.68619965  0.24839524  1
