# generated using pymatgen
data_H8PbC4(N3Cl2)2
_symmetry_space_group_name_H-M   'P 1'
_cell_length_a   16.62126687
_cell_length_b   22.50071925
_cell_length_c   21.58768172
_cell_angle_alpha   90.00011876
_cell_angle_beta   89.99075277
_cell_angle_gamma   89.99876866
_symmetry_Int_Tables_number   1
_chemical_formula_structural   H8PbC4(N3Cl2)2
_chemical_formula_sum   'H192 Pb24 C96 N144 Cl96'
_cell_volume   8073.58689660
_cell_formula_units_Z   24
loop_
 _symmetry_equiv_pos_site_id
 _symmetry_equiv_pos_as_xyz
  1  'x, y, z'
loop_
 _atom_site_type_symbol
 _atom_site_label
 _atom_site_symmetry_multiplicity
 _atom_site_fract_x
 _atom_site_fract_y
 _atom_site_fract_z
 _atom_site_occupancy
  H  H0  1  -0.00287714  0.03297673  0.68280767  1
  H  H1  1  0.00724896  0.36502680  0.67905268  1
  H  H2  1  0.00300156  0.69998837  0.68078207  1
  H  H3  1  0.49579413  0.03222835  0.67925242  1
  H  H4  1  0.49108110  0.36300820  0.67893546  1
  H  H5  1  0.50397433  0.69980223  0.67897869  1
  H  H6  1  0.00586843  0.30068162  0.17924080  1
  H  H7  1  0.00556173  0.63589346  0.17758686  1
  H  H8  1  -0.00199484  0.96802133  0.17976588  1
  H  H9  1  0.49337252  0.29968391  0.17973472  1
  H  H10  1  0.49258543  0.63442803  0.18224917  1
  H  H11  1  0.50468200  0.96689013  0.18076138  1
  H  H12  1  0.00514016  0.03172692  0.81960088  1
  H  H13  1  0.00642461  0.36485336  0.82203677  1
  H  H14  1  0.00211085  0.69899692  0.82058605  1
  H  H15  1  0.50653218  0.03214291  0.81687421  1
  H  H16  1  0.49482920  0.36601533  0.81566971  1
  H  H17  1  0.50692364  0.70039569  0.82180359  1
  H  H18  1  0.00392032  0.30033423  0.32120898  1
  H  H19  1  -0.00114695  0.63444154  0.31853713  1
  H  H20  1  0.00883801  0.96835655  0.31953181  1
  H  H21  1  0.50042312  0.29982551  0.32305884  1
  H  H22  1  0.50260343  0.63439090  0.32174966  1
  H  H23  1  0.49307186  0.96725656  0.32017417  1
  H  H24  1  0.25113506  0.19998331  0.67650889  1
  H  H25  1  0.25031009  0.53241229  0.68061280  1
  H  H26  1  0.25003010  0.86400563  0.68235597  1
  H  H27  1  0.74694128  0.19860393  0.67989508  1
  H  H28  1  0.75672663  0.53190771  0.68058715  1
  H  H29  1  0.75748365  0.86440545  0.67763043  1
  H  H30  1  0.25066641  0.13429008  0.18184105  1
  H  H31  1  0.25667426  0.46743488  0.18468564  1
  H  H32  1  0.24499732  0.80066404  0.17927527  1
  H  H33  1  0.74485965  0.13450903  0.17901890  1
  H  H34  1  0.74216628  0.46672947  0.17927450  1
  H  H35  1  0.74522166  0.79939384  0.17868060  1
  H  H36  1  0.25316748  0.19872014  0.81756940  1
  H  H37  1  0.25944974  0.53299137  0.81868583  1
  H  H38  1  0.25096279  0.86438034  0.81907731  1
  H  H39  1  0.74704331  0.19926506  0.82022298  1
  H  H40  1  0.74667725  0.53365375  0.81878409  1
  H  H41  1  0.74790005  0.86452567  0.82036064  1
  H  H42  1  0.25160483  0.13574309  0.31847184  1
  H  H43  1  0.24891908  0.46964314  0.31882137  1
  H  H44  1  0.25041468  0.79964724  0.31963801  1
  H  H45  1  0.75162880  0.13483608  0.31829055  1
  H  H46  1  0.75847969  0.46637565  0.32255565  1
  H  H47  1  0.74522317  0.80121575  0.32143949  1
  H  H48  1  0.12881189  0.05450958  0.61672986  1
  H  H49  1  0.12097399  0.38918662  0.59885676  1
  H  H50  1  0.11726301  0.72135575  0.60306944  1
  H  H51  1  0.63075900  0.05216122  0.61950839  1
  H  H52  1  0.62857975  0.38267678  0.62325225  1
  H  H53  1  0.61825329  0.72436444  0.59936913  1
  H  H54  1  0.38360410  0.27500982  0.09691183  1
  H  H55  1  0.38066222  0.61295694  0.10285075  1
  H  H56  1  0.36972996  0.94692236  0.11935848  1
  H  H57  1  0.87692324  0.27958667  0.11223444  1
  H  H58  1  0.87490069  0.61646576  0.11242435  1
  H  H59  1  0.87598007  0.94490638  0.10606411  1
  H  H60  1  0.37145687  0.05216058  0.87961444  1
  H  H61  1  0.37459466  0.38722059  0.88864798  1
  H  H62  1  0.37351052  0.71852497  0.88235209  1
  H  H63  1  0.87212090  0.05245658  0.88482958  1
  H  H64  1  0.87051957  0.38388561  0.88163134  1
  H  H65  1  0.87177204  0.72051217  0.88544860  1
  H  H66  1  0.12359529  0.27781635  0.39542583  1
  H  H67  1  0.12501192  0.61342887  0.38822833  1
  H  H68  1  0.11958842  0.94240027  0.40228425  1
  H  H69  1  0.62344543  0.28045318  0.39311770  1
  H  H70  1  0.62394835  0.61372305  0.39561661  1
  H  H71  1  0.62935627  0.94739866  0.37954239  1
  H  H72  1  0.37597125  0.22013707  0.60823004  1
  H  H73  1  0.37710117  0.55587351  0.61349252  1
  H  H74  1  0.37496213  0.88683448  0.61357530  1
  H  H75  1  0.87733683  0.22050149  0.61521736  1
  H  H76  1  0.87337302  0.55472966  0.60132073  1
  H  H77  1  0.87066687  0.89086794  0.59845242  1
  H  H78  1  0.12623413  0.11329021  0.10973283  1
  H  H79  1  0.12721756  0.44703888  0.12009060  1
  H  H80  1  0.12674578  0.77843202  0.10397644  1
  H  H81  1  0.63128736  0.10858265  0.10070631  1
  H  H82  1  0.63462181  0.44195927  0.09550458  1
  H  H83  1  0.62582294  0.77744536  0.10388654  1
  H  H84  1  0.12144037  0.22025534  0.88364033  1
  H  H85  1  0.12405704  0.55228576  0.87911062  1
  H  H86  1  0.12998876  0.88734009  0.89432273  1
  H  H87  1  0.62092573  0.22173169  0.89093452  1
  H  H88  1  0.62846326  0.55671096  0.89242226  1
  H  H89  1  0.62951040  0.88716176  0.89724717  1
  H  H90  1  0.36960353  0.11417435  0.39534457  1
  H  H91  1  0.37383656  0.44336091  0.38888787  1
  H  H92  1  0.37956559  0.77890814  0.38805603  1
  H  H93  1  0.86900229  0.11285965  0.39424057  1
  H  H94  1  0.86953305  0.44337429  0.40201650  1
  H  H95  1  0.87917066  0.78148230  0.38506015  1
  H  H96  1  0.37447312  0.27887553  0.39001313  1
  H  H97  1  0.37563619  0.61071469  0.38865324  1
  H  H98  1  0.38161437  0.94243779  0.40028947  1
  H  H99  1  0.87442186  0.28261657  0.38540646  1
  H  H100  1  0.87575771  0.61164309  0.39213561  1
  H  H101  1  0.87300096  0.94766141  0.37927584  1
  H  H102  1  0.11958390  0.05697513  0.89912866  1
  H  H103  1  0.11696963  0.39208099  0.90234785  1
  H  H104  1  0.12057494  0.72265883  0.89729779  1
  H  H105  1  0.61977348  0.05579074  0.89641840  1
  H  H106  1  0.62388664  0.38613476  0.88085832  1
  H  H107  1  0.62145502  0.72192835  0.89943172  1
  H  H108  1  0.12586021  0.27649297  0.10540643  1
  H  H109  1  0.12278073  0.60873521  0.10179271  1
  H  H110  1  0.12434662  0.94495029  0.10967448  1
  H  H111  1  0.63042827  0.28205514  0.12272352  1
  H  H112  1  0.62878207  0.61800628  0.12271398  1
  H  H113  1  0.61858512  0.94274347  0.10202105  1
  H  H114  1  0.38253515  0.05856637  0.59984597  1
  H  H115  1  0.38190140  0.38960706  0.59593277  1
  H  H116  1  0.37031062  0.71928764  0.61761926  1
  H  H117  1  0.87999372  0.05483319  0.60602828  1
  H  H118  1  0.87284156  0.38551300  0.61823489  1
  H  H119  1  0.86865500  0.71852367  0.62007975  1
  H  H120  1  0.12048435  0.11535940  0.38547520  1
  H  H121  1  0.12373188  0.44619016  0.38795988  1
  H  H122  1  0.13112740  0.77740353  0.39554109  1
  H  H123  1  0.62017579  0.11669210  0.38116578  1
  H  H124  1  0.62282906  0.44835584  0.38003067  1
  H  H125  1  0.63163419  0.77602490  0.40136477  1
  H  H126  1  0.37014767  0.22195826  0.89452815  1
  H  H127  1  0.37077398  0.55857491  0.90074089  1
  H  H128  1  0.37842516  0.88512646  0.88960925  1
  H  H129  1  0.86925131  0.22246143  0.89332355  1
  H  H130  1  0.87724995  0.55245508  0.88368436  1
  H  H131  1  0.87838007  0.88714946  0.88436570  1
  H  H132  1  0.37539632  0.11267203  0.11104354  1
  H  H133  1  0.37654601  0.44644188  0.11106965  1
  H  H134  1  0.37546263  0.78146979  0.11647916  1
  H  H135  1  0.87899566  0.11745692  0.11641873  1
  H  H136  1  0.88067946  0.44835607  0.12408000  1
  H  H137  1  0.87480093  0.78146583  0.11478184  1
  H  H138  1  0.12714453  0.22114560  0.60786451  1
  H  H139  1  0.12853144  0.55466961  0.60648952  1
  H  H140  1  0.12517713  0.88844399  0.61123824  1
  H  H141  1  0.62885924  0.22223756  0.60283320  1
  H  H142  1  0.62528157  0.55340238  0.61369313  1
  H  H143  1  0.62311456  0.88513181  0.61657098  1
  H  H144  1  0.07827716  0.58628564  0.49814670  1
  H  H145  1  0.44992305  0.08948807  0.49842076  1
  H  H146  1  0.44390327  0.58727402  -0.00608088  1
  H  H147  1  0.05343195  0.41280912  0.49523718  1
  H  H148  1  0.84857136  0.75133554  0.49146101  1
  H  H149  1  0.67820152  0.58591573  1.00154951  1
  H  H150  1  0.33787361  0.75121310  0.49363334  1
  H  H151  1  0.29937907  0.58698486  1.00050752  1
  H  H152  1  0.06256006  0.59483376  -0.00147236  1
  H  H153  1  0.30957267  0.08975711  0.50390642  1
  H  H154  1  0.05938204  0.74877439  0.49498684  1
  H  H155  1  0.60096928  0.91877562  0.48761522  1
  H  H156  1  0.34495380  0.75153783  0.00290014  1
  H  H157  1  0.61091255  0.41381850  0.51035907  1
  H  H158  1  0.32681533  0.08399153  0.00183964  1
  H  H159  1  0.81302519  0.08553639  0.50352017  1
  H  H160  1  0.44647300  0.91695007  0.50787041  1
  H  H161  1  0.42776776  0.40709118  1.00206029  1
  H  H162  1  0.90775585  0.25185729  0.49836990  1
  H  H163  1  0.32893194  0.91182709  0.50108757  1
  H  H164  1  0.69916559  0.09359656  -0.00342345  1
  H  H165  1  0.90978192  0.58179366  0.00879896  1
  H  H166  1  0.32255654  0.42712365  -0.00216573  1
  H  H167  1  0.57133253  0.57838658  0.49524883  1
  H  H168  1  0.84179712  0.75142015  0.00133061  1
  H  H169  1  0.17657596  0.90680665  0.50359997  1
  H  H170  1  0.55668871  0.91313616  -0.00488877  1
  H  H171  1  0.30966607  0.24927997  1.00217024  1
  H  H172  1  0.55480010  0.08270804  1.00291119  1
  H  H173  1  0.32301319  0.42193716  0.49621822  1
  H  H174  1  0.89690432  0.41676223  0.98906422  1
  H  H175  1  0.94094116  0.08160177  0.49758699  1
  H  H176  1  0.84606358  0.08060440  0.01215111  1
  H  H177  1  0.07427973  0.91644497  0.00458571  1
  H  H178  1  0.17099910  0.41982981  0.50004785  1
  H  H179  1  0.45423734  0.40511605  0.49320978  1
  H  H180  1  0.69099049  0.91255608  1.00189246  1
  H  H181  1  0.40127677  0.91699103  0.01248074  1
  H  H182  1  0.04623498  0.92066411  0.50423680  1
  H  H183  1  0.64974612  0.08910072  0.49393589  1
  H  H184  1  0.91976682  0.24990181  0.00625736  1
  H  H185  1  0.45452192  0.24871630  -0.00403062  1
  H  H186  1  0.41746890  0.59304214  0.49515469  1
  H  H187  1  0.58568455  0.41356640  0.99418153  1
  H  H188  1  0.04538659  0.40475716  1.00547504  1
  H  H189  1  0.16536497  0.42286571  0.00539527  1
  H  H190  1  0.66594734  0.24878533  0.99610848  1
  H  H191  1  0.70795302  0.41915491  -0.00618906  1
  Pb  Pb192  1  0.24831669  0.04670018  0.74882694  1
  Pb  Pb193  1  0.24675419  0.38367145  0.74813938  1
  Pb  Pb194  1  0.24845918  0.71143217  0.74784913  1
  Pb  Pb195  1  0.75179365  0.04740319  0.75337903  1
  Pb  Pb196  1  0.74935304  0.37862213  0.75564111  1
  Pb  Pb197  1  0.74626463  0.71633590  0.74985717  1
  Pb  Pb198  1  0.24910202  0.28701464  0.24480481  1
  Pb  Pb199  1  0.25025619  0.62120225  0.24460382  1
  Pb  Pb200  1  0.24454695  0.95210180  0.25831072  1
  Pb  Pb201  1  0.74822637  0.28632310  0.24830434  1
  Pb  Pb202  1  0.74901152  0.61977863  0.25193466  1
  Pb  Pb203  1  0.74934858  0.95382537  0.24213883  1
  Pb  Pb204  1  0.00113663  0.21323672  0.75268980  1
  Pb  Pb205  1  -0.00539571  0.54853622  0.74811750  1
  Pb  Pb206  1  0.00141311  0.87912873  0.74771684  1
  Pb  Pb207  1  0.49730300  0.21365454  0.75386211  1
  Pb  Pb208  1  0.50157206  0.54909124  0.75014291  1
  Pb  Pb209  1  0.49804495  0.88054194  0.75135057  1
  Pb  Pb210  1  -0.00149338  0.12200804  0.25250211  1
  Pb  Pb211  1  -0.00124390  0.45245353  0.25289666  1
  Pb  Pb212  1  -0.00365927  0.78550734  0.25033674  1
  Pb  Pb213  1  0.49515215  0.11833851  0.25012730  1
  Pb  Pb214  1  0.50005175  0.45217848  0.24732434  1
  Pb  Pb215  1  0.50063711  0.78755329  0.25192097  1
  C  C216  1  0.00230201  0.04734480  0.63505873  1
  C  C217  1  0.00077766  0.37939303  0.63142372  1
  C  C218  1  -0.00338849  0.71345046  0.63288501  1
  C  C219  1  0.50278931  0.04739173  0.63186073  1
  C  C220  1  0.50019886  0.37764352  0.63140157  1
  C  C221  1  0.49757249  0.71425687  0.63150994  1
  C  C222  1  0.00249997  0.28590216  0.13163544  1
  C  C223  1  0.00120868  0.62021204  0.13006296  1
  C  C224  1  -0.00030158  0.95305866  0.13209758  1
  C  C225  1  0.50229835  0.28573450  0.13209979  1
  C  C226  1  0.50057859  0.62133673  0.13431115  1
  C  C227  1  0.49703247  0.95242094  0.13304089  1
  C  C228  1  -0.00120117  0.04636077  0.86724297  1
  C  C229  1  -0.00223684  0.38027546  0.86934499  1
  C  C230  1  -0.00164165  0.71394639  0.86806719  1
  C  C231  1  0.49889949  0.04661796  0.86448099  1
  C  C232  1  0.49795499  0.38023983  0.86366645  1
  C  C233  1  0.50048138  0.71385807  0.86974521  1
  C  C234  1  0.00002553  0.28639250  0.36912622  1
  C  C235  1  -0.00021779  0.61959835  0.36628537  1
  C  C236  1  0.00100704  0.95378527  0.36706677  1
  C  C237  1  0.49941815  0.28579407  0.37118156  1
  C  C238  1  0.50072714  0.61956529  0.36964284  1
  C  C239  1  0.50186757  0.95249495  0.36770755  1
  C  C240  1  0.25136994  0.21421106  0.62844443  1
  C  C241  1  0.25174615  0.54730309  0.63308446  1
  C  C242  1  0.24941161  0.87900439  0.63447081  1
  C  C243  1  0.75081737  0.21359825  0.63238303  1
  C  C244  1  0.75164921  0.54603203  0.63267421  1
  C  C245  1  0.75006067  0.87964779  0.63056140  1
  C  C246  1  0.25084170  0.11965141  0.13403775  1
  C  C247  1  0.25331900  0.45337085  0.13665191  1
  C  C248  1  0.24970944  0.78662721  0.13143427  1
  C  C249  1  0.75199242  0.12011725  0.13121237  1
  C  C250  1  0.75230057  0.45326378  0.13160020  1
  C  C251  1  0.74931552  0.78570929  0.13068489  1
  C  C252  1  0.24801067  0.21343630  0.86523401  1
  C  C253  1  0.25166450  0.54763453  0.86619720  1
  C  C254  1  0.25324148  0.87873950  0.86701562  1
  C  C255  1  0.74532260  0.21412111  0.86800754  1
  C  C256  1  0.75047697  0.54734688  0.86679433  1
  C  C257  1  0.75161975  0.87926412  0.86797769  1
  C  C258  1  0.24700779  0.12139554  0.36632522  1
  C  C259  1  0.24931990  0.45403480  0.36647873  1
  C  C260  1  0.25411408  0.78510473  0.36749128  1
  C  C261  1  0.74667513  0.12083516  0.36631643  1
  C  C262  1  0.75010762  0.45295109  0.37015185  1
  C  C263  1  0.75248944  0.78636437  0.36892755  1
  C  C264  1  0.29165830  0.90534737  0.54188040  1
  C  C265  1  0.95281946  0.26130828  0.46191314  1
  C  C266  1  0.47690416  0.92599325  0.46424958  1
  C  C267  1  0.45725752  0.25979121  0.46276030  1
  C  C268  1  0.69414969  0.42902584  0.45865742  1
  C  C269  1  0.53775555  0.26033474  0.46381884  1
  C  C270  1  0.69561114  0.09758714  0.45808970  1
  C  C271  1  0.56283540  0.26080906  0.04379231  1
  C  C272  1  0.54452821  0.40342163  0.95647819  1
  C  C273  1  0.77465500  0.90975103  0.53587719  1
  C  C274  1  0.55741479  0.59907401  0.04503494  1
  C  C275  1  0.94169004  0.73722319  0.54301686  1
  C  C276  1  0.80229406  0.90732319  0.95877078  1
  C  C277  1  0.03450655  0.25982006  0.46384163  1
  C  C278  1  0.52832843  0.73941756  0.96526371  1
  C  C279  1  0.71814447  0.57340816  0.96284758  1
  C  C280  1  0.52267161  0.07217109  0.96027589  1
  C  C281  1  0.97429390  0.07195713  0.53980251  1
  C  C282  1  0.20612637  0.43112043  0.04380445  1
  C  C283  1  0.29370159  0.57622435  0.54157987  1
  C  C284  1  0.27548473  0.09774336  0.46166126  1
  C  C285  1  0.29219950  0.24025641  0.53644668  1
  C  C286  1  0.21152332  0.24053293  0.53633984  1
  C  C287  1  0.77387777  0.42722790  0.46611487  1
  C  C288  1  0.95275688  0.74118760  0.95882193  1
  C  C289  1  0.29847313  0.76141249  0.03910607  1
  C  C290  1  0.94502870  0.40655974  0.54212036  1
  C  C291  1  0.56041524  0.40388634  0.54469452  1
  C  C292  1  0.28807320  0.43164681  0.04035837  1
  C  C293  1  0.03933675  0.25676394  0.03729175  1
  C  C294  1  0.03854469  0.59520743  0.45926208  1
  C  C295  1  0.44735267  0.73841429  0.95939561  1
  C  C296  1  0.77748560  0.09588034  0.46267829  1
  C  C297  1  0.21693853  0.76066294  0.03622783  1
  C  C298  1  0.79981061  0.57063373  0.95873190  1
  C  C299  1  0.79679367  0.76096372  0.03783079  1
  C  C300  1  0.44743256  0.74004429  0.54168988  1
  C  C301  1  0.02302291  0.73870367  0.53560977  1
  C  C302  1  0.71513699  0.75976199  0.03572701  1
  C  C303  1  0.46265820  0.40231607  0.95979227  1
  C  C304  1  0.81412466  0.43019715  0.04389938  1
  C  C305  1  0.52453762  0.92537821  0.03723077  1
  C  C306  1  0.20772841  0.42678506  0.45894769  1
  C  C307  1  0.79672522  0.24042997  0.54149787  1
  C  C308  1  0.27581165  0.23926244  0.96024566  1
  C  C309  1  0.47659798  0.59690832  0.03642831  1
  C  C310  1  0.28774809  0.09404573  0.04092800  1
  C  C311  1  0.55923576  0.07526058  0.54337925  1
  N  N312  1  0.03013884  0.74190764  0.96406710  1
  N  N313  1  0.02042332  0.92576756  0.46122184  1
  N  N314  1  0.95957056  0.92711476  0.03829945  1
  N  N315  1  0.21589396  0.57530165  0.53780808  1
  N  N316  1  0.28725812  0.42405441  0.45774096  1
  N  N317  1  0.48057368  0.07688752  0.53749780  1
  N  N318  1  0.19645072  0.09703647  0.45809432  1
  N  N319  1  0.29626777  0.76096592  0.45838054  1
  N  N320  1  0.94972388  0.07075268  0.95859544  1
  N  N321  1  0.52474155  0.74191263  0.53458522  1
  N  N322  1  0.53557906  0.60119361  0.46445707  1
  N  N323  1  0.78524337  0.23905606  0.96188713  1
  N  N324  1  0.21881139  0.90464301  0.96187843  1
  N  N325  1  0.80160404  0.76084035  0.45757978  1
  N  N326  1  0.27144137  0.57150559  0.96134587  1
  N  N327  1  0.72345517  0.90640904  0.96203909  1
  N  N328  1  0.03132695  0.58619104  0.03859724  1
  N  N329  1  0.72572602  0.08700271  0.03900868  1
  N  N330  1  0.48142140  0.40624768  0.53600850  1
  N  N331  1  0.78105316  0.57097939  0.53649768  1
  N  N332  1  0.95931109  0.59401969  0.46076699  1
  N  N333  1  0.19672259  0.23908006  0.95654720  1
  N  N334  1  0.70474786  0.57016006  0.54047371  1
  N  N335  1  0.96043670  0.25891463  0.04042104  1
  N  N336  1  0.21192568  0.90709892  0.54241897  1
  N  N337  1  0.02588763  0.07315842  0.96321457  1
  N  N338  1  0.48417892  0.25878910  0.03629876  1
  N  N339  1  0.73580644  0.42758786  0.03535765  1
  N  N340  1  0.72386705  0.75843732  0.46441187  1
  N  N341  1  0.29546561  0.90337943  0.96022952  1
  N  N342  1  0.70650484  0.23843265  0.95986311  1
  N  N343  1  0.03761049  0.92726710  0.04088784  1
  N  N344  1  0.80388453  0.09852179  0.04206749  1
  N  N345  1  0.95325722  0.59977858  0.03914287  1
  N  N346  1  0.20846860  0.09375735  0.04015854  1
  N  N347  1  0.94251894  0.40119156  0.95742016  1
  N  N348  1  0.44546956  0.92805288  0.04399617  1
  N  N349  1  0.19366398  0.57073058  0.95495863  1
  N  N350  1  0.21789003  0.76034939  0.46246201  1
  N  N351  1  0.69735607  0.90777994  0.54042090  1
  N  N352  1  0.05332792  0.07192734  0.54343716  1
  N  N353  1  0.44362999  0.07099269  0.95473808  1
  N  N354  1  0.71932157  0.24114051  0.53626950  1
  N  N355  1  0.55568557  0.92694717  0.45569413  1
  N  N356  1  0.02030587  0.41229753  0.96263355  1
  N  N357  1  0.94286979  0.92793707  0.45480580  1
  N  N358  1  0.02367939  0.40673604  0.53638368  1
  N  N359  1  0.45748945  0.58768715  0.45857580  1
  N  N360  1  0.06907475  0.05692604  0.60292599  1
  N  N361  1  0.05933841  0.38808616  0.59086921  1
  N  N362  1  0.05605748  0.72370438  0.59294868  1
  N  N363  1  0.57322390  0.05698013  0.60177851  1
  N  N364  1  0.57163405  0.38799912  0.60415747  1
  N  N365  1  0.55602441  0.72535535  0.59180198  1
  N  N366  1  0.44605918  0.27496342  0.09045481  1
  N  N367  1  0.44204150  0.61096419  0.09341583  1
  N  N368  1  0.42873992  0.94424251  0.10306918  1
  N  N369  1  0.93684956  0.27713864  0.09857321  1
  N  N370  1  0.93434997  0.61018473  0.09846967  1
  N  N371  1  0.93650459  0.94299071  0.09561984  1
  N  N372  1  0.43077046  0.05530332  0.89485410  1
  N  N373  1  0.43470492  0.38835103  0.90160430  1
  N  N374  1  0.43095380  0.72284925  0.90075986  1
  N  N375  1  0.93158098  0.05462710  0.89888305  1
  N  N376  1  0.92850810  0.39104125  0.89742812  1
  N  N377  1  0.93075688  0.72417196  0.90074457  1
  N  N378  1  0.06293592  0.27493211  0.40796279  1
  N  N379  1  0.06508646  0.61045690  0.40151613  1
  N  N380  1  0.05769795  0.94392936  0.40889462  1
  N  N381  1  0.56407385  0.27606182  0.40797398  1
  N  N382  1  0.56305863  0.60870324  0.40599097  1
  N  N383  1  0.57074447  0.94346299  0.39649485  1
  N  N384  1  0.31688717  0.22439444  0.59274305  1
  N  N385  1  0.31777599  0.55893131  0.59902594  1
  N  N386  1  0.31512125  0.88986453  0.59941235  1
  N  N387  1  0.81833633  0.22377869  0.59975551  1
  N  N388  1  0.81161921  0.55612666  0.59346919  1
  N  N389  1  0.80933815  0.89276431  0.58989742  1
  N  N390  1  0.18720172  0.10965168  0.09851394  1
  N  N391  1  0.18600586  0.44457514  0.10380898  1
  N  N392  1  0.18749897  0.77574297  0.09183273  1
  N  N393  1  0.69306787  0.11052213  0.09108073  1
  N  N394  1  0.69679757  0.44377588  0.08900871  1
  N  N395  1  0.68664030  0.77459883  0.09166320  1
  N  N396  1  0.18121068  0.22293705  0.89737463  1
  N  N397  1  0.18229146  0.55478158  0.89592149  1
  N  N398  1  0.19145151  0.88925679  0.90423885  1
  N  N399  1  0.68126092  0.22349417  0.90297531  1
  N  N400  1  0.68871050  0.55820942  0.90451063  1
  N  N401  1  0.69108957  0.88774573  0.90670404  1
  N  N402  1  0.30820753  0.11194870  0.40550508  1
  N  N403  1  0.31286442  0.44429620  0.40169263  1
  N  N404  1  0.31940717  0.77575816  0.40100960  1
  N  N405  1  0.80794154  0.11040102  0.40515052  1
  N  N406  1  0.80850383  0.44176989  0.41202561  1
  N  N407  1  0.82008903  0.77779610  0.39969338  1
  N  N408  1  0.43338150  0.27513420  0.40609495  1
  N  N409  1  0.43534412  0.61084139  0.40331189  1
  N  N410  1  0.44289842  0.94158893  0.40947730  1
  N  N411  1  0.93293318  0.27799531  0.40166925  1
  N  N412  1  0.93691757  0.60926353  0.40252791  1
  N  N413  1  0.93140208  0.94370532  0.39570899  1
  N  N414  1  0.05772724  0.05768938  0.90695155  1
  N  N415  1  0.05511490  0.38952107  0.91089774  1
  N  N416  1  0.05871547  0.72469359  0.90609941  1
  N  N417  1  0.55800657  0.05733561  0.90526220  1
  N  N418  1  0.56504750  0.38965633  0.89650959  1
  N  N419  1  0.56039893  0.72445435  0.91033626  1
  N  N420  1  0.06575368  0.27378770  0.09344224  1
  N  N421  1  0.06172025  0.60987727  0.09169392  1
  N  N422  1  0.06379726  0.94307857  0.09745445  1
  N  N423  1  0.57382667  0.27711559  0.10338798  1
  N  N424  1  0.57140632  0.61355979  0.10420601  1
  N  N425  1  0.55694638  0.94109143  0.09236490  1
  N  N426  1  0.44474481  0.05913434  0.59195370  1
  N  N427  1  0.44413458  0.38658160  0.58887983  1
  N  N428  1  0.42839172  0.72354707  0.60070116  1
  N  N429  1  0.94125528  0.05710376  0.59566559  1
  N  N430  1  0.93085697  0.39020943  0.60098577  1
  N  N431  1  0.92657302  0.72213900  0.60210204  1
  N  N432  1  0.18046572  0.11206723  0.39882184  1
  N  N433  1  0.18374786  0.44374128  0.40188752  1
  N  N434  1  0.19237780  0.77520642  0.40552233  1
  N  N435  1  0.67821970  0.11293719  0.39789623  1
  N  N436  1  0.67946206  0.44457949  0.39954514  1
  N  N437  1  0.69348828  0.77443032  0.40898443  1
  N  N438  1  0.30897526  0.22406678  0.90443089  1
  N  N439  1  0.30842775  0.55927016  0.90733308  1
  N  N440  1  0.31802329  0.88743543  0.90152357  1
  N  N441  1  0.80831543  0.22394753  0.90462580  1
  N  N442  1  0.81853664  0.55539963  0.90026340  1
  N  N443  1  0.81998588  0.89097538  0.90042128  1
  N  N444  1  0.31546891  0.10965102  0.09836446  1
  N  N445  1  0.31632564  0.44513649  0.09853900  1
  N  N446  1  0.31729076  0.77758559  0.09966111  1
  N  N447  1  0.82027973  0.11004386  0.10157123  1
  N  N448  1  0.82446092  0.44514459  0.10386653  1
  N  N449  1  0.81654296  0.77727543  0.09825031  1
  N  N450  1  0.18628815  0.22485183  0.59249981  1
  N  N451  1  0.18972308  0.55705833  0.59627670  1
  N  N452  1  0.18595976  0.88712560  0.59866312  1
  N  N453  1  0.69054279  0.22410157  0.59408995  1
  N  N454  1  0.68535173  0.55478203  0.60019869  1
  N  N455  1  0.68192709  0.88877150  0.60082914  1
  Cl  Cl456  1  0.25999340  0.05430639  0.61320276  1
  Cl  Cl457  1  0.25376686  0.39291951  0.60311598  1
  Cl  Cl458  1  0.24598620  0.72028155  0.61502815  1
  Cl  Cl459  1  0.75687145  0.05237766  0.62087249  1
  Cl  Cl460  1  0.75148449  0.38087297  0.62668052  1
  Cl  Cl461  1  0.74303466  0.72185133  0.61740678  1
  Cl  Cl462  1  0.25990360  0.27797071  0.10950008  1
  Cl  Cl463  1  0.25221877  0.61078313  0.10623873  1
  Cl  Cl464  1  0.24635779  0.94627245  0.12561281  1
  Cl  Cl465  1  0.75347118  0.28084861  0.11263252  1
  Cl  Cl466  1  0.75456445  0.61508103  0.11788183  1
  Cl  Cl467  1  0.74314085  0.94362475  0.10434708  1
  Cl  Cl468  1  0.24528595  0.05396988  0.88134897  1
  Cl  Cl469  1  0.24223718  0.39118941  0.88339256  1
  Cl  Cl470  1  0.24483345  0.71746438  0.88111927  1
  Cl  Cl471  1  0.74379380  0.05748331  0.89617650  1
  Cl  Cl472  1  0.74687286  0.38944504  0.89367845  1
  Cl  Cl473  1  0.74789397  0.72105904  0.88276808  1
  Cl  Cl474  1  0.24718931  0.28432612  0.37605028  1
  Cl  Cl475  1  0.25275404  0.61408462  0.37668189  1
  Cl  Cl476  1  0.24675027  0.93878383  0.39867546  1
  Cl  Cl477  1  0.74960833  0.28388675  0.37539934  1
  Cl  Cl478  1  0.74763773  0.61419504  0.38253805  1
  Cl  Cl479  1  0.75067699  0.94834861  0.37401289  1
  Cl  Cl480  1  0.00006513  0.22052863  0.62171675  1
  Cl  Cl481  1  0.00075672  0.55121262  0.61522807  1
  Cl  Cl482  1  0.00177418  0.89139446  0.60775247  1
  Cl  Cl483  1  0.50353379  0.21616575  0.62250716  1
  Cl  Cl484  1  0.50100554  0.55640244  0.61003473  1
  Cl  Cl485  1  0.49740398  0.88897666  0.61617230  1
  Cl  Cl486  1  0.00185328  0.11909468  0.12020400  1
  Cl  Cl487  1  0.00467577  0.44079846  0.11063359  1
  Cl  Cl488  1  0.00308097  0.78170574  0.12269254  1
  Cl  Cl489  1  0.50927088  0.11301845  0.11440473  1
  Cl  Cl490  1  0.50879843  0.44320533  0.11394059  1
  Cl  Cl491  1  0.50308174  0.78369951  0.12100144  1
  Cl  Cl492  1  -0.00735830  0.22566806  0.88867280  1
  Cl  Cl493  1  0.00069069  0.55531958  0.88647773  1
  Cl  Cl494  1  0.00702623  0.88644582  0.88164884  1
  Cl  Cl495  1  0.49593043  0.22351029  0.89439679  1
  Cl  Cl496  1  0.49272008  0.55638786  0.88322192  1
  Cl  Cl497  1  0.50546666  0.88815650  0.88993951  1
  Cl  Cl498  1  -0.00708231  0.11352772  0.38658905  1
  Cl  Cl499  1  0.00095964  0.44137286  0.38913531  1
  Cl  Cl500  1  0.00518795  0.78066714  0.38648673  1
  Cl  Cl501  1  0.49066654  0.11091518  0.38959784  1
  Cl  Cl502  1  0.49258891  0.44184791  0.38975827  1
  Cl  Cl503  1  0.50363781  0.78058185  0.38525493  1
  Cl  Cl504  1  0.36363836  0.14463606  0.75031631  1
  Cl  Cl505  1  0.35985805  0.47535575  0.74891877  1
  Cl  Cl506  1  0.36279429  0.81117734  0.74938431  1
  Cl  Cl507  1  0.85843765  0.14346120  0.75367656  1
  Cl  Cl508  1  0.86329914  0.47779262  0.75565887  1
  Cl  Cl509  1  0.86138619  0.81056546  0.74908406  1
  Cl  Cl510  1  0.13768288  0.18954836  0.25082108  1
  Cl  Cl511  1  0.13658637  0.52146209  0.24684678  1
  Cl  Cl512  1  0.14364446  0.85630114  0.25246593  1
  Cl  Cl513  1  0.64222364  0.18999959  0.24688340  1
  Cl  Cl514  1  0.63793053  0.52157981  0.25278711  1
  Cl  Cl515  1  0.63802398  0.85573520  0.25061657  1
  Cl  Cl516  1  0.13680810  0.14524024  0.74861084  1
  Cl  Cl517  1  0.14035980  0.47581353  0.75180817  1
  Cl  Cl518  1  0.13645386  0.81190452  0.74699684  1
  Cl  Cl519  1  0.63735422  0.14345707  0.75336812  1
  Cl  Cl520  1  0.63567794  0.47782448  0.75003269  1
  Cl  Cl521  1  0.63733460  0.81071285  0.74814486  1
  Cl  Cl522  1  0.36403439  0.18859060  0.24811988  1
  Cl  Cl523  1  0.36337227  0.52085132  0.25066276  1
  Cl  Cl524  1  0.36560898  0.85619886  0.25207180  1
  Cl  Cl525  1  0.86249599  0.18854367  0.24543421  1
  Cl  Cl526  1  0.86528025  0.52157536  0.24663428  1
  Cl  Cl527  1  0.86347483  0.85493089  0.25085476  1
  Cl  Cl528  1  0.10779236  0.31172707  0.75245533  1
  Cl  Cl529  1  0.11413713  0.64318200  0.75129889  1
  Cl  Cl530  1  0.11273681  0.97730534  0.74429038  1
  Cl  Cl531  1  0.61458085  0.31074147  0.75387824  1
  Cl  Cl532  1  0.60871297  0.64309991  0.74936545  1
  Cl  Cl533  1  0.61127347  0.97825780  0.74817803  1
  Cl  Cl534  1  0.39321527  0.02236613  0.24866048  1
  Cl  Cl535  1  0.38862323  0.35629566  0.25087345  1
  Cl  Cl536  1  0.38888629  0.68770413  0.25283370  1
  Cl  Cl537  1  0.88672636  0.02128997  0.24892192  1
  Cl  Cl538  1  0.88984144  0.35663400  0.24444547  1
  Cl  Cl539  1  0.89205537  0.68917378  0.25001926  1
  Cl  Cl540  1  0.39349642  0.31134468  0.75097884  1
  Cl  Cl541  1  0.38541043  0.64376026  0.74844640  1
  Cl  Cl542  1  0.38821570  0.97700946  0.75154112  1
  Cl  Cl543  1  0.88540595  0.31184275  0.75422181  1
  Cl  Cl544  1  0.88971636  0.64274457  0.75003205  1
  Cl  Cl545  1  0.88579588  0.97743323  0.75493385  1
  Cl  Cl546  1  0.11263754  0.02182836  0.24987985  1
  Cl  Cl547  1  0.11358987  0.35536232  0.24792659  1
  Cl  Cl548  1  0.11407775  0.68812570  0.25008179  1
  Cl  Cl549  1  0.61450993  0.02156474  0.25202946  1
  Cl  Cl550  1  0.61197447  0.35475644  0.24845298  1
  Cl  Cl551  1  0.61399872  0.68801896  0.24848559  1
