# generated using pymatgen
data_H8PbC4(N3Cl2)2
_symmetry_space_group_name_H-M   'P 1'
_cell_length_a   16.62142277
_cell_length_b   22.50218594
_cell_length_c   21.58779728
_cell_angle_alpha   90.00049056
_cell_angle_beta   90.00108686
_cell_angle_gamma   90.00056984
_symmetry_Int_Tables_number   1
_chemical_formula_structural   H8PbC4(N3Cl2)2
_chemical_formula_sum   'H192 Pb24 C96 N144 Cl96'
_cell_volume   8074.23222632
_cell_formula_units_Z   24
loop_
 _symmetry_equiv_pos_site_id
 _symmetry_equiv_pos_as_xyz
  1  'x, y, z'
loop_
 _atom_site_type_symbol
 _atom_site_label
 _atom_site_symmetry_multiplicity
 _atom_site_fract_x
 _atom_site_fract_y
 _atom_site_fract_z
 _atom_site_occupancy
  H  H0  1  0.00436543  0.03297198  0.67969162  1
  H  H1  1  -0.00281591  0.36463170  0.68007177  1
  H  H2  1  -0.00315057  0.70061050  0.67997045  1
  H  H3  1  0.50497531  0.03215510  0.68025344  1
  H  H4  1  0.50345690  0.36414930  0.68075316  1
  H  H5  1  0.49923319  0.69844371  0.68208470  1
  H  H6  1  0.00806797  0.30178844  0.18152515  1
  H  H7  1  0.00563962  0.63433518  0.18184563  1
  H  H8  1  -0.00371728  0.96829057  0.18052978  1
  H  H9  1  0.49147152  0.30093835  0.17807265  1
  H  H10  1  0.49370798  0.63728852  0.18143333  1
  H  H11  1  0.50164614  0.96800620  0.18104196  1
  H  H12  1  -0.00806506  0.03310558  0.81764740  1
  H  H13  1  0.00506422  0.36515446  0.82000778  1
  H  H14  1  0.00529901  0.69986300  0.82036438  1
  H  H15  1  0.50495546  0.03181007  0.82201935  1
  H  H16  1  0.49745261  0.36555210  0.81726082  1
  H  H17  1  0.49137426  0.70017196  0.82162516  1
  H  H18  1  0.00787927  0.30064348  0.32158380  1
  H  H19  1  0.01241095  0.63467316  0.32003374  1
  H  H20  1  -0.01097040  0.96848545  0.32214240  1
  H  H21  1  0.49842822  0.30057760  0.31990775  1
  H  H22  1  0.49046413  0.63416106  0.32047036  1
  H  H23  1  0.51203152  0.96952064  0.32066951  1
  H  H24  1  0.24930024  0.19911495  0.68049484  1
  H  H25  1  0.25224565  0.52913007  0.68127417  1
  H  H26  1  0.25074700  0.86545686  0.67842028  1
  H  H27  1  0.74648725  0.19707156  0.68011996  1
  H  H28  1  0.74847506  0.53174621  0.67765450  1
  H  H29  1  0.74816207  0.86470882  0.68268787  1
  H  H30  1  0.24746754  0.13420824  0.18068869  1
  H  H31  1  0.24928780  0.46749895  0.18250957  1
  H  H32  1  0.24714315  0.80212155  0.17870797  1
  H  H33  1  0.75826851  0.13366169  0.17855983  1
  H  H34  1  0.74882026  0.46675723  0.18052429  1
  H  H35  1  0.75010641  0.80289717  0.17709272  1
  H  H36  1  0.25563564  0.19882837  0.82050450  1
  H  H37  1  0.25507673  0.53275885  0.81979114  1
  H  H38  1  0.24916179  0.86388885  0.82072228  1
  H  H39  1  0.75083057  0.20106951  0.82163037  1
  H  H40  1  0.74100063  0.53195896  0.82006759  1
  H  H41  1  0.74446324  0.86416167  0.81972283  1
  H  H42  1  0.24805367  0.13580141  0.31782942  1
  H  H43  1  0.26130891  0.46472347  0.32176533  1
  H  H44  1  0.25774619  0.80200593  0.32197533  1
  H  H45  1  0.75246425  0.13453828  0.32368004  1
  H  H46  1  0.74467712  0.46872503  0.32145663  1
  H  H47  1  0.74299969  0.80066233  0.31775944  1
  H  H48  1  0.11859252  0.05772103  0.59969093  1
  H  H49  1  0.12433810  0.38488287  0.61315385  1
  H  H50  1  0.13143579  0.71905566  0.61976352  1
  H  H51  1  0.62293645  0.05681831  0.60510547  1
  H  H52  1  0.61996429  0.38878766  0.60376726  1
  H  H53  1  0.63149127  0.71819649  0.61604801  1
  H  H54  1  0.38601075  0.27359050  0.09326505  1
  H  H55  1  0.37286118  0.61307484  0.10911168  1
  H  H56  1  0.37486873  0.94543172  0.11200335  1
  H  H57  1  0.88021740  0.27968019  0.11229764  1
  H  H58  1  0.87173526  0.61520435  0.12229051  1
  H  H59  1  0.87445447  0.94511131  0.10637328  1
  H  H60  1  0.37783322  0.05366653  0.89024612  1
  H  H61  1  0.37657877  0.38762578  0.89324870  1
  H  H62  1  0.37931985  0.72511758  0.90161074  1
  H  H63  1  0.88299895  0.05618815  0.89861108  1
  H  H64  1  0.87314076  0.38654765  0.88285060  1
  H  H65  1  0.87736011  0.71918478  0.88592288  1
  H  H66  1  0.12211112  0.27861901  0.39841696  1
  H  H67  1  0.11764572  0.60728027  0.40607179  1
  H  H68  1  0.12830516  0.94808085  0.37415270  1
  H  H69  1  0.62446168  0.27874670  0.39000163  1
  H  H70  1  0.62527657  0.61431879  0.38066560  1
  H  H71  1  0.62025061  0.94378817  0.40437699  1
  H  H72  1  0.37450416  0.22046101  0.60800221  1
  H  H73  1  0.37661969  0.55250182  0.61140386  1
  H  H74  1  0.37229691  0.89041620  0.60666279  1
  H  H75  1  0.87600383  0.21832095  0.61376340  1
  H  H76  1  0.87645129  0.55579214  0.61050519  1
  H  H77  1  0.87408371  0.88546674  0.61442247  1
  H  H78  1  0.12738761  0.11207228  0.10860951  1
  H  H79  1  0.12535851  0.44547432  0.10983201  1
  H  H80  1  0.12486654  0.77759812  0.10688088  1
  H  H81  1  0.62195570  0.11741307  0.11925682  1
  H  H82  1  0.62566522  0.44457082  0.10784525  1
  H  H83  1  0.62285443  0.77987644  0.10920963  1
  H  H84  1  0.11960162  0.21826169  0.87884714  1
  H  H85  1  0.12682951  0.55372185  0.88668256  1
  H  H86  1  0.12542274  0.88762124  0.89204610  1
  H  H87  1  0.62148785  0.21832615  0.88950379  1
  H  H88  1  0.63296848  0.55946480  0.90337866  1
  H  H89  1  0.62707095  0.88943636  0.89727196  1
  H  H90  1  0.37930975  0.11591116  0.38056391  1
  H  H91  1  0.37222339  0.44376140  0.40186382  1
  H  H92  1  0.36473392  0.77278268  0.40479511  1
  H  H93  1  0.87606884  0.11323375  0.39321602  1
  H  H94  1  0.87940819  0.44672182  0.38065369  1
  H  H95  1  0.87195674  0.78113247  0.38680328  1
  H  H96  1  0.37510850  0.27982631  0.39191305  1
  H  H97  1  0.37752021  0.60765038  0.40039332  1
  H  H98  1  0.37409239  0.94838462  0.37554894  1
  H  H99  1  0.87436293  0.28102518  0.38142399  1
  H  H100  1  0.87323976  0.61576839  0.37500192  1
  H  H101  1  0.88369563  0.94238704  0.40705726  1
  H  H102  1  0.12995204  0.04929442  0.87407765  1
  H  H103  1  0.12099599  0.38903930  0.89877208  1
  H  H104  1  0.12668426  0.72163249  0.89384855  1
  H  H105  1  0.62680325  0.05544314  0.89414828  1
  H  H106  1  0.62502462  0.38766855  0.88707701  1
  H  H107  1  0.62687781  0.71837175  0.88259007  1
  H  H108  1  0.12903747  0.27831767  0.10748697  1
  H  H109  1  0.11973137  0.61288136  0.10321508  1
  H  H110  1  0.12296068  0.94643570  0.11094574  1
  H  H111  1  0.63078867  0.28275437  0.12548629  1
  H  H112  1  0.62261665  0.61281723  0.11434887  1
  H  H113  1  0.62410543  0.94482715  0.10765383  1
  H  H114  1  0.37447137  0.05306276  0.61382687  1
  H  H115  1  0.37104688  0.38556175  0.61562604  1
  H  H116  1  0.38253473  0.72300654  0.60537368  1
  H  H117  1  0.87068350  0.05239661  0.61607796  1
  H  H118  1  0.87518111  0.38740042  0.60861790  1
  H  H119  1  0.88313637  0.72185441  0.60203144  1
  H  H120  1  0.13001854  0.11413317  0.39328246  1
  H  H121  1  0.12551445  0.44746596  0.37922450  1
  H  H122  1  0.11918040  0.78502478  0.37845820  1
  H  H123  1  0.62706520  0.11397785  0.39112204  1
  H  H124  1  0.63123142  0.44343518  0.40162334  1
  H  H125  1  0.62389339  0.77704602  0.39506613  1
  H  H126  1  0.36690711  0.22345939  0.90263524  1
  H  H127  1  0.37496583  0.55529697  0.89417607  1
  H  H128  1  0.37466469  0.88671677  0.88944504  1
  H  H129  1  0.86974134  0.22519541  0.89656999  1
  H  H130  1  0.87935342  0.55215959  0.87522831  1
  H  H131  1  0.87509467  0.88601063  0.88651819  1
  H  H132  1  0.37615106  0.11445975  0.11435312  1
  H  H133  1  0.37465972  0.44553023  0.11242601  1
  H  H134  1  0.37385282  0.77917225  0.10938467  1
  H  H135  1  0.86819685  0.10585047  0.09789811  1
  H  H136  1  0.87552212  0.44637524  0.11215630  1
  H  H137  1  0.87195528  0.77818733  0.10555409  1
  H  H138  1  0.12552861  0.22156905  0.60715931  1
  H  H139  1  0.12687046  0.55545690  0.61161114  1
  H  H140  1  0.12300554  0.88834960  0.61005925  1
  H  H141  1  0.62712998  0.22011266  0.60379692  1
  H  H142  1  0.62789454  0.55698463  0.60506866  1
  H  H143  1  0.62443001  0.88701867  0.61277669  1
  H  H144  1  0.16251429  0.91476321  0.50351529  1
  H  H145  1  0.32784901  0.57369851  0.49819679  1
  H  H146  1  0.67551181  0.41531462  0.00409419  1
  H  H147  1  0.17348839  0.08214078  -0.00132581  1
  H  H148  1  0.65922971  0.24953236  0.99517424  1
  H  H149  1  0.67103622  0.91381589  0.50081970  1
  H  H150  1  0.44330285  0.74977709  0.49776009  1
  H  H151  1  0.66643811  0.75172781  0.00339136  1
  H  H152  1  0.91434138  0.74861597  0.99884428  1
  H  H153  1  0.64745725  0.08183503  0.01425450  1
  H  H154  1  0.34708355  0.08894886  0.49345269  1
  H  H155  1  0.31349936  0.60073390  0.98847816  1
  H  H156  1  0.05837451  0.59040899  -0.00657279  1
  H  H157  1  0.32668639  0.41708894  0.00300550  1
  H  H158  1  0.92999280  0.91517148  0.00361214  1
  H  H159  1  0.07792585  0.25072448  -0.00035997  1
  H  H160  1  0.94987835  0.08064048  1.00678547  1
  H  H161  1  0.18569919  0.08961506  0.50376767  1
  H  H162  1  0.94225712  0.75001785  0.49375025  1
  H  H163  1  0.03906482  0.58578134  0.50578569  1
  H  H164  1  0.42679217  0.58475752  -0.00173845  1
  H  H165  1  0.05043878  0.08899325  0.49919821  1
  H  H166  1  0.83066615  0.91154780  0.50150596  1
  H  H167  1  0.79662258  0.09255655  -0.00474818  1
  H  H168  1  0.13906016  0.75094491  0.48680117  1
  H  H169  1  0.54657180  0.91884100  0.50516254  1
  H  H170  1  0.69896095  0.41570429  0.50356848  1
  H  H171  1  0.32542491  0.91876311  0.49749525  1
  H  H172  1  0.92036810  0.41312775  0.49805319  1
  H  H173  1  0.29698312  0.24963956  1.00426823  1
  H  H174  1  0.46097881  0.24935080  -0.00657848  1
  H  H175  1  0.44563113  0.58233259  0.50338147  1
  H  H176  1  0.41988278  0.08217059  0.99550225  1
  H  H177  1  0.41921354  0.91589094  0.00290539  1
  H  H178  1  0.81259138  0.24527324  1.00152678  1
  H  H179  1  0.17590172  0.55973678  0.99528380  1
  H  H180  1  0.83642787  0.41788753  0.00136136  1
  H  H181  1  0.17544278  0.91649659  0.99645147  1
  H  H182  1  0.08875339  0.41279076  0.50131888  1
  H  H183  1  0.28880246  0.75800586  0.50603872  1
  H  H184  1  0.57693315  0.59472693  0.00537376  1
  H  H185  1  0.55818010  0.41472219  0.49588228  1
  H  H186  1  0.17667654  0.56940419  0.50289917  1
  H  H187  1  0.83842187  0.24672439  0.50330338  1
  H  H188  1  0.70763005  0.58324499  1.00493352  1
  H  H189  1  0.95917200  0.91805848  0.50713277  1
  H  H190  1  0.89711038  0.58769472  0.00844096  1
  H  H191  1  0.83337445  0.58518930  0.50469895  1
  Pb  Pb192  1  0.25022804  0.04562806  0.74667821  1
  Pb  Pb193  1  0.24793609  0.37917895  0.75578402  1
  Pb  Pb194  1  0.25287075  0.71743415  0.74811778  1
  Pb  Pb195  1  0.74813011  0.05023842  0.75685536  1
  Pb  Pb196  1  0.74922389  0.38037577  0.74601393  1
  Pb  Pb197  1  0.75152516  0.71114219  0.75224371  1
  Pb  Pb198  1  0.24774905  0.28659187  0.24330444  1
  Pb  Pb199  1  0.25089193  0.61803960  0.25012819  1
  Pb  Pb200  1  0.25132417  0.95208037  0.24630701  1
  Pb  Pb201  1  0.75395681  0.28475563  0.24700913  1
  Pb  Pb202  1  0.74457019  0.61867080  0.24714027  1
  Pb  Pb203  1  0.74959457  0.95444205  0.25697840  1
  Pb  Pb204  1  -0.00109761  0.21256644  0.75096374  1
  Pb  Pb205  1  0.00289338  0.54682494  0.74605861  1
  Pb  Pb206  1  -0.00454131  0.88128787  0.74966909  1
  Pb  Pb207  1  0.49486941  0.21476575  0.75263052  1
  Pb  Pb208  1  0.49890526  0.54745158  0.75150820  1
  Pb  Pb209  1  0.50456259  0.88150364  0.74836238  1
  Pb  Pb210  1  0.00367418  0.11827415  0.25102040  1
  Pb  Pb211  1  -0.00098069  0.45417461  0.24784969  1
  Pb  Pb212  1  -0.00375348  0.78569651  0.24718327  1
  Pb  Pb213  1  0.50037108  0.12117649  0.24745365  1
  Pb  Pb214  1  0.50043392  0.44846639  0.25401101  1
  Pb  Pb215  1  0.49948378  0.78788633  0.25415988  1
  C  C216  1  -0.00187112  0.04793600  0.63213106  1
  C  C217  1  -0.00112702  0.37922203  0.63211506  1
  C  C218  1  0.00354077  0.71402592  0.63204848  1
  C  C219  1  0.50036234  0.04714757  0.63286139  1
  C  C220  1  0.49796657  0.37925059  0.63323779  1
  C  C221  1  0.50462943  0.71318494  0.63443340  1
  C  C222  1  0.00559231  0.28678676  0.13383706  1
  C  C223  1  -0.00134250  0.62028075  0.13397135  1
  C  C224  1  -0.00243955  0.95312962  0.13287769  1
  C  C225  1  0.50275145  0.28679914  0.13078622  1
  C  C226  1  0.49712727  0.62182277  0.13375984  1
  C  C227  1  0.50018170  0.95290193  0.13337305  1
  C  C228  1  0.00155648  0.04598871  0.86538910  1
  C  C229  1  -0.00018342  0.38028366  0.86730849  1
  C  C230  1  0.00254054  0.71406498  0.86823449  1
  C  C231  1  0.50280796  0.04705138  0.86964830  1
  C  C232  1  0.49974353  0.38027610  0.86508192  1
  C  C233  1  0.49956114  0.71453733  0.86897229  1
  C  C234  1  0.00127667  0.28625353  0.36921356  1
  C  C235  1  0.00149218  0.62034496  0.36731522  1
  C  C236  1  0.00013900  0.95402457  0.36934140  1
  C  C237  1  0.49952652  0.28626784  0.36766138  1
  C  C238  1  0.49739092  0.61977753  0.36803233  1
  C  C239  1  0.50245936  0.95471474  0.36793651  1
  C  C240  1  0.24980194  0.21356940  0.63252552  1
  C  C241  1  0.25126211  0.54490274  0.63365406  1
  C  C242  1  0.24810303  0.88075824  0.63063763  1
  C  C243  1  0.74976648  0.21204732  0.63250190  1
  C  C244  1  0.75142056  0.54736584  0.63027072  1
  C  C245  1  0.74894186  0.87887069  0.63460009  1
  C  C246  1  0.24996903  0.11976701  0.13284747  1
  C  C247  1  0.24966102  0.45274589  0.13472520  1
  C  C248  1  0.24883084  0.78650187  0.13138264  1
  C  C249  1  0.74924506  0.11907302  0.13096409  1
  C  C250  1  0.74962274  0.45178822  0.13259493  1
  C  C251  1  0.74782977  0.78713359  0.12970005  1
  C  C252  1  0.24764971  0.21312831  0.86809217  1
  C  C253  1  0.25227383  0.54728565  0.86779599  1
  C  C254  1  0.24931709  0.87927323  0.86824648  1
  C  C255  1  0.74712549  0.21502408  0.86979957  1
  C  C256  1  0.75071347  0.54641088  0.86743539  1
  C  C257  1  0.74882606  0.87968383  0.86717283  1
  C  C258  1  0.25268548  0.12131249  0.36567140  1
  C  C259  1  0.25288191  0.45187421  0.36964472  1
  C  C260  1  0.24697433  0.78639317  0.36901825  1
  C  C261  1  0.75177994  0.11997113  0.37176732  1
  C  C262  1  0.75137261  0.45339763  0.36878140  1
  C  C263  1  0.74616495  0.78634148  0.36572895  1
  C  C264  1  0.30289822  0.09791989  0.45741237  1
  C  C265  1  0.79349204  0.23716506  0.54089097  1
  C  C266  1  0.79373671  0.42729772  0.03957387  1
  C  C267  1  0.21373062  0.75645007  0.03904647  1
  C  C268  1  0.46056852  0.92646965  0.04106635  1
  C  C269  1  0.28543278  0.90793784  0.53671900  1
  C  C270  1  0.05890028  0.73670821  0.54200473  1
  C  C271  1  0.02898477  0.25942665  0.46425621  1
  C  C272  1  0.70920393  0.90341064  0.54024284  1
  C  C273  1  0.80805028  0.42450200  0.45716717  1
  C  C274  1  0.46038878  0.59411552  0.04021220  1
  C  C275  1  0.03889202  0.26082582  0.03964227  1
  C  C276  1  0.71385834  0.57777344  0.53652936  1
  C  C277  1  0.29310543  0.90759235  0.96103885  1
  C  C278  1  0.96131832  0.40392594  0.53689983  1
  C  C279  1  0.94824254  0.26034944  0.45841325  1
  C  C280  1  0.53093711  0.07647347  0.53905069  1
  C  C281  1  0.97773051  0.73900395  0.53458117  1
  C  C282  1  0.79136242  0.90247603  0.54064746  1
  C  C283  1  0.52495927  0.40514466  0.53817073  1
  C  C284  1  0.78676347  0.75804113  0.03575432  1
  C  C285  1  0.54155698  0.07297378  0.96466480  1
  C  C286  1  0.29193089  0.56953213  0.54015478  1
  C  C287  1  0.03934674  0.73998534  0.96277065  1
  C  C288  1  0.27688958  0.42753202  0.46596605  1
  C  C289  1  0.21505565  0.09327845  0.03729902  1
  C  C290  1  0.98111348  0.07063734  0.96367617  1
  C  C291  1  0.44051730  0.92723462  0.45476948  1
  C  C292  1  0.71024343  0.09344830  0.46315592  1
  C  C293  1  0.29676640  0.09419555  0.04078616  1
  C  C294  1  0.22090920  0.09778793  0.46216185  1
  C  C295  1  0.79063711  0.09320844  0.46374463  1
  C  C296  1  0.94392885  0.59704264  0.04343674  1
  C  C297  1  0.06188088  0.06833942  0.95340791  1
  C  C298  1  0.81256430  0.57307725  0.95413229  1
  C  C299  1  0.47720303  0.73937479  0.53956342  1
  C  C300  1  0.04365624  0.40318015  0.53858043  1
  C  C301  1  0.28742970  0.42739210  0.04183359  1
  C  C302  1  0.06451669  0.92725559  0.45522436  1
  C  C303  1  0.56683111  0.26194543  0.04456286  1
  C  C304  1  0.47636565  0.74298732  0.96436313  1
  C  C305  1  0.18895168  0.23940814  0.95654604  1
  C  C306  1  0.02556466  0.59714520  0.03651333  1
  C  C307  1  0.95764512  0.73938924  0.96155021  1
  C  C308  1  0.55406071  0.59336761  0.45728397  1
  C  C309  1  0.46372934  0.25965497  0.46070153  1
  C  C310  1  0.19627406  0.42857135  0.45834005  1
  C  C311  1  0.95173232  0.40740350  0.95745975  1
  N  N312  1  0.70744656  0.75923330  0.03823111  1
  N  N313  1  0.96516793  0.92969197  0.03956230  1
  N  N314  1  0.54109766  0.25910796  0.46137541  1
  N  N315  1  0.21215643  0.57208019  0.54155065  1
  N  N316  1  0.53984443  0.92626368  0.03889540  1
  N  N317  1  0.21374799  0.90767441  0.96057650  1
  N  N318  1  0.77913344  0.24664555  0.96144145  1
  N  N319  1  0.02906994  0.40873749  0.96371939  1
  N  N320  1  0.95950902  0.26059545  0.04088244  1
  N  N321  1  0.20807836  0.42776298  0.04041403  1
  N  N322  1  0.71860021  0.90824772  0.96204493  1
  N  N323  1  0.51888982  0.92568315  0.46323284  1
  N  N324  1  0.29110127  0.75720916  0.03835636  1
  N  N325  1  0.77076748  0.08572716  0.03805063  1
  N  N326  1  0.71382180  0.42744286  0.03904621  1
  N  N327  1  0.44594801  0.40507987  0.54231584  1
  N  N328  1  0.93780710  0.59722495  0.45355354  1
  N  N329  1  0.28747108  0.56763913  0.96257851  1
  N  N330  1  0.26489975  0.75286344  0.46229986  1
  N  N331  1  0.71403015  0.76031127  0.46108814  1
  N  N332  1  0.20554104  0.90638284  0.53873307  1
  N  N333  1  0.79285677  0.57588749  0.53929632  1
  N  N334  1  0.98636794  0.92536854  0.46510922  1
  N  N335  1  0.55366636  0.74048772  0.95954747  1
  N  N336  1  0.54238004  0.40598122  0.95808435  1
  N  N337  1  0.71434880  0.23812695  0.53688074  1
  N  N338  1  0.20667668  0.57552922  0.95753566  1
  N  N339  1  0.45357770  0.07494291  0.54058880  1
  N  N340  1  0.79036933  0.76160726  0.45853855  1
  N  N341  1  0.55623303  0.73831830  0.54312168  1
  N  N342  1  0.46535007  0.40598234  0.96009000  1
  N  N343  1  0.02162781  0.07381178  0.53802115  1
  N  N344  1  0.21249944  0.23985630  0.53852775  1
  N  N345  1  0.54004974  0.59308846  0.04330002  1
  N  N346  1  0.69294371  0.09901829  0.04293345  1
  N  N347  1  0.04358053  0.92824782  0.04051734  1
  N  N348  1  0.18767028  0.76568754  0.45564537  1
  N  N349  1  0.72926165  0.42378560  0.46305552  1
  N  N350  1  0.94407913  0.07175744  0.54233507  1
  N  N351  1  0.01488111  0.59318541  0.46239822  1
  N  N352  1  0.28853919  0.23973699  0.53880619  1
  N  N353  1  0.47548248  0.59207129  0.46314918  1
  N  N354  1  0.48882553  0.25890489  0.03489941  1
  N  N355  1  0.79512654  0.90686103  0.95861376  1
  N  N356  1  0.70168817  0.23314525  0.96193722  1
  N  N357  1  0.73455432  0.57478123  0.96294539  1
  N  N358  1  0.26762875  0.24069499  0.96330086  1
  N  N359  1  0.46233383  0.07292049  0.96177956  1
  N  N360  1  0.05653667  0.06040120  0.59257468  1
  N  N361  1  0.06501882  0.38794985  0.59804012  1
  N  N362  1  0.07390219  0.72210787  0.60142322  1
  N  N363  1  0.56210291  0.05939640  0.59423388  1
  N  N364  1  0.55859489  0.38998044  0.59374747  1
  N  N365  1  0.57154115  0.72210770  0.60228317  1
  N  N366  1  0.44842417  0.27600973  0.08765092  1
  N  N367  1  0.43330544  0.61021050  0.09667714  1
  N  N368  1  0.43469878  0.94287812  0.09874578  1
  N  N369  1  0.94076302  0.27690604  0.09983366  1
  N  N370  1  0.92902473  0.61141256  0.10424779  1
  N  N371  1  0.93574184  0.94257900  0.09607030  1
  N  N372  1  0.43813658  0.05711636  0.90327729  1
  N  N373  1  0.43801037  0.39024242  0.90254643  1
  N  N374  1  0.44079618  0.72713720  0.91031403  1
  N  N375  1  0.94452073  0.05652221  0.90747745  1
  N  N376  1  0.93144319  0.39052688  0.89899411  1
  N  N377  1  0.93614134  0.72332023  0.90147112  1
  N  N378  1  0.06129528  0.27529528  0.40979804  1
  N  N379  1  0.05532941  0.60966708  0.41095703  1
  N  N380  1  0.07288478  0.94397470  0.39556283  1
  N  N381  1  0.56368482  0.27587654  0.40210443  1
  N  N382  1  0.56768065  0.61024901  0.39848259  1
  N  N383  1  0.55810246  0.94478744  0.41037951  1
  N  N384  1  0.31347347  0.22335889  0.59702614  1
  N  N385  1  0.31647916  0.55506770  0.59778277  1
  N  N386  1  0.31186683  0.89213411  0.59390294  1
  N  N387  1  0.81659649  0.22183276  0.59940022  1
  N  N388  1  0.81674634  0.55639549  0.59686171  1
  N  N389  1  0.81466801  0.88725104  0.59962829  1
  N  N390  1  0.18724236  0.10945048  0.09591603  1
  N  N391  1  0.18635816  0.44321151  0.09874066  1
  N  N392  1  0.18495609  0.77412899  0.09497905  1
  N  N393  1  0.67963557  0.10956239  0.10307285  1
  N  N394  1  0.68681380  0.44116004  0.09676983  1
  N  N395  1  0.68300238  0.77778432  0.09594394  1
  N  N396  1  0.17658678  0.22280356  0.89743985  1
  N  N397  1  0.18650968  0.55207929  0.90192393  1
  N  N398  1  0.18612511  0.88952922  0.90361778  1
  N  N399  1  0.68091330  0.22348551  0.90269048  1
  N  N400  1  0.69500511  0.55604950  0.90992552  1
  N  N401  1  0.68864680  0.89147312  0.90554996  1
  N  N402  1  0.32095701  0.11210905  0.39733098  1
  N  N403  1  0.31127770  0.44164951  0.41188608  1
  N  N404  1  0.30241020  0.77526366  0.41163378  1
  N  N405  1  0.81683434  0.10926041  0.40795737  1
  N  N406  1  0.82169665  0.44215985  0.39855287  1
  N  N407  1  0.81158142  0.77722999  0.39936511  1
  N  N408  1  0.43521765  0.27617374  0.40438065  1
  N  N409  1  0.43908711  0.60955831  0.40840832  1
  N  N410  1  0.43050199  0.94414646  0.39546237  1
  N  N411  1  0.93177440  0.27656192  0.39987429  1
  N  N412  1  0.93020009  0.61230595  0.39393257  1
  N  N413  1  0.94576775  0.94423857  0.41274728  1
  N  N414  1  0.07345297  0.05363395  0.89401490  1
  N  N415  1  0.05923655  0.39139633  0.90624567  1
  N  N416  1  0.06622224  0.72468221  0.90642014  1
  N  N417  1  0.56679370  0.05748659  0.90724113  1
  N  N418  1  0.56452818  0.39031630  0.89925765  1
  N  N419  1  0.56806864  0.72288748  0.89849084  1
  N  N420  1  0.06852539  0.27639578  0.09648950  1
  N  N421  1  0.05848390  0.61139897  0.09331095  1
  N  N422  1  0.06274660  0.94433324  0.09826042  1
  N  N423  1  0.57559273  0.27825233  0.10422949  1
  N  N424  1  0.56246764  0.61356564  0.10018225  1
  N  N425  1  0.56292174  0.94262363  0.09694182  1
  N  N426  1  0.43419469  0.05648372  0.60046129  1
  N  N427  1  0.43096797  0.38882841  0.60148329  1
  N  N428  1  0.44385968  0.72425028  0.59522494  1
  N  N429  1  0.92984705  0.05547069  0.60088225  1
  N  N430  1  0.93515623  0.38915713  0.59563597  1
  N  N431  1  0.94435930  0.72461083  0.59200983  1
  N  N432  1  0.19101733  0.11210029  0.40448651  1
  N  N433  1  0.18223833  0.44340035  0.39901114  1
  N  N434  1  0.17639765  0.77689603  0.39559350  1
  N  N435  1  0.68599762  0.10963337  0.40705100  1
  N  N436  1  0.69337398  0.44312625  0.40917840  1
  N  N437  1  0.68514562  0.77577574  0.40373674  1
  N  N438  1  0.30467921  0.22313942  0.90933632  1
  N  N439  1  0.31416022  0.56133731  0.90343546  1
  N  N440  1  0.31509538  0.89041848  0.90379591  1
  N  N441  1  0.80842160  0.22529535  0.90755054  1
  N  N442  1  0.82296973  0.55620498  0.89490200  1
  N  N443  1  0.81503688  0.88938126  0.89971500  1
  N  N444  1  0.31716983  0.10999062  0.09872495  1
  N  N445  1  0.31461676  0.44256567  0.09939432  1
  N  N446  1  0.31325252  0.77625232  0.09721368  1
  N  N447  1  0.80621832  0.10901077  0.08932666  1
  N  N448  1  0.81583406  0.44279673  0.09775350  1
  N  N449  1  0.81178869  0.77478759  0.09255580  1
  N  N450  1  0.18675614  0.22375492  0.59651084  1
  N  N451  1  0.18730805  0.55323046  0.59843103  1
  N  N452  1  0.18320157  0.88889790  0.59646289  1
  N  N453  1  0.68870581  0.22220892  0.59445533  1
  N  N454  1  0.68800153  0.55988150  0.59265601  1
  N  N455  1  0.68425028  0.88880742  0.59893217  1
  Cl  Cl456  1  0.24184871  0.05331090  0.61138509  1
  Cl  Cl457  1  0.24771143  0.38697379  0.62516238  1
  Cl  Cl458  1  0.25978514  0.72600236  0.60718563  1
  Cl  Cl459  1  0.74678067  0.05164862  0.62594228  1
  Cl  Cl460  1  0.74352096  0.39291014  0.60960156  1
  Cl  Cl461  1  0.75713252  0.71462126  0.62184638  1
  Cl  Cl462  1  0.26259288  0.27328102  0.10274916  1
  Cl  Cl463  1  0.24693489  0.60949969  0.10898217  1
  Cl  Cl464  1  0.24653973  0.94364914  0.11208554  1
  Cl  Cl465  1  0.75696703  0.27621165  0.10703178  1
  Cl  Cl466  1  0.74280366  0.61008675  0.10653630  1
  Cl  Cl467  1  0.75199627  0.94890398  0.12357628  1
  Cl  Cl468  1  0.25617534  0.05003865  0.87959710  1
  Cl  Cl469  1  0.25178597  0.38610828  0.89053516  1
  Cl  Cl470  1  0.25336298  0.71674008  0.87960200  1
  Cl  Cl471  1  0.75466551  0.06309095  0.89547484  1
  Cl  Cl472  1  0.74748577  0.38750968  0.88610207  1
  Cl  Cl473  1  0.75092916  0.71747498  0.88785052  1
  Cl  Cl474  1  0.24914225  0.28319482  0.37347870  1
  Cl  Cl475  1  0.24467283  0.60614154  0.39608506  1
  Cl  Cl476  1  0.25120306  0.94253016  0.38102442  1
  Cl  Cl477  1  0.74773387  0.28381945  0.37770579  1
  Cl  Cl478  1  0.74966982  0.60971462  0.38012560  1
  Cl  Cl479  1  0.75108729  0.94368534  0.39359988  1
  Cl  Cl480  1  0.00246094  0.21829977  0.61852510  1
  Cl  Cl481  1  0.00449368  0.56086719  0.60639187  1
  Cl  Cl482  1  -0.00111360  0.89268755  0.61031123  1
  Cl  Cl483  1  0.49976584  0.21740713  0.62136024  1
  Cl  Cl484  1  0.49974074  0.55626400  0.61389383  1
  Cl  Cl485  1  0.49908039  0.89188808  0.61007786  1
  Cl  Cl486  1  -0.00982153  0.10865188  0.11651624  1
  Cl  Cl487  1  0.00003628  0.44816979  0.12000123  1
  Cl  Cl488  1  -0.00308877  0.78150853  0.11515160  1
  Cl  Cl489  1  0.49899929  0.11641163  0.11100028  1
  Cl  Cl490  1  0.50236359  0.45004409  0.12163713  1
  Cl  Cl491  1  0.49891293  0.77856442  0.12151564  1
  Cl  Cl492  1  -0.00778581  0.22021277  0.88415941  1
  Cl  Cl493  1  0.00657695  0.55604050  0.87875220  1
  Cl  Cl494  1  -0.00013239  0.88741583  0.88498085  1
  Cl  Cl495  1  0.49142613  0.22212910  0.89735337  1
  Cl  Cl496  1  0.50524073  0.56095422  0.89576196  1
  Cl  Cl497  1  0.49990333  0.88658182  0.88122657  1
  Cl  Cl498  1  0.00691655  0.11153000  0.38848667  1
  Cl  Cl499  1  0.00017983  0.44833244  0.38136449  1
  Cl  Cl500  1  -0.00486015  0.78505270  0.38264303  1
  Cl  Cl501  1  0.50355674  0.11643954  0.37492929  1
  Cl  Cl502  1  0.50762327  0.44700886  0.39024220  1
  Cl  Cl503  1  0.48876612  0.77741468  0.39076118  1
  Cl  Cl504  1  0.36175989  0.14543841  0.75060393  1
  Cl  Cl505  1  0.36261616  0.47867487  0.75317124  1
  Cl  Cl506  1  0.35844311  0.81093393  0.74771415  1
  Cl  Cl507  1  0.86132466  0.14366501  0.75117800  1
  Cl  Cl508  1  0.86365836  0.47876930  0.75045311  1
  Cl  Cl509  1  0.86248502  0.81230158  0.75152854  1
  Cl  Cl510  1  0.13958774  0.18827646  0.24673361  1
  Cl  Cl511  1  0.13583472  0.52169086  0.25120719  1
  Cl  Cl512  1  0.13693751  0.85573139  0.25391721  1
  Cl  Cl513  1  0.63693706  0.18874181  0.24295719  1
  Cl  Cl514  1  0.64218210  0.52354339  0.24648330  1
  Cl  Cl515  1  0.63686086  0.85450104  0.24810724  1
  Cl  Cl516  1  0.13659840  0.14450771  0.75465549  1
  Cl  Cl517  1  0.13936202  0.47951247  0.75073490  1
  Cl  Cl518  1  0.14074753  0.80854070  0.74592224  1
  Cl  Cl519  1  0.64154029  0.14336532  0.75730327  1
  Cl  Cl520  1  0.63980900  0.47980987  0.75168925  1
  Cl  Cl521  1  0.63788393  0.81012876  0.74851195  1
  Cl  Cl522  1  0.36318955  0.18843040  0.24620274  1
  Cl  Cl523  1  0.35852206  0.52315676  0.25121992  1
  Cl  Cl524  1  0.35869549  0.85463607  0.25140044  1
  Cl  Cl525  1  0.85678956  0.18889712  0.24919317  1
  Cl  Cl526  1  0.86294524  0.52196605  0.25083316  1
  Cl  Cl527  1  0.86157689  0.85422178  0.24909524  1
  Cl  Cl528  1  0.11079150  0.31210012  0.75254500  1
  Cl  Cl529  1  0.11239625  0.64365800  0.74516743  1
  Cl  Cl530  1  0.11483458  0.97670581  0.75216449  1
  Cl  Cl531  1  0.61516964  0.31030385  0.75381727  1
  Cl  Cl532  1  0.61364070  0.64499847  0.75259340  1
  Cl  Cl533  1  0.60852053  0.97749709  0.75114875  1
  Cl  Cl534  1  0.38645854  0.02185347  0.25083523  1
  Cl  Cl535  1  0.39232758  0.35638851  0.24693070  1
  Cl  Cl536  1  0.38594919  0.68733258  0.25185805  1
  Cl  Cl537  1  0.88871369  0.02041610  0.25156351  1
  Cl  Cl538  1  0.88691521  0.35521682  0.24905565  1
  Cl  Cl539  1  0.89147579  0.68839975  0.25093888  1
  Cl  Cl540  1  0.39160245  0.31030020  0.75028928  1
  Cl  Cl541  1  0.39125839  0.64302695  0.75041559  1
  Cl  Cl542  1  0.38630364  0.97778762  0.74812664  1
  Cl  Cl543  1  0.88507828  0.31159204  0.75173840  1
  Cl  Cl544  1  0.88879740  0.64394327  0.75304482  1
  Cl  Cl545  1  0.89299964  0.97752977  0.74774284  1
  Cl  Cl546  1  0.11013838  0.02222218  0.25140053  1
  Cl  Cl547  1  0.11133398  0.35477367  0.24912536  1
  Cl  Cl548  1  0.11298055  0.68838450  0.25299729  1
  Cl  Cl549  1  0.60999051  0.02070119  0.24571023  1
  Cl  Cl550  1  0.61266726  0.35702397  0.24510091  1
  Cl  Cl551  1  0.61130251  0.68727162  0.25237131  1
