# generated using pymatgen
data_H8PbC4(N3Cl2)2
_symmetry_space_group_name_H-M   'P 1'
_cell_length_a   16.63163188
_cell_length_b   22.51648328
_cell_length_c   21.59505640
_cell_angle_alpha   90.00010768
_cell_angle_beta   89.99112325
_cell_angle_gamma   89.99810933
_symmetry_Int_Tables_number   1
_chemical_formula_structural   H8PbC4(N3Cl2)2
_chemical_formula_sum   'H192 Pb24 C96 N144 Cl96'
_cell_volume   8087.04319314
_cell_formula_units_Z   24
loop_
 _symmetry_equiv_pos_site_id
 _symmetry_equiv_pos_as_xyz
  1  'x, y, z'
loop_
 _atom_site_type_symbol
 _atom_site_label
 _atom_site_symmetry_multiplicity
 _atom_site_fract_x
 _atom_site_fract_y
 _atom_site_fract_z
 _atom_site_occupancy
  H  H0  1  -0.00232729  0.02952708  0.67706090  1
  H  H1  1  -0.01281940  0.36117646  0.67963530  1
  H  H2  1  0.01102495  0.69778625  0.67860945  1
  H  H3  1  0.48693301  0.02980760  0.67876140  1
  H  H4  1  0.50553887  0.35623235  0.67537786  1
  H  H5  1  0.49386301  0.69541131  0.67905615  1
  H  H6  1  -0.01384999  0.30058354  0.17469268  1
  H  H7  1  -0.00246213  0.63569654  0.17890147  1
  H  H8  1  0.00742417  0.97054193  0.18341099  1
  H  H9  1  0.49975804  0.28941813  0.18605907  1
  H  H10  1  0.51250621  0.63529456  0.17898076  1
  H  H11  1  0.50986453  0.97285533  0.17962502  1
  H  H12  1  0.00067002  0.02756391  0.82535108  1
  H  H13  1  0.01256322  0.36049636  0.82449357  1
  H  H14  1  -0.00063898  0.69528896  0.81758672  1
  H  H15  1  0.50784448  0.03022700  0.82301220  1
  H  H16  1  0.48461036  0.37979435  0.81412371  1
  H  H17  1  0.50800208  0.69703582  0.81970752  1
  H  H18  1  0.00474908  0.30280968  0.32893165  1
  H  H19  1  0.00599073  0.63780087  0.32094176  1
  H  H20  1  -0.01135026  0.97055686  0.32345320  1
  H  H21  1  0.49449606  0.30335627  0.32074643  1
  H  H22  1  0.50548058  0.63880557  0.32211267  1
  H  H23  1  0.50414215  0.97167549  0.32024293  1
  H  H24  1  0.23916108  0.19412771  0.67658977  1
  H  H25  1  0.24588933  0.52590481  0.67816009  1
  H  H26  1  0.26450076  0.86525008  0.68198917  1
  H  H27  1  0.76104838  0.19279647  0.67942949  1
  H  H28  1  0.74419769  0.53014986  0.68264301  1
  H  H29  1  0.74653640  0.85882987  0.67371641  1
  H  H30  1  0.24612933  0.13886674  0.18192387  1
  H  H31  1  0.25864414  0.48266374  0.17588665  1
  H  H32  1  0.24843189  0.80427582  0.17324476  1
  H  H33  1  0.75374606  0.13477127  0.18130773  1
  H  H34  1  0.73641656  0.47153066  0.17463716  1
  H  H35  1  0.74600904  0.80335097  0.18319055  1
  H  H36  1  0.26760057  0.19835237  0.82114572  1
  H  H37  1  0.23424367  0.53657352  0.82584569  1
  H  H38  1  0.24568130  0.86292003  0.81755213  1
  H  H39  1  0.73197532  0.19525453  0.82354418  1
  H  H40  1  0.76105908  0.52767310  0.82188615  1
  H  H41  1  0.74779503  0.86546516  0.81807449  1
  H  H42  1  0.24880259  0.13963429  0.31949864  1
  H  H43  1  0.25801480  0.47002186  0.32074803  1
  H  H44  1  0.24550138  0.80887953  0.32081756  1
  H  H45  1  0.76437254  0.13719811  0.32471020  1
  H  H46  1  0.74566079  0.47110648  0.32267225  1
  H  H47  1  0.74929060  0.80657990  0.32337415  1
  H  H48  1  0.12448087  0.05401029  0.61229134  1
  H  H49  1  0.12110683  0.38235841  0.61708400  1
  H  H50  1  0.11217089  0.72582204  0.59320183  1
  H  H51  1  0.62328686  0.05015337  0.61898973  1
  H  H52  1  0.61454269  0.38836706  0.59331121  1
  H  H53  1  0.61833613  0.72342242  0.60906742  1
  H  H54  1  0.37394011  0.27960684  0.11424194  1
  H  H55  1  0.37537445  0.61635012  0.12287900  1
  H  H56  1  0.37302026  0.95122561  0.12186787  1
  H  H57  1  0.87645514  0.27521072  0.09315839  1
  H  H58  1  0.88399576  0.61144948  0.10146617  1
  H  H59  1  0.87083048  0.94788986  0.12445396  1
  H  H60  1  0.37027450  0.04920695  0.87610830  1
  H  H61  1  0.36970480  0.38982055  0.89604573  1
  H  H62  1  0.36816283  0.71641752  0.87457451  1
  H  H63  1  0.86892671  0.05353664  0.88630150  1
  H  H64  1  0.87265867  0.38176109  0.87528189  1
  H  H65  1  0.87111509  0.71971624  0.88750210  1
  H  H66  1  0.12988644  0.27947722  0.39625462  1
  H  H67  1  0.11539741  0.60802768  0.40269255  1
  H  H68  1  0.11723954  0.94933978  0.38690089  1
  H  H69  1  0.62914374  0.28374807  0.37748472  1
  H  H70  1  0.61724087  0.60923599  0.40243258  1
  H  H71  1  0.61679441  0.94454859  0.39952553  1
  H  H72  1  0.36985742  0.21585439  0.61581747  1
  H  H73  1  0.38152592  0.55090923  0.62256889  1
  H  H74  1  0.37833029  0.89171600  0.60148856  1
  H  H75  1  0.87023124  0.21994645  0.59487408  1
  H  H76  1  0.88171311  0.55183857  0.62429825  1
  H  H77  1  0.88206160  0.88654776  0.61820193  1
  H  H78  1  0.13155174  0.11194426  0.10206929  1
  H  H79  1  0.13231953  0.44970839  0.11140264  1
  H  H80  1  0.13121044  0.77480416  0.09986127  1
  H  H81  1  0.62989630  0.11348122  0.11100707  1
  H  H82  1  0.63186245  0.44219838  0.08869699  1
  H  H83  1  0.63156940  0.77897208  0.10607730  1
  H  H84  1  0.12339786  0.21349093  0.86824197  1
  H  H85  1  0.13059949  0.55890791  0.91066878  1
  H  H86  1  0.13705594  0.88860128  0.89862922  1
  H  H87  1  0.62969682  0.22402584  0.91130087  1
  H  H88  1  0.62444340  0.54969398  0.87911143  1
  H  H89  1  0.63790800  0.89215698  0.89829448  1
  H  H90  1  0.36734326  0.11302030  0.39646815  1
  H  H91  1  0.37685296  0.44357271  0.39671455  1
  H  H92  1  0.37993183  0.78263486  0.37727618  1
  H  H93  1  0.87108093  0.10951835  0.40668896  1
  H  H94  1  0.88147292  0.44663934  0.37853225  1
  H  H95  1  0.87892077  0.78267762  0.38930178  1
  H  H96  1  0.38181613  0.27733982  0.39931222  1
  H  H97  1  0.37123811  0.61446417  0.38160766  1
  H  H98  1  0.36896018  0.94941847  0.38094143  1
  H  H99  1  0.88095949  0.27979310  0.39666371  1
  H  H100  1  0.86879482  0.61591048  0.37629211  1
  H  H101  1  0.86850506  0.94677886  0.39806539  1
  H  H102  1  0.11732230  0.05843564  0.89983535  1
  H  H103  1  0.11661310  0.39282103  0.90863059  1
  H  H104  1  0.11959602  0.71957342  0.89295207  1
  H  H105  1  0.61594646  0.05793908  0.90394723  1
  H  H106  1  0.61736271  0.38801039  0.87946813  1
  H  H107  1  0.61377409  0.72357156  0.90390068  1
  H  H108  1  0.12216071  0.28236763  0.12023417  1
  H  H109  1  0.13198568  0.61682160  0.11915065  1
  H  H110  1  0.11813930  0.94410969  0.10259358  1
  H  H111  1  0.62260938  0.27845032  0.11103306  1
  H  H112  1  0.62091565  0.60764784  0.09467590  1
  H  H113  1  0.61824433  0.94432151  0.09723573  1
  H  H114  1  0.37571244  0.05948530  0.59953502  1
  H  H115  1  0.36899369  0.38291673  0.62051295  1
  H  H116  1  0.37028319  0.72055055  0.60770335  1
  H  H117  1  0.87525517  0.05148843  0.60452148  1
  H  H118  1  0.87418648  0.38800246  0.59843666  1
  H  H119  1  0.86886362  0.71532342  0.63132764  1
  H  H120  1  0.11862088  0.11640425  0.38703391  1
  H  H121  1  0.12854388  0.44503321  0.38487379  1
  H  H122  1  0.13273872  0.77970206  0.40001538  1
  H  H123  1  0.62615451  0.12024272  0.37724412  1
  H  H124  1  0.63480112  0.44123177  0.40281962  1
  H  H125  1  0.63037121  0.77593984  0.39548127  1
  H  H126  1  0.36650293  0.22171724  0.90898522  1
  H  H127  1  0.37471297  0.54984292  0.87763512  1
  H  H128  1  0.38323681  0.88455643  0.87095274  1
  H  H129  1  0.87350286  0.21828989  0.87481665  1
  H  H130  1  0.87030789  0.55559022  0.90473161  1
  H  H131  1  0.88487796  0.88328326  0.87394451  1
  H  H132  1  0.37966811  0.11730320  0.11718241  1
  H  H133  1  0.38036758  0.45001996  0.10663219  1
  H  H134  1  0.37946758  0.77974105  0.11025166  1
  H  H135  1  0.87919814  0.11492131  0.11243466  1
  H  H136  1  0.87538194  0.44773623  0.12203351  1
  H  H137  1  0.87984448  0.78234436  0.12367798  1
  H  H138  1  0.12141613  0.22003235  0.60072464  1
  H  H139  1  0.13539206  0.55695642  0.59854334  1
  H  H140  1  0.13120055  0.88679481  0.61834331  1
  H  H141  1  0.62357441  0.21556381  0.62133893  1
  H  H142  1  0.63498290  0.55759475  0.60126294  1
  H  H143  1  0.63512164  0.89214021  0.59568696  1
  H  H144  1  0.20595947  0.58413819  0.49709267  1
  H  H145  1  0.56600833  0.74837452  0.50319941  1
  H  H146  1  0.70500889  0.41382884  0.50406576  1
  H  H147  1  0.33707219  0.24875697  0.50243963  1
  H  H148  1  0.10314236  0.24899375  0.00477918  1
  H  H149  1  0.36362451  0.91280578  -0.01482757  1
  H  H150  1  0.53994796  0.75027157  1.00710442  1
  H  H151  1  0.87786977  0.74533333  0.51727485  1
  H  H152  1  0.20469301  0.91664901  1.00478865  1
  H  H153  1  0.43112414  0.23948627  0.01465518  1
  H  H154  1  0.04542117  0.58482586  0.50384940  1
  H  H155  1  0.04947440  0.91202512  -0.00103724  1
  H  H156  1  0.19942779  0.75630522  0.50258978  1
  H  H157  1  0.83934715  0.08848522  0.00100542  1
  H  H158  1  0.70502948  0.92248320  0.49472185  1
  H  H159  1  0.60415248  0.25021328  0.49075154  1
  H  H160  1  0.54547354  0.58325298  0.50404001  1
  H  H161  1  0.89231822  0.58263305  0.48829237  1
  H  H162  1  0.55002043  0.91548493  0.50474103  1
  H  H163  1  0.03650079  0.75519532  0.49099825  1
  H  H164  1  0.67495679  0.08259677  0.00140114  1
  H  H165  1  0.70397017  0.91702323  1.00560664  1
  H  H166  1  0.71253774  0.41680310  -0.00936008  1
  H  H167  1  0.08074945  0.91922817  0.50043062  1
  H  H168  1  0.31380830  0.44558274  0.00103339  1
  H  H169  1  0.03881982  0.41780500  1.00767569  1
  H  H170  1  0.56138226  0.23952965  0.01252937  1
  H  H171  1  0.71211677  0.25265835  1.00711408  1
  H  H172  1  0.28684542  0.24883729  1.01203155  1
  H  H173  1  0.56865708  0.42259681  0.98341723  1
  H  H174  1  0.64318885  0.08812566  0.49186221  1
  H  H175  1  0.94551578  0.58510166  -0.00804152  1
  H  H176  1  0.53887152  0.41447585  0.49359816  1
  H  H177  1  0.86364131  0.91072811  -0.01213580  1
  H  H178  1  0.54395200  0.92227962  -0.00463337  1
  H  H179  1  0.08503707  0.08553256  0.50025455  1
  H  H180  1  0.70478453  0.58683808  0.49707242  1
  H  H181  1  0.43995830  0.41706432  0.99592609  1
  H  H182  1  0.69090246  0.75065612  -0.00216926  1
  H  H183  1  0.35316328  0.74924029  0.48880518  1
  H  H184  1  0.79557745  0.57990928  1.00528528  1
  H  H185  1  0.85193496  0.75196334  0.01140880  1
  H  H186  1  0.18545398  0.43517663  0.00460138  1
  H  H187  1  0.34168063  0.74565844  0.00448517  1
  H  H188  1  0.16893542  0.41046787  0.49395291  1
  H  H189  1  0.39617389  0.58393739  0.01008873  1
  H  H190  1  0.38947413  0.08088148  -0.00946766  1
  H  H191  1  0.05517480  0.08944297  1.00248784  1
  Pb  Pb192  1  0.24789825  0.04893843  0.74976404  1
  Pb  Pb193  1  0.24497737  0.38262714  0.76120702  1
  Pb  Pb194  1  0.25267188  0.71555728  0.74155608  1
  Pb  Pb195  1  0.75286893  0.04826329  0.75462406  1
  Pb  Pb196  1  0.74857946  0.38015530  0.74277314  1
  Pb  Pb197  1  0.74514350  0.71543020  0.75536726  1
  Pb  Pb198  1  0.25068937  0.28734989  0.25336904  1
  Pb  Pb199  1  0.24946992  0.61932640  0.26253700  1
  Pb  Pb200  1  0.24900716  0.95230409  0.24628567  1
  Pb  Pb201  1  0.75624449  0.28383655  0.24285023  1
  Pb  Pb202  1  0.75061788  0.61887253  0.24541164  1
  Pb  Pb203  1  0.74782667  0.95242643  0.25504092  1
  Pb  Pb204  1  -0.00218874  0.21399382  0.73927736  1
  Pb  Pb205  1  -0.00076791  0.55146889  0.75129713  1
  Pb  Pb206  1  0.00347390  0.88065483  0.75384810  1
  Pb  Pb207  1  0.49940783  0.21451603  0.76469165  1
  Pb  Pb208  1  0.50170747  0.54579427  0.74161457  1
  Pb  Pb209  1  0.50648248  0.88559241  0.74913738  1
  Pb  Pb210  1  0.00417234  0.11709524  0.24723169  1
  Pb  Pb211  1  0.00338838  0.45302066  0.24231550  1
  Pb  Pb212  1  0.00287324  0.78599233  0.25027054  1
  Pb  Pb213  1  0.49880174  0.11989213  0.25203143  1
  Pb  Pb214  1  0.50803305  0.44870026  0.25244777  1
  Pb  Pb215  1  0.50184198  0.78575102  0.25233565  1
  C  C216  1  -0.00029219  0.04498272  0.62961231  1
  C  C217  1  -0.00611991  0.37632230  0.63218779  1
  C  C218  1  -0.00338068  0.71259990  0.63204290  1
  C  C219  1  0.49564737  0.04592871  0.63212941  1
  C  C220  1  0.49690181  0.37456761  0.62939941  1
  C  C221  1  0.49443765  0.71226355  0.63200892  1
  C  C222  1  -0.00425256  0.28582529  0.12755828  1
  C  C223  1  0.00433301  0.62145546  0.13130471  1
  C  C224  1  -0.00168525  0.95502294  0.13639757  1
  C  C225  1  0.49883112  0.28118411  0.13650136  1
  C  C226  1  0.50322069  0.62016336  0.13189002  1
  C  C227  1  0.50056463  0.95775671  0.13244567  1
  C  C228  1  -0.00408033  0.04525378  0.87188546  1
  C  C229  1  0.00080306  0.37665075  0.87080416  1
  C  C230  1  -0.00361197  0.71068221  0.86517318  1
  C  C231  1  0.49695771  0.04547216  0.86985091  1
  C  C232  1  0.49064769  0.38644812  0.86376423  1
  C  C233  1  0.49628928  0.71199370  0.86666046  1
  C  C234  1  0.00521889  0.28704121  0.37661624  1
  C  C235  1  -0.00313384  0.62176508  0.36795043  1
  C  C236  1  -0.00803093  0.95561254  0.37105099  1
  C  C237  1  0.50264116  0.28806428  0.36788643  1
  C  C238  1  0.49813530  0.62191078  0.36877855  1
  C  C239  1  0.49645209  0.95561983  0.36722773  1
  C  C240  1  0.24414625  0.21005943  0.62950468  1
  C  C241  1  0.25427533  0.54286105  0.63174032  1
  C  C242  1  0.25817302  0.88008322  0.63444647  1
  C  C243  1  0.75184179  0.20889879  0.63258018  1
  C  C244  1  0.75412039  0.54546829  0.63560751  1
  C  C245  1  0.75421807  0.87757297  0.62792699  1
  C  C246  1  0.25242600  0.12287569  0.13477179  1
  C  C247  1  0.25710720  0.46247195  0.13017836  1
  C  C248  1  0.25355962  0.78688503  0.12665490  1
  C  C249  1  0.75435008  0.12025196  0.13334508  1
  C  C250  1  0.74763373  0.45466834  0.12838450  1
  C  C251  1  0.75282777  0.78801486  0.13576687  1
  C  C252  1  0.25251698  0.21194777  0.86789543  1
  C  C253  1  0.24678817  0.54888649  0.87326736  1
  C  C254  1  0.25603794  0.87737358  0.86486871  1
  C  C255  1  0.74456898  0.21209091  0.86966014  1
  C  C256  1  0.75234911  0.54404421  0.86861237  1
  C  C257  1  0.75738396  0.87948824  0.86564716  1
  C  C258  1  0.24486341  0.12406413  0.36697979  1
  C  C259  1  0.25467354  0.45330996  0.36778043  1
  C  C260  1  0.25260316  0.79200923  0.36767440  1
  C  C261  1  0.75283261  0.12216739  0.37156765  1
  C  C262  1  0.75368923  0.45458678  0.36929954  1
  C  C263  1  0.75319239  0.78908741  0.36975672  1
  C  C264  1  0.21093255  0.42308032  0.45754208  1
  C  C265  1  0.30821128  0.76019944  0.45403266  1
  C  C266  1  0.03805910  0.92900347  0.46361548  1
  C  C267  1  0.94358371  0.07915026  0.95955448  1
  C  C268  1  0.01918741  0.92455518  0.04185277  1
  C  C269  1  0.47345198  0.07888477  0.53833163  1
  C  C270  1  0.31294113  0.57577990  0.54595303  1
  C  C271  1  0.80637289  0.76189355  0.04606089  1
  C  C272  1  0.55736841  0.26027538  0.45693294  1
  C  C273  1  0.95640208  0.92865840  0.46574052  1
  C  C274  1  0.51881285  0.92649957  0.46193121  1
  C  C275  1  0.72114944  0.75481350  0.46154918  1
  C  C276  1  0.22045664  0.75186760  0.03379723  1
  C  C277  1  0.31600383  0.90280515  0.95218297  1
  C  C278  1  0.18238269  0.23462093  0.95140245  1
  C  C279  1  0.73453330  0.57453874  0.54026363  1
  C  C280  1  0.79705460  0.09630387  0.03935471  1
  C  C281  1  0.81634653  0.90229044  0.95415927  1
  C  C282  1  0.21164035  0.24030471  0.53545025  1
  C  C283  1  0.81209511  0.42197084  0.45536680  1
  C  C284  1  0.72472559  0.76100243  0.03958078  1
  C  C285  1  0.96584056  0.25840731  0.46788851  1
  C  C286  1  0.04597907  0.25853105  0.46763173  1
  C  C287  1  0.81214829  0.91285448  0.54267482  1
  C  C288  1  0.77279097  0.09263540  0.46773717  1
  C  C289  1  0.44718212  0.59399712  0.04452145  1
  C  C290  1  0.29314688  0.23872474  0.53857905  1
  C  C291  1  0.97864021  0.59536290  0.03410100  1
  C  C292  1  0.43782985  0.07181962  0.95769068  1
  C  C293  1  0.96179274  0.07187503  0.53569026  1
  C  C294  1  0.51160239  0.73913242  0.96309240  1
  C  C295  1  0.00893963  0.74160740  0.53451596  1
  C  C296  1  0.92890669  0.73726754  0.54781499  1
  C  C297  1  0.97296363  0.25661444  0.03169315  1
  C  C298  1  0.93828335  0.59171039  0.45361393  1
  C  C299  1  0.69226424  0.09627425  0.45922846  1
  C  C300  1  0.04332609  0.07346031  0.53701645  1
  C  C301  1  0.23149240  0.57238888  0.97107658  1
  C  C302  1  0.23486118  0.90461907  0.96192104  1
  C  C303  1  0.26133953  0.23785256  0.96695546  1
  C  C304  1  0.71492928  0.09410475  0.03936239  1
  C  C305  1  0.05961518  0.59698077  0.04194586  1
  C  C306  1  0.31047572  0.56972808  0.95991889  1
  C  C307  1  0.51857173  0.07475979  0.96604186  1
  C  C308  1  0.93554687  0.40663067  0.95496060  1
  C  C309  1  0.05378072  0.25882593  0.03906578  1
  C  C310  1  0.47627375  0.25867703  0.46323205  1
  C  C311  1  0.73524716  0.90546580  0.96298668  1
  N  N312  1  0.20806306  0.90597000  0.54393584  1
  N  N313  1  0.96915398  0.40589070  0.53674990  1
  N  N314  1  0.43688418  0.40692919  0.54494397  1
  N  N315  1  0.73401182  0.24510934  0.96278580  1
  N  N316  1  0.43347336  0.73656707  0.95351331  1
  N  N317  1  0.44126500  0.59222167  0.45574423  1
  N  N318  1  0.23465536  0.57613690  0.53850810  1
  N  N319  1  0.30158747  0.09561874  0.04490063  1
  N  N320  1  0.79858555  0.75732620  0.46015048  1
  N  N321  1  0.77009832  0.57348516  0.96224739  1
  N  N322  1  0.73368373  0.91364563  0.53593908  1
  N  N323  1  0.03039646  0.73797577  0.95968981  1
  N  N324  1  0.51883511  0.59013860  0.46138334  1
  N  N325  1  0.45567471  0.27309429  0.04110562  1
  N  N326  1  0.27567561  0.09496624  0.46142133  1
  N  N327  1  0.81060211  0.24317699  0.95188340  1
  N  N328  1  0.94072551  0.92582922  0.04926174  1
  N  N329  1  0.77162054  0.23956032  0.53706719  1
  N  N330  1  0.02265272  0.08049989  0.96322056  1
  N  N331  1  0.69266152  0.57148299  0.95520405  1
  N  N332  1  0.51873099  0.92695056  0.03901218  1
  N  N333  1  0.46095580  0.38815233  0.96239771  1
  N  N334  1  0.53818390  0.27292243  0.04011252  1
  N  N335  1  0.44008774  0.92729137  0.45584360  1
  N  N336  1  0.19981089  0.09635309  0.45841007  1
  N  N337  1  0.52532538  0.59179847  0.03453328  1
  N  N338  1  0.95444374  0.73765798  0.95783593  1
  N  N339  1  0.22894431  0.75885887  0.46075974  1
  N  N340  1  0.01327853  0.40930375  0.96499047  1
  N  N341  1  0.73501314  0.42262943  0.03492795  1
  N  N342  1  0.22574357  0.09422511  0.03952228  1
  N  N343  1  0.29904739  0.75456947  0.03838678  1
  N  N344  1  0.55040592  0.07583146  0.54379970  1
  N  N345  1  0.53046096  0.74256306  0.54159639  1
  N  N346  1  0.28412393  0.90797592  0.53862818  1
  N  N347  1  0.01701035  0.58900568  0.46160531  1
  N  N348  1  0.69650131  0.23811158  0.54543010  1
  N  N349  1  0.44153231  0.92972866  0.04636745  1
  N  N350  1  0.51406498  0.40797557  0.53706344  1
  N  N351  1  0.45227992  0.73992598  0.53949589  1
  N  N352  1  0.28994953  0.42333483  0.46216100  1
  N  N353  1  0.73383015  0.42186055  0.46267909  1
  N  N354  1  0.81191959  0.42465945  0.04466438  1
  N  N355  1  0.21329310  0.42132798  0.04474034  1
  N  N356  1  0.04496296  0.40375967  0.54248300  1
  N  N357  1  0.54278106  0.38957507  0.95691628  1
  N  N358  1  0.81294644  0.57216996  0.54798620  1
  N  N359  1  0.29580132  0.42433264  0.04110605  1
  N  N360  1  0.06557792  0.05652482  0.59649454  1
  N  N361  1  0.06178701  0.38559922  0.60164591  1
  N  N362  1  0.04997703  0.72594768  0.58751652  1
  N  N363  1  0.56452330  0.05529610  0.60338210  1
  N  N364  1  0.55239737  0.38655041  0.58735557  1
  N  N365  1  0.55752800  0.72291996  0.59656551  1
  N  N366  1  0.43427768  0.27496199  0.10152345  1
  N  N367  1  0.43238674  0.61107740  0.10404806  1
  N  N368  1  0.43067894  0.94663909  0.10506584  1
  N  N369  1  0.93785776  0.27290454  0.08491343  1
  N  N370  1  0.94504662  0.61063574  0.09112562  1
  N  N371  1  0.92915533  0.94499670  0.10806008  1
  N  N372  1  0.42592842  0.05394991  0.89689803  1
  N  N373  1  0.43115409  0.39040002  0.90430972  1
  N  N374  1  0.42554629  0.71955468  0.89327906  1
  N  N375  1  0.92698872  0.05815899  0.90267522  1
  N  N376  1  0.92762501  0.38734337  0.89642954  1
  N  N377  1  0.93172017  0.72119200  0.89911469  1
  N  N378  1  0.07094869  0.27572480  0.41180487  1
  N  N379  1  0.05310726  0.61097884  0.40977824  1
  N  N380  1  0.05888098  0.94577572  0.40359921  1
  N  N381  1  0.57237237  0.27846673  0.39660527  1
  N  N382  1  0.55511388  0.61040584  0.40978691  1
  N  N383  1  0.55507070  0.94319650  0.40788628  1
  N  N384  1  0.31205050  0.22014116  0.59830431  1
  N  N385  1  0.32530943  0.55579781  0.60371477  1
  N  N386  1  0.31665578  0.89172942  0.59450916  1
  N  N387  1  0.80765742  0.22107734  0.59061657  1
  N  N388  1  0.82367811  0.55397824  0.60730333  1
  N  N389  1  0.82489283  0.89132639  0.59993248  1
  N  N390  1  0.19378065  0.11170931  0.09482239  1
  N  N391  1  0.19229976  0.44971546  0.09734660  1
  N  N392  1  0.19191019  0.77190481  0.08837295  1
  N  N393  1  0.68983945  0.10890550  0.09808589  1
  N  N394  1  0.69429188  0.44309518  0.08461162  1
  N  N395  1  0.69271553  0.77715202  0.09588463  1
  N  N396  1  0.17746597  0.21943994  0.89145767  1
  N  N397  1  0.19209306  0.55991166  0.91811836  1
  N  N398  1  0.19889268  0.88851889  0.90727604  1
  N  N399  1  0.69213909  0.22411307  0.91405616  1
  N  N400  1  0.68230411  0.55518660  0.89607436  1
  N  N401  1  0.69980842  0.89097973  0.90734723  1
  N  N402  1  0.30539996  0.11240486  0.40511685  1
  N  N403  1  0.31555439  0.44219974  0.40572708  1
  N  N404  1  0.32282570  0.77908416  0.39579750  1
  N  N405  1  0.80939755  0.10828111  0.41504633  1
  N  N406  1  0.82462909  0.44179375  0.39747036  1
  N  N407  1  0.81907376  0.77882263  0.40234778  1
  N  N408  1  0.44330035  0.27540149  0.40941403  1
  N  N409  1  0.42901707  0.61034770  0.39734666  1
  N  N410  1  0.42797412  0.94562562  0.39683887  1
  N  N411  1  0.94001887  0.27536496  0.41232679  1
  N  N412  1  0.92551036  0.61048597  0.39516476  1
  N  N413  1  0.92910590  0.94459453  0.40956682  1
  N  N414  1  0.05568869  0.05747130  0.91002709  1
  N  N415  1  0.05468737  0.38870414  0.91404272  1
  N  N416  1  0.05805374  0.72078347  0.90273469  1
  N  N417  1  0.55419783  0.05892330  0.91299658  1
  N  N418  1  0.55833082  0.39077091  0.89533989  1
  N  N419  1  0.55160962  0.72450761  0.91005270  1
  N  N420  1  0.06632808  0.27703123  0.09993096  1
  N  N421  1  0.07447303  0.61239736  0.10063076  1
  N  N422  1  0.05604123  0.94246863  0.09497312  1
  N  N423  1  0.56197928  0.27490936  0.09995967  1
  N  N424  1  0.55881472  0.60816241  0.08967444  1
  N  N425  1  0.55618416  0.94749838  0.08996641  1
  N  N426  1  0.43751731  0.06071760  0.59130674  1
  N  N427  1  0.42666314  0.38731092  0.60293054  1
  N  N428  1  0.43055794  0.72359046  0.59688770  1
  N  N429  1  0.93559409  0.05506051  0.59169413  1
  N  N430  1  0.93588606  0.38847507  0.59204758  1
  N  N431  1  0.92284686  0.71961980  0.60818195  1
  N  N432  1  0.17905552  0.11463812  0.39996726  1
  N  N433  1  0.18770063  0.44128609  0.39996040  1
  N  N434  1  0.19479592  0.78177178  0.40839952  1
  N  N435  1  0.68133693  0.11444450  0.39820666  1
  N  N436  1  0.69664712  0.44399774  0.41053523  1
  N  N437  1  0.69119591  0.77403722  0.40683585  1
  N  N438  1  0.30442555  0.22364715  0.91337417  1
  N  N439  1  0.31975297  0.55559663  0.89958933  1
  N  N440  1  0.32766979  0.88586563  0.89195264  1
  N  N441  1  0.81649068  0.22427109  0.89345064  1
  N  N442  1  0.80813548  0.55476624  0.91078455  1
  N  N443  1  0.82855465  0.88633973  0.89381111  1
  N  N444  1  0.31971712  0.11214393  0.10401212  1
  N  N445  1  0.31989387  0.45064244  0.09483249  1
  N  N446  1  0.32027969  0.77690185  0.09534572  1
  N  N447  1  0.81989175  0.11227444  0.09825088  1
  N  N448  1  0.81904697  0.44271253  0.10360327  1
  N  N449  1  0.82222649  0.77838868  0.10597806  1
  N  N450  1  0.18238526  0.22301424  0.59037977  1
  N  N451  1  0.19741752  0.55383417  0.59057495  1
  N  N452  1  0.19067441  0.88882138  0.60329806  1
  N  N453  1  0.68239741  0.21961897  0.60470558  1
  N  N454  1  0.69707373  0.55823273  0.59374741  1
  N  N455  1  0.69683310  0.88988140  0.58749518  1
  Cl  Cl456  1  0.25292486  0.05846132  0.61870327  1
  Cl  Cl457  1  0.24403922  0.38438634  0.62932833  1
  Cl  Cl458  1  0.23822669  0.72415361  0.60203838  1
  Cl  Cl459  1  0.75189842  0.04719294  0.62251890  1
  Cl  Cl460  1  0.73832768  0.39341036  0.60274530  1
  Cl  Cl461  1  0.73617299  0.72524876  0.62335745  1
  Cl  Cl462  1  0.25351799  0.28162472  0.11844972  1
  Cl  Cl463  1  0.25354145  0.62061798  0.13276651  1
  Cl  Cl464  1  0.24128810  0.94446611  0.11087848  1
  Cl  Cl465  1  0.74516080  0.27478733  0.10227251  1
  Cl  Cl466  1  0.75516178  0.60501017  0.10708372  1
  Cl  Cl467  1  0.73645461  0.94018170  0.12078137  1
  Cl  Cl468  1  0.23811301  0.05625086  0.88044976  1
  Cl  Cl469  1  0.24317867  0.40003530  0.90115857  1
  Cl  Cl470  1  0.24141383  0.72052083  0.87506809  1
  Cl  Cl471  1  0.73936874  0.05816103  0.88864358  1
  Cl  Cl472  1  0.73997373  0.39361681  0.88590905  1
  Cl  Cl473  1  0.74139070  0.72218957  0.89059865  1
  Cl  Cl474  1  0.25801504  0.27852950  0.38521896  1
  Cl  Cl475  1  0.23658184  0.60724711  0.39988220  1
  Cl  Cl476  1  0.24461738  0.94698900  0.37362840  1
  Cl  Cl477  1  0.75747645  0.28851718  0.37133683  1
  Cl  Cl478  1  0.73716810  0.60972543  0.38364572  1
  Cl  Cl479  1  0.74041792  0.94241995  0.39373094  1
  Cl  Cl480  1  -0.00630452  0.22055695  0.60318356  1
  Cl  Cl481  1  0.01506564  0.56223672  0.60810566  1
  Cl  Cl482  1  0.00729141  0.88897292  0.62245436  1
  Cl  Cl483  1  0.49970055  0.21667601  0.63348821  1
  Cl  Cl484  1  0.51434336  0.55955982  0.60387645  1
  Cl  Cl485  1  0.50942219  0.89093693  0.61274635  1
  Cl  Cl486  1  0.01036501  0.10969065  0.10842130  1
  Cl  Cl487  1  0.01088368  0.44262210  0.10444420  1
  Cl  Cl488  1  0.00882081  0.77993875  0.12233471  1
  Cl  Cl489  1  0.50402948  0.12143697  0.11658555  1
  Cl  Cl490  1  0.50599534  0.44119541  0.09265099  1
  Cl  Cl491  1  0.50641686  0.77982625  0.11608259  1
  Cl  Cl492  1  -0.00331823  0.21292195  0.87012965  1
  Cl  Cl493  1  -0.00648084  0.55393466  0.88695070  1
  Cl  Cl494  1  0.01571094  0.89288717  0.88883067  1
  Cl  Cl495  1  0.50212011  0.22116278  0.90943128  1
  Cl  Cl496  1  0.50181046  0.54189738  0.87122498  1
  Cl  Cl497  1  0.51852125  0.89848065  0.89303660  1
  Cl  Cl498  1  -0.00537218  0.11135315  0.38064828  1
  Cl  Cl499  1  0.00573613  0.45150018  0.37070225  1
  Cl  Cl500  1  0.00964352  0.77857486  0.38610471  1
  Cl  Cl501  1  0.48970310  0.11265495  0.38256011  1
  Cl  Cl502  1  0.51099343  0.43878472  0.39302283  1
  Cl  Cl503  1  0.51036387  0.77419574  0.38850078  1
  Cl  Cl504  1  0.36232551  0.14812259  0.75399754  1
  Cl  Cl505  1  0.36596284  0.47788599  0.75110295  1
  Cl  Cl506  1  0.36605462  0.80758926  0.75561292  1
  Cl  Cl507  1  0.85818454  0.14649822  0.75345472  1
  Cl  Cl508  1  0.86571802  0.47744333  0.74387871  1
  Cl  Cl509  1  0.86599469  0.81110197  0.74993316  1
  Cl  Cl510  1  0.14150916  0.18406119  0.24666688  1
  Cl  Cl511  1  0.14247788  0.51740619  0.24321281  1
  Cl  Cl512  1  0.14482559  0.84745764  0.24706174  1
  Cl  Cl513  1  0.63466701  0.18922410  0.25453552  1
  Cl  Cl514  1  0.63957114  0.51667976  0.24829130  1
  Cl  Cl515  1  0.64398783  0.84729116  0.25599100  1
  Cl  Cl516  1  0.13825714  0.15102840  0.74954574  1
  Cl  Cl517  1  0.14644473  0.48261890  0.75244694  1
  Cl  Cl518  1  0.14352430  0.81776352  0.74727307  1
  Cl  Cl519  1  0.63789565  0.14730895  0.74944582  1
  Cl  Cl520  1  0.64235309  0.48303636  0.75234999  1
  Cl  Cl521  1  0.64312519  0.81961302  0.75153359  1
  Cl  Cl522  1  0.36344369  0.18770454  0.24363926  1
  Cl  Cl523  1  0.36095707  0.52013686  0.25457084  1
  Cl  Cl524  1  0.36542710  0.85439498  0.24652850  1
  Cl  Cl525  1  0.85450039  0.18539931  0.24782039  1
  Cl  Cl526  1  0.86162758  0.51743278  0.24715223  1
  Cl  Cl527  1  0.86619387  0.85598051  0.25023766  1
  Cl  Cl528  1  0.10701799  0.31595856  0.75201319  1
  Cl  Cl529  1  0.10290858  0.65030242  0.74767497  1
  Cl  Cl530  1  0.10868162  0.98460698  0.74611786  1
  Cl  Cl531  1  0.61439750  0.31393215  0.75911381  1
  Cl  Cl532  1  0.60640237  0.65032445  0.75073216  1
  Cl  Cl533  1  0.60207351  0.98305325  0.74608169  1
  Cl  Cl534  1  0.38545871  0.02021328  0.24274446  1
  Cl  Cl535  1  0.38998015  0.35281082  0.24239240  1
  Cl  Cl536  1  0.38683297  0.68714313  0.26119884  1
  Cl  Cl537  1  0.88148692  0.02252465  0.24138415  1
  Cl  Cl538  1  0.89195608  0.35179925  0.24462039  1
  Cl  Cl539  1  0.88525751  0.68793236  0.25428496  1
  Cl  Cl540  1  0.39405741  0.31617014  0.75090442  1
  Cl  Cl541  1  0.38634273  0.64433778  0.74839242  1
  Cl  Cl542  1  0.38240271  0.97737812  0.75935071  1
  Cl  Cl543  1  0.88244072  0.31208788  0.76033349  1
  Cl  Cl544  1  0.88374205  0.64032533  0.73933519  1
  Cl  Cl545  1  0.88874519  0.97978218  0.75827188  1
  Cl  Cl546  1  0.10264090  0.01665372  0.25327813  1
  Cl  Cl547  1  0.11033326  0.35008189  0.24473006  1
  Cl  Cl548  1  0.10802867  0.68157846  0.25203069  1
  Cl  Cl549  1  0.60812906  0.01788058  0.25074447  1
  Cl  Cl550  1  0.60760681  0.35425749  0.24584828  1
  Cl  Cl551  1  0.60874427  0.68204775  0.24548645  1
