# generated using pymatgen
data_H8PbC4(N3Cl2)2
_symmetry_space_group_name_H-M   'P 1'
_cell_length_a   16.62609030
_cell_length_b   22.51018871
_cell_length_c   21.59090734
_cell_angle_alpha   90.00030718
_cell_angle_beta   89.99051604
_cell_angle_gamma   89.99574666
_symmetry_Int_Tables_number   1
_chemical_formula_structural   H8PbC4(N3Cl2)2
_chemical_formula_sum   'H192 Pb24 C96 N144 Cl96'
_cell_volume   8080.53576995
_cell_formula_units_Z   24
loop_
 _symmetry_equiv_pos_site_id
 _symmetry_equiv_pos_as_xyz
  1  'x, y, z'
loop_
 _atom_site_type_symbol
 _atom_site_label
 _atom_site_symmetry_multiplicity
 _atom_site_fract_x
 _atom_site_fract_y
 _atom_site_fract_z
 _atom_site_occupancy
  H  H0  1  -0.00400177  0.03050901  0.67890827  1
  H  H1  1  -0.00811048  0.36710384  0.67787406  1
  H  H2  1  0.00017309  0.69806249  0.67919728  1
  H  H3  1  0.51480902  0.03283059  0.67506512  1
  H  H4  1  0.50121958  0.36542658  0.68234667  1
  H  H5  1  0.49742159  0.69655125  0.67764230  1
  H  H6  1  -0.00075203  0.30585727  0.17791509  1
  H  H7  1  0.01031642  0.63676757  0.17485041  1
  H  H8  1  0.01205645  0.96823738  0.18186409  1
  H  H9  1  0.50016435  0.30523012  0.18126442  1
  H  H10  1  0.49600169  0.63378737  0.17953827  1
  H  H11  1  0.48661515  0.96777584  0.17678547  1
  H  H12  1  0.00273280  0.02881653  0.81792148  1
  H  H13  1  -0.00536750  0.36549412  0.81984326  1
  H  H14  1  0.00863525  0.69820753  0.82143465  1
  H  H15  1  0.50075646  0.03007206  0.82533925  1
  H  H16  1  0.51583097  0.36335501  0.82401917  1
  H  H17  1  0.50580703  0.69707041  0.82378699  1
  H  H18  1  0.00865504  0.30319767  0.31812412  1
  H  H19  1  0.00544386  0.63747573  0.32462364  1
  H  H20  1  -0.00319813  0.97008859  0.32060864  1
  H  H21  1  0.48632322  0.30439360  0.32445426  1
  H  H22  1  0.49848116  0.63575231  0.32047088  1
  H  H23  1  0.50211604  0.96770496  0.32044102  1
  H  H24  1  0.24356922  0.19672859  0.68210290  1
  H  H25  1  0.26041106  0.53293132  0.68089758  1
  H  H26  1  0.25560957  0.86408902  0.67665902  1
  H  H27  1  0.75709121  0.19685259  0.67917913  1
  H  H28  1  0.73986701  0.53065296  0.67668429  1
  H  H29  1  0.73998777  0.86364909  0.68198550  1
  H  H30  1  0.23478460  0.13562764  0.18056384  1
  H  H31  1  0.23457529  0.46665915  0.17302263  1
  H  H32  1  0.24721240  0.80282941  0.17592233  1
  H  H33  1  0.76573099  0.13361598  0.17825942  1
  H  H34  1  0.75847135  0.46910965  0.17923709  1
  H  H35  1  0.73788037  0.80432870  0.17963180  1
  H  H36  1  0.25203678  0.19910934  0.82118105  1
  H  H37  1  0.25754437  0.52866134  0.82313449  1
  H  H38  1  0.24365860  0.86332945  0.81860127  1
  H  H39  1  0.74881726  0.19882756  0.81922295  1
  H  H40  1  0.73927371  0.53042582  0.82459549  1
  H  H41  1  0.76003437  0.86422483  0.81957160  1
  H  H42  1  0.24364346  0.13482639  0.32071587  1
  H  H43  1  0.25641165  0.46865121  0.32074957  1
  H  H44  1  0.24428008  0.80680612  0.32209427  1
  H  H45  1  0.75604819  0.13539390  0.31894878  1
  H  H46  1  0.74417861  0.47117746  0.32040289  1
  H  H47  1  0.74021769  0.80078873  0.32487922  1
  H  H48  1  0.12759725  0.04995445  0.61568301  1
  H  H49  1  0.13092637  0.38293421  0.62323544  1
  H  H50  1  0.11591405  0.72528431  0.60147789  1
  H  H51  1  0.61909196  0.05799816  0.59182918  1
  H  H52  1  0.63107735  0.38790873  0.61489848  1
  H  H53  1  0.61994190  0.71970323  0.60465171  1
  H  H54  1  0.38379105  0.27952877  0.10479500  1
  H  H55  1  0.37949706  0.61069941  0.10427164  1
  H  H56  1  0.37573102  0.94073273  0.09666726  1
  H  H57  1  0.88486326  0.27783023  0.09906230  1
  H  H58  1  0.87266065  0.61584911  0.11746226  1
  H  H59  1  0.87364610  0.95049659  0.12373421  1
  H  H60  1  0.37627883  0.05733207  0.89382990  1
  H  H61  1  0.37794143  0.38478729  0.88125882  1
  H  H62  1  0.36409905  0.71590844  0.87422525  1
  H  H63  1  0.87592287  0.05229709  0.88544316  1
  H  H64  1  0.87896269  0.38812205  0.89573622  1
  H  H65  1  0.87281461  0.71639866  0.87643775  1
  H  H66  1  0.13005575  0.27802791  0.39223649  1
  H  H67  1  0.12568823  0.61061929  0.39738208  1
  H  H68  1  0.12249631  0.94654155  0.39078098  1
  H  H69  1  0.62719942  0.28414249  0.37560427  1
  H  H70  1  0.62937272  0.61607838  0.38511705  1
  H  H71  1  0.61709941  0.94569998  0.39737482  1
  H  H72  1  0.36895894  0.21991730  0.61257514  1
  H  H73  1  0.36662602  0.55830048  0.59712981  1
  H  H74  1  0.37779822  0.88990354  0.60492854  1
  H  H75  1  0.86722992  0.22435190  0.59892102  1
  H  H76  1  0.87443361  0.55337022  0.61482470  1
  H  H77  1  0.87788255  0.88376678  0.62334614  1
  H  H78  1  0.13048629  0.10957446  0.09516249  1
  H  H79  1  0.13145483  0.44094256  0.08691553  1
  H  H80  1  0.13327387  0.77424201  0.09884028  1
  H  H81  1  0.62471393  0.11731934  0.12461062  1
  H  H82  1  0.62389816  0.45108531  0.11844700  1
  H  H83  1  0.63280326  0.77492241  0.09421334  1
  H  H84  1  0.11857688  0.22108106  0.88286460  1
  H  H85  1  0.12415758  0.55106310  0.88423772  1
  H  H86  1  0.12918950  0.88632767  0.89804312  1
  H  H87  1  0.61697179  0.21921418  0.88245322  1
  H  H88  1  0.63341170  0.55825359  0.90954506  1
  H  H89  1  0.62499637  0.88380960  0.87893027  1
  H  H90  1  0.37659449  0.11226639  0.38169866  1
  H  H91  1  0.36716018  0.44426406  0.40224204  1
  H  H92  1  0.37489544  0.78245421  0.38597243  1
  H  H93  1  0.87155146  0.11026600  0.39618758  1
  H  H94  1  0.86892799  0.44720740  0.39043091  1
  H  H95  1  0.87835731  0.78043082  0.38060027  1
  H  H96  1  0.38471951  0.27232849  0.41058034  1
  H  H97  1  0.38044497  0.61208627  0.39357329  1
  H  H98  1  0.36837387  0.95022316  0.38260953  1
  H  H99  1  0.88084018  0.27980198  0.38428788  1
  H  H100  1  0.87695162  0.61498045  0.39014609  1
  H  H101  1  0.87311431  0.94478402  0.39190794  1
  H  H102  1  0.12548767  0.05681818  0.88917450  1
  H  H103  1  0.12776356  0.38419534  0.88216015  1
  H  H104  1  0.11850297  0.72189791  0.90264279  1
  H  H105  1  0.62420014  0.05185432  0.89753359  1
  H  H106  1  0.62486318  0.39242794  0.90531228  1
  H  H107  1  0.60865879  0.72744033  0.90923766  1
  H  H108  1  0.13203336  0.28308484  0.11520164  1
  H  H109  1  0.11826235  0.60948263  0.09073207  1
  H  H110  1  0.12047070  0.94038496  0.09990232  1
  H  H111  1  0.63242690  0.28272669  0.11617928  1
  H  H112  1  0.62830632  0.61369958  0.11706088  1
  H  H113  1  0.62211536  0.95054255  0.12097636  1
  H  H114  1  0.37461148  0.04739750  0.62340866  1
  H  H115  1  0.38286610  0.38822845  0.60456858  1
  H  H116  1  0.37157025  0.72255834  0.60789803  1
  H  H117  1  0.87875682  0.05452751  0.60499622  1
  H  H118  1  0.88466533  0.39228621  0.59624584  1
  H  H119  1  0.86797960  0.71912308  0.61690448  1
  H  H120  1  0.12903299  0.10839372  0.39984624  1
  H  H121  1  0.11953931  0.44905926  0.37920133  1
  H  H122  1  0.12737747  0.77718817  0.39830022  1
  H  H123  1  0.62301644  0.11357544  0.38285380  1
  H  H124  1  0.62028746  0.44784908  0.39320068  1
  H  H125  1  0.63278299  0.77310171  0.40666735  1
  H  H126  1  0.36560098  0.22546766  0.90148037  1
  H  H127  1  0.37256731  0.55574051  0.90087302  1
  H  H128  1  0.37762309  0.88525268  0.88137440  1
  H  H129  1  0.86575296  0.22239420  0.89335440  1
  H  H130  1  0.87847137  0.55052186  0.87801687  1
  H  H131  1  0.87312494  0.88740719  0.89781109  1
  H  H132  1  0.37554361  0.11445322  0.12699793  1
  H  H133  1  0.37517824  0.45133331  0.12361464  1
  H  H134  1  0.38089203  0.78013519  0.11463417  1
  H  H135  1  0.86778608  0.10782943  0.09003051  1
  H  H136  1  0.87241149  0.44556764  0.10222350  1
  H  H137  1  0.87704307  0.78399708  0.12472853  1
  H  H138  1  0.12125599  0.21690087  0.60913281  1
  H  H139  1  0.12106858  0.55173190  0.62511619  1
  H  H140  1  0.12883280  0.88797784  0.60833390  1
  H  H141  1  0.61987361  0.21613187  0.62036024  1
  H  H142  1  0.62716100  0.55786794  0.59693715  1
  H  H143  1  0.63069353  0.88957670  0.60024875  1
  H  H144  1  0.78632630  0.08141040  -0.00698446  1
  H  H145  1  0.29276886  0.58522918  0.49314340  1
  H  H146  1  0.46606841  0.24497445  0.50749389  1
  H  H147  1  0.71121755  0.75067704  -0.00500510  1
  H  H148  1  0.80034062  0.25117637  0.49218287  1
  H  H149  1  0.14196969  0.41931600  0.48905221  1
  H  H150  1  0.07305555  0.07693828  0.99584549  1
  H  H151  1  0.07272320  0.58304583  0.50115586  1
  H  H152  1  0.80786160  0.08091933  0.50336706  1
  H  H153  1  0.42047673  0.75161576  0.50392694  1
  H  H154  1  0.93775613  0.41559343  1.00604783  1
  H  H155  1  0.89439244  0.74601875  -0.00803318  1
  H  H156  1  0.95322433  0.42157562  0.49044144  1
  H  H157  1  0.44555389  0.25146089  -0.00264397  1
  H  H158  1  0.04843941  0.90886997  -0.00307727  1
  H  H159  1  0.60240521  0.91742105  0.00666693  1
  H  H160  1  0.29652143  0.25445094  1.00219000  1
  H  H161  1  0.85674793  0.75186890  0.49020643  1
  H  H162  1  0.42179186  0.07682796  1.00007570  1
  H  H163  1  0.53045956  0.75171837  1.00840966  1
  H  H164  1  0.92198013  0.25306280  0.49674306  1
  H  H165  1  0.93508520  0.08294084  0.49409501  1
  H  H166  1  0.67231547  0.42145808  0.49678330  1
  H  H167  1  0.92000202  0.08011805  0.99721484  1
  H  H168  1  0.36296064  0.42063456  1.00866109  1
  H  H169  1  0.31305313  0.26728468  0.51805344  1
  H  H170  1  0.19408285  0.91428335  1.00427129  1
  H  H171  1  0.84122669  0.58126258  0.50862489  1
  H  H172  1  0.20693582  0.08222062  -0.00722670  1
  H  H173  1  0.18320595  0.20995100  0.50342802  1
  H  H174  1  0.30054139  0.41526497  0.50750871  1
  H  H175  1  0.81127281  0.41722525  -0.00722136  1
  H  H176  1  0.19024301  0.75345989  0.50142578  1
  H  H177  1  0.43514462  0.58216109  0.50438627  1
  H  H178  1  0.30651726  0.58206926  1.00465460  1
  H  H179  1  0.89747870  0.58670765  0.00838562  1
  H  H180  1  0.34803596  0.08024894  0.49352395  1
  H  H181  1  0.64693910  0.24451952  0.51219593  1
  H  H182  1  0.81392132  0.91618549  1.00507486  1
  H  H183  1  0.55763577  0.92056041  0.50782080  1
  H  H184  1  0.07485104  0.26878063  0.49905971  1
  H  H185  1  0.92357888  0.91598539  0.50004295  1
  H  H186  1  0.80942978  0.25206453  1.00382035  1
  H  H187  1  0.43714660  0.58034631  -0.00534856  1
  H  H188  1  0.95253867  0.25260901  -0.00308796  1
  H  H189  1  0.70100064  0.91866731  0.49604896  1
  H  H190  1  0.57485505  0.08943522  0.99695843  1
  H  H191  1  0.35026511  0.75147119  0.00543798  1
  Pb  Pb192  1  0.24447440  0.04735603  0.75453628  1
  Pb  Pb193  1  0.24995112  0.38133281  0.74481696  1
  Pb  Pb194  1  0.24308762  0.71518673  0.74824148  1
  Pb  Pb195  1  0.74809840  0.04680160  0.74921870  1
  Pb  Pb196  1  0.74471210  0.38274537  0.75086390  1
  Pb  Pb197  1  0.74091004  0.71587279  0.75481786  1
  Pb  Pb198  1  0.25660486  0.28343576  0.25324209  1
  Pb  Pb199  1  0.24655093  0.61714337  0.24568320  1
  Pb  Pb200  1  0.25051143  0.95371034  0.24218951  1
  Pb  Pb201  1  0.75215933  0.28812506  0.24815080  1
  Pb  Pb202  1  0.75329062  0.62120415  0.25405496  1
  Pb  Pb203  1  0.74713972  0.94997052  0.25586244  1
  Pb  Pb204  1  -0.00643620  0.21666200  0.74688745  1
  Pb  Pb205  1  -0.00518099  0.54818525  0.74835240  1
  Pb  Pb206  1  -0.00161362  0.87891420  0.75414351  1
  Pb  Pb207  1  0.49558755  0.21263720  0.74970224  1
  Pb  Pb208  1  0.49449188  0.54931412  0.75113556  1
  Pb  Pb209  1  0.49412838  0.88296712  0.74592484  1
  Pb  Pb210  1  -0.00443281  0.11705145  0.24556670  1
  Pb  Pb211  1  -0.00019530  0.45317193  0.24375152  1
  Pb  Pb212  1  0.00437343  0.78694892  0.24844265  1
  Pb  Pb213  1  0.50330183  0.11937549  0.24731676  1
  Pb  Pb214  1  0.50135322  0.45522146  0.25551511  1
  Pb  Pb215  1  0.49741336  0.78380167  0.25040385  1
  C  C216  1  0.00054034  0.04526787  0.63130408  1
  C  C217  1  0.00240805  0.38104767  0.63045621  1
  C  C218  1  -0.00510416  0.71374473  0.63204917  1
  C  C219  1  0.50241913  0.04629579  0.62788422  1
  C  C220  1  0.50500030  0.38039388  0.63461425  1
  C  C221  1  0.49584980  0.71267019  0.63031370  1
  C  C222  1  0.00516726  0.28961196  0.13080118  1
  C  C223  1  0.00007362  0.62105936  0.12795379  1
  C  C224  1  0.00175244  0.95357888  0.13463238  1
  C  C225  1  0.50581871  0.28942292  0.13397374  1
  C  C226  1  0.50102555  0.61929066  0.13186633  1
  C  C227  1  0.49561558  0.95279934  0.12962199  1
  C  C228  1  0.00186391  0.04519741  0.86533107  1
  C  C229  1  0.00023985  0.37906238  0.86774808  1
  C  C230  1  -0.00097486  0.71221221  0.86883031  1
  C  C231  1  0.50039337  0.04612570  0.87285982  1
  C  C232  1  0.50597587  0.37983016  0.87039043  1
  C  C233  1  0.49298630  0.71225221  0.87049566  1
  C  C234  1  0.00717431  0.28791378  0.36590834  1
  C  C235  1  0.00310284  0.62123754  0.37182232  1
  C  C236  1  -0.00257250  0.95416897  0.36798260  1
  C  C237  1  0.49922719  0.28826472  0.37077687  1
  C  C238  1  0.50250580  0.62116808  0.36812841  1
  C  C239  1  0.49611873  0.95476541  0.36853546  1
  C  C240  1  0.24461461  0.21106503  0.63402190  1
  C  C241  1  0.24890933  0.54696600  0.63357591  1
  C  C242  1  0.25389967  0.88022256  0.62958554  1
  C  C243  1  0.74741672  0.21205533  0.63194343  1
  C  C244  1  0.74748854  0.54635796  0.62960081  1
  C  C245  1  0.74985042  0.87871932  0.63483496  1
  C  C246  1  0.24732322  0.12021734  0.13386629  1
  C  C247  1  0.24792370  0.45272320  0.12614464  1
  C  C248  1  0.25449959  0.78667295  0.12901636  1
  C  C249  1  0.75316078  0.12019159  0.13092645  1
  C  C250  1  0.75176498  0.45517458  0.13152521  1
  C  C251  1  0.74917882  0.78903836  0.13274063  1
  C  C252  1  0.24572637  0.21474059  0.86846039  1
  C  C253  1  0.25175632  0.54418430  0.87035698  1
  C  C254  1  0.25039653  0.87845372  0.86603796  1
  C  C255  1  0.74403572  0.21324161  0.86690747  1
  C  C256  1  0.75023216  0.54629593  0.87121361  1
  C  C257  1  0.75308174  0.87883107  0.86711094  1
  C  C258  1  0.24963309  0.11883445  0.36784800  1
  C  C259  1  0.24702321  0.45330724  0.36803936  1
  C  C260  1  0.24846945  0.78967563  0.36889579  1
  C  C261  1  0.74990172  0.11987542  0.36627211  1
  C  C262  1  0.74415738  0.45547173  0.36789419  1
  C  C263  1  0.75097512  0.78566226  0.37184902  1
  C  C264  1  0.55199828  0.59489435  0.45870091  1
  C  C265  1  0.47874479  0.26181471  0.03944607  1
  C  C266  1  0.05123413  0.07057445  0.54084190  1
  C  C267  1  0.51832953  0.07295089  0.53142680  1
  C  C268  1  0.06478888  0.40516176  0.54355025  1
  C  C269  1  0.69712557  0.90441719  0.95618742  1
  C  C270  1  0.77093793  0.24040231  0.53580320  1
  C  C271  1  0.05296505  0.40304588  0.95811520  1
  C  C272  1  0.96215097  0.92677261  0.46092647  1
  C  C273  1  0.28853384  0.91079137  0.53750725  1
  C  C274  1  0.95543183  0.59249279  0.46319770  1
  C  C275  1  0.72962381  0.75477965  0.46852545  1
  C  C276  1  0.01941290  0.92343566  0.03958643  1
  C  C277  1  0.73077918  0.90674477  0.53930046  1
  C  C278  1  0.29916352  0.09130050  0.45724232  1
  C  C279  1  0.69731763  0.43111451  0.04203220  1
  C  C280  1  0.96156146  0.26266631  0.45793472  1
  C  C281  1  0.42699246  0.73951837  0.95474364  1
  C  C282  1  0.77565783  0.09224805  0.46109529  1
  C  C283  1  0.26993892  0.42612203  0.46438416  1
  C  C284  1  0.43903306  0.06911448  0.54185322  1
  C  C285  1  0.77438433  0.24045262  0.96295324  1
  C  C286  1  0.44265490  0.93278304  0.45928815  1
  C  C287  1  0.94158725  0.73698417  0.95802278  1
  C  C288  1  0.26429856  0.57397022  0.53709111  1
  C  C289  1  0.02255459  0.73873461  0.96548280  1
  C  C290  1  0.98429536  0.40899900  0.53288156  1
  C  C291  1  0.97179263  0.40485260  0.96448202  1
  C  C292  1  0.47176588  0.92312176  0.03405033  1
  C  C293  1  0.69321764  0.23876475  0.95722551  1
  C  C294  1  0.52603530  0.41244603  0.96482173  1
  C  C295  1  0.52379856  0.93055643  0.46596303  1
  C  C296  1  0.23400089  0.09231183  0.03756949  1
  C  C297  1  0.77834315  0.90569885  0.96426524  1
  C  C298  1  0.55278580  0.59338985  0.04179158  1
  C  C299  1  0.47157795  0.59206303  0.03571275  1
  C  C300  1  0.94636591  0.73992509  0.54175034  1
  C  C301  1  0.55281570  0.92632889  0.04053428  1
  C  C302  1  0.23248691  0.42449261  0.02893458  1
  C  C303  1  0.95822745  0.07272342  0.95704433  1
  C  C304  1  0.31247745  0.42821774  0.04004180  1
  C  C305  1  0.77819532  0.42850703  0.03466296  1
  C  C306  1  0.80870573  0.57309580  0.95760296  1
  C  C307  1  0.19759446  0.57402472  0.95919256  1
  C  C308  1  0.97013129  0.07237668  0.53521880  1
  C  C309  1  0.22572564  0.75463481  0.03414442  1
  C  C310  1  0.22606738  0.90471149  0.96137628  1
  C  C311  1  0.47073792  0.59350977  0.46377536  1
  N  N312  1  0.79702401  0.57346638  0.54198814  1
  N  N313  1  0.73512880  0.75790016  0.03901106  1
  N  N314  1  0.03478888  0.59161864  0.46461992  1
  N  N315  1  0.20470102  0.23446400  0.54013477  1
  N  N316  1  0.78758503  0.42827306  0.46035910  1
  N  N317  1  0.70919442  0.42797005  0.45928035  1
  N  N318  1  0.45812480  0.73901385  0.53918469  1
  N  N319  1  0.94525147  0.59537670  0.04143678  1
  N  N320  1  0.81185313  0.76223119  0.04777092  1
  N  N321  1  0.45997146  0.07913357  0.96225338  1
  N  N322  1  0.55050542  0.40738345  0.54290686  1
  N  N323  1  0.80937178  0.90477001  0.54690514  1
  N  N324  1  0.73233918  0.57622729  0.96870178  1
  N  N325  1  0.18600177  0.57169645  0.54638797  1
  N  N326  1  0.53622669  0.73866479  0.53666300  1
  N  N327  1  0.56535417  0.25926807  0.45377738  1
  N  N328  1  0.71929853  0.57491603  0.53416087  1
  N  N329  1  0.98169613  0.25984058  0.03796290  1
  N  N330  1  0.19106301  0.42712558  0.45541681  1
  N  N331  1  0.69668724  0.09321404  0.45651931  1
  N  N332  1  0.80745586  0.75907123  0.45876521  1
  N  N333  1  0.21117108  0.91021442  0.53711675  1
  N  N334  1  0.47387726  0.40734535  0.53943020  1
  N  N335  1  0.50476044  0.74337089  0.96544147  1
  N  N336  1  0.04132083  0.92714591  0.46107876  1
  N  N337  1  0.31200660  0.09271757  0.04833567  1
  N  N338  1  0.02249019  0.59308472  0.03161286  1
  N  N339  1  0.53802472  0.06645551  0.96679241  1
  N  N340  1  0.55786529  0.26238938  0.04341729  1
  N  N341  1  0.30008589  0.76167267  0.45833936  1
  N  N342  1  0.94090558  0.92785866  0.04705062  1
  N  N343  1  0.22179710  0.75886398  0.46099440  1
  N  N344  1  0.22030011  0.09116305  0.46430410  1
  N  N345  1  0.69234311  0.23792702  0.54465701  1
  N  N346  1  0.27628075  0.57484164  0.96389287  1
  N  N347  1  0.30399265  0.75871171  0.04005756  1
  N  N348  1  0.48873370  0.25434611  0.46373377  1
  N  N349  1  0.44929994  0.40967019  0.95782819  1
  N  N350  1  0.28784602  0.23174376  0.54076609  1
  N  N351  1  0.02368174  0.74230199  0.53545404  1
  N  N352  1  0.30496519  0.90544413  0.95563206  1
  N  N353  1  0.05928374  0.26181130  0.04214190  1
  N  N354  1  0.03785817  0.07549045  0.95695483  1
  N  N355  1  0.19034621  0.24112235  0.95720943  1
  N  N356  1  0.26796911  0.24228685  0.96214354  1
  N  N357  1  0.76357373  0.09674718  0.03454639  1
  N  N358  1  0.68688607  0.09951927  0.04512947  1
  N  N359  1  0.04143481  0.26231015  0.45985136  1
  N  N360  1  0.06918047  0.05450276  0.59872362  1
  N  N361  1  0.07508172  0.38852624  0.60298379  1
  N  N362  1  0.05403094  0.72562505  0.59320679  1
  N  N363  1  0.55747454  0.05898807  0.58383682  1
  N  N364  1  0.57088529  0.39050398  0.60184221  1
  N  N365  1  0.55909606  0.72203337  0.59362247  1
  N  N366  1  0.44519760  0.27782133  0.09477962  1
  N  N367  1  0.44017082  0.60842221  0.09306357  1
  N  N368  1  0.43717067  0.93898898  0.08763992  1
  N  N369  1  0.94682060  0.27842213  0.09083386  1
  N  N370  1  0.93064735  0.61200797  0.09995310  1
  N  N371  1  0.93187160  0.94613792  0.10633766  1
  N  N372  1  0.43608879  0.05613864  0.90747809  1
  N  N373  1  0.43638110  0.38944063  0.89809902  1
  N  N374  1  0.41945794  0.72154146  0.89540861  1
  N  N375  1  0.93553960  0.05593278  0.89965282  1
  N  N376  1  0.93973660  0.38967163  0.90697551  1
  N  N377  1  0.92836773  0.72062222  0.89676809  1
  N  N378  1  0.06932688  0.28155967  0.40355983  1
  N  N379  1  0.06471979  0.61004342  0.40838839  1
  N  N380  1  0.06164223  0.94433961  0.40298743  1
  N  N381  1  0.57132235  0.27861757  0.39511773  1
  N  N382  1  0.57071388  0.61150172  0.40105911  1
  N  N383  1  0.55617523  0.94436206  0.40817954  1
  N  N384  1  0.30855069  0.22586532  0.60113003  1
  N  N385  1  0.30446775  0.55871778  0.59015320  1
  N  N386  1  0.31765001  0.89280159  0.59315883  1
  N  N387  1  0.80564392  0.22478121  0.59014230  1
  N  N388  1  0.81528693  0.55512405  0.59926863  1
  N  N389  1  0.81936972  0.88746299  0.60655406  1
  N  N390  1  0.19274211  0.10868904  0.08967019  1
  N  N391  1  0.19338755  0.43952018  0.08086057  1
  N  N392  1  0.19466194  0.77211421  0.08894642  1
  N  N393  1  0.68113285  0.11441052  0.10486844  1
  N  N394  1  0.68197613  0.44697581  0.10048076  1
  N  N395  1  0.69529919  0.77743443  0.08924859  1
  N  N396  1  0.17703225  0.22424845  0.89856067  1
  N  N397  1  0.18230497  0.55574238  0.90110867  1
  N  N398  1  0.19092368  0.88853191  0.90673429  1
  N  N399  1  0.67517695  0.22265036  0.89931317  1
  N  N400  1  0.69576018  0.55896975  0.91366854  1
  N  N401  1  0.68261673  0.88864534  0.89729005  1
  N  N402  1  0.31824891  0.10809367  0.39828422  1
  N  N403  1  0.30527910  0.44185259  0.41015114  1
  N  N404  1  0.31567219  0.77869820  0.40023264  1
  N  N405  1  0.81014207  0.10858171  0.40607083  1
  N  N406  1  0.80847585  0.44413676  0.40264797  1
  N  N407  1  0.82105210  0.77863984  0.39936058  1
  N  N408  1  0.44689451  0.27500497  0.41478880  1
  N  N409  1  0.44079729  0.61009410  0.40602132  1
  N  N410  1  0.42654537  0.94709938  0.40036367  1
  N  N411  1  0.94035019  0.27656021  0.39941380  1
  N  N412  1  0.93597027  0.61031104  0.40556965  1
  N  N413  1  0.93350311  0.94289449  0.40391457  1
  N  N414  1  0.06471787  0.05505604  0.90133838  1
  N  N415  1  0.06956186  0.38777198  0.89966350  1
  N  N416  1  0.05686856  0.72371687  0.91174276  1
  N  N417  1  0.56368133  0.05711839  0.90816659  1
  N  N418  1  0.56309257  0.39417290  0.91231022  1
  N  N419  1  0.54599085  0.72382928  0.91427182  1
  N  N420  1  0.07340869  0.27899064  0.10049242  1
  N  N421  1  0.05620115  0.60903204  0.08557434  1
  N  N422  1  0.05828293  0.93961602  0.09272258  1
  N  N423  1  0.57290893  0.27970392  0.10228015  1
  N  N424  1  0.57004544  0.60960295  0.09981549  1
  N  N425  1  0.56587767  0.94464037  0.10131513  1
  N  N426  1  0.42962560  0.05321217  0.60153001  1
  N  N427  1  0.44460781  0.39111008  0.59621930  1
  N  N428  1  0.43194431  0.72398956  0.59587973  1
  N  N429  1  0.93930763  0.05659537  0.59305242  1
  N  N430  1  0.94637516  0.39350282  0.58830358  1
  N  N431  1  0.92635035  0.72301545  0.60056543  1
  N  N432  1  0.19090814  0.10794297  0.40770583  1
  N  N433  1  0.17763317  0.44356830  0.39602465  1
  N  N434  1  0.18896404  0.77811051  0.40761108  1
  N  N435  1  0.68259969  0.11003794  0.39736157  1
  N  N436  1  0.68127645  0.44579686  0.40401593  1
  N  N437  1  0.69421143  0.77160390  0.41484861  1
  N  N438  1  0.30358167  0.22617981  0.90871808  1
  N  N439  1  0.31089595  0.55468104  0.90985891  1
  N  N440  1  0.31818804  0.88920405  0.89630857  1
  N  N441  1  0.80507890  0.22420311  0.90534291  1
  N  N442  1  0.82215108  0.55550001  0.89787685  1
  N  N443  1  0.81200255  0.88969794  0.90737008  1
  N  N444  1  0.31832888  0.11027780  0.10842776  1
  N  N445  1  0.32057984  0.44550144  0.10131863  1
  N  N446  1  0.32243919  0.77898196  0.09854706  1
  N  N447  1  0.80560468  0.10851053  0.08659907  1
  N  N448  1  0.81142488  0.44375007  0.09176573  1
  N  N449  1  0.82025729  0.77934014  0.10660156  1
  N  N450  1  0.18160597  0.21356420  0.59684968  1
  N  N451  1  0.17839551  0.55496812  0.60668182  1
  N  N452  1  0.18931627  0.89088867  0.59574512  1
  N  N453  1  0.67803762  0.21983183  0.60353802  1
  N  N454  1  0.68878955  0.55873318  0.58938494  1
  N  N455  1  0.69279601  0.89093656  0.59283758  1
  Cl  Cl456  1  0.24921330  0.04997058  0.62715503  1
  Cl  Cl457  1  0.26115151  0.38191703  0.60803116  1
  Cl  Cl458  1  0.24388184  0.72526208  0.61042502  1
  Cl  Cl459  1  0.75030390  0.05656287  0.61626392  1
  Cl  Cl460  1  0.75491688  0.38797349  0.61482428  1
  Cl  Cl461  1  0.74320449  0.71960837  0.62042093  1
  Cl  Cl462  1  0.26065006  0.27884629  0.11380381  1
  Cl  Cl463  1  0.24908167  0.60904843  0.10556599  1
  Cl  Cl464  1  0.24523186  0.94171515  0.10690008  1
  Cl  Cl465  1  0.76323083  0.27856002  0.11360699  1
  Cl  Cl466  1  0.75210691  0.61697468  0.12310654  1
  Cl  Cl467  1  0.74985982  0.95154365  0.12437329  1
  Cl  Cl468  1  0.24957147  0.05885055  0.89086508  1
  Cl  Cl469  1  0.25231718  0.38407568  0.87530476  1
  Cl  Cl470  1  0.23941501  0.71803619  0.88279450  1
  Cl  Cl471  1  0.75061574  0.05642630  0.89264848  1
  Cl  Cl472  1  0.74942324  0.38882084  0.88455124  1
  Cl  Cl473  1  0.72826018  0.72978099  0.89813323  1
  Cl  Cl474  1  0.25852248  0.27259337  0.39803471  1
  Cl  Cl475  1  0.25232419  0.61078899  0.38249625  1
  Cl  Cl476  1  0.24478282  0.94661175  0.37259476  1
  Cl  Cl477  1  0.75724334  0.27922699  0.38369445  1
  Cl  Cl478  1  0.75524692  0.61708211  0.38701834  1
  Cl  Cl479  1  0.74469194  0.94248048  0.39078317  1
  Cl  Cl480  1  -0.00377900  0.22706998  0.60717690  1
  Cl  Cl481  1  -0.00513912  0.55835327  0.61310388  1
  Cl  Cl482  1  0.00315923  0.88686749  0.62245353  1
  Cl  Cl483  1  0.49109826  0.22251900  0.60568643  1
  Cl  Cl484  1  0.49452694  0.55812146  0.61527069  1
  Cl  Cl485  1  0.50618709  0.88798409  0.61134429  1
  Cl  Cl486  1  -0.00062059  0.10741287  0.09923158  1
  Cl  Cl487  1  0.00245538  0.44434980  0.11032396  1
  Cl  Cl488  1  0.00912935  0.77828143  0.11573356  1
  Cl  Cl489  1  0.50086613  0.10983961  0.11170814  1
  Cl  Cl490  1  0.50333904  0.44922174  0.12428965  1
  Cl  Cl491  1  0.51219862  0.77256241  0.10367194  1
  Cl  Cl492  1  -0.01002095  0.22318820  0.88546780  1
  Cl  Cl493  1  0.00212675  0.55034957  0.87828274  1
  Cl  Cl494  1  0.00529620  0.88777399  0.88967654  1
  Cl  Cl495  1  0.48674245  0.22070624  0.88432874  1
  Cl  Cl496  1  0.49943669  0.55609982  0.88728330  1
  Cl  Cl497  1  0.50127058  0.88277583  0.87753933  1
  Cl  Cl498  1  -0.00180676  0.11265446  0.38039889  1
  Cl  Cl499  1  -0.00753984  0.45019279  0.38014409  1
  Cl  Cl500  1  0.00523564  0.77568969  0.38083656  1
  Cl  Cl501  1  0.49977391  0.11666846  0.37623031  1
  Cl  Cl502  1  0.49535243  0.44879607  0.38781572  1
  Cl  Cl503  1  0.50158056  0.77851182  0.38338540  1
  Cl  Cl504  1  0.36014260  0.14589640  0.74724669  1
  Cl  Cl505  1  0.35715284  0.48241295  0.75052849  1
  Cl  Cl506  1  0.36215603  0.81166205  0.75503525  1
  Cl  Cl507  1  0.85648446  0.14984216  0.75040218  1
  Cl  Cl508  1  0.86393475  0.47901990  0.74833471  1
  Cl  Cl509  1  0.86201074  0.81129338  0.74737400  1
  Cl  Cl510  1  0.14274751  0.18716738  0.25332841  1
  Cl  Cl511  1  0.14283433  0.51897956  0.25244731  1
  Cl  Cl512  1  0.14477926  0.85005471  0.24717389  1
  Cl  Cl513  1  0.63804562  0.18802768  0.24681586  1
  Cl  Cl514  1  0.63950762  0.52176315  0.24801142  1
  Cl  Cl515  1  0.64715411  0.85202441  0.25121253  1
  Cl  Cl516  1  0.14122862  0.14564368  0.75578209  1
  Cl  Cl517  1  0.13421933  0.47743009  0.74378270  1
  Cl  Cl518  1  0.14188360  0.81445007  0.74597464  1
  Cl  Cl519  1  0.63519192  0.14735117  0.75037579  1
  Cl  Cl520  1  0.64534095  0.48123836  0.74720048  1
  Cl  Cl521  1  0.64237402  0.81357654  0.75177530  1
  Cl  Cl522  1  0.36093277  0.18778257  0.24480692  1
  Cl  Cl523  1  0.35987711  0.51716679  0.24443112  1
  Cl  Cl524  1  0.36463131  0.85293144  0.24604643  1
  Cl  Cl525  1  0.85940770  0.18448642  0.25068613  1
  Cl  Cl526  1  0.85893852  0.51755993  0.25193788  1
  Cl  Cl527  1  0.86815537  0.85552844  0.24715748  1
  Cl  Cl528  1  0.11703815  0.30973126  0.74494763  1
  Cl  Cl529  1  0.11091510  0.64557574  0.74679343  1
  Cl  Cl530  1  0.10778456  0.98133251  0.75060666  1
  Cl  Cl531  1  0.60837954  0.31318487  0.75137596  1
  Cl  Cl532  1  0.60813954  0.64938655  0.74816357  1
  Cl  Cl533  1  0.61235041  0.97967542  0.75531922  1
  Cl  Cl534  1  0.38965853  0.02014062  0.24794848  1
  Cl  Cl535  1  0.39205869  0.35250512  0.25290180  1
  Cl  Cl536  1  0.39491938  0.68785375  0.24733312  1
  Cl  Cl537  1  0.89168183  0.02289100  0.24568535  1
  Cl  Cl538  1  0.89207691  0.35098273  0.25446146  1
  Cl  Cl539  1  0.89071369  0.68726439  0.24879229  1
  Cl  Cl540  1  0.38663935  0.31383230  0.74949389  1
  Cl  Cl541  1  0.39032757  0.64594553  0.75419167  1
  Cl  Cl542  1  0.39453540  0.98075334  0.75157012  1
  Cl  Cl543  1  0.89542961  0.31465521  0.74766373  1
  Cl  Cl544  1  0.88971155  0.64614837  0.75671631  1
  Cl  Cl545  1  0.88745921  0.98069495  0.75215337  1
  Cl  Cl546  1  0.11189195  0.01953227  0.24873032  1
  Cl  Cl547  1  0.11077546  0.35269421  0.25158599  1
  Cl  Cl548  1  0.10942950  0.68187907  0.24892271  1
  Cl  Cl549  1  0.61210466  0.01987431  0.24555357  1
  Cl  Cl550  1  0.61342580  0.35412826  0.25508616  1
  Cl  Cl551  1  0.61426842  0.68643715  0.25106355  1
