# generated using pymatgen
data_H8PbC4(N3Cl2)2
_symmetry_space_group_name_H-M   'P 1'
_cell_length_a   16.62180410
_cell_length_b   22.50154536
_cell_length_c   21.58795466
_cell_angle_alpha   90.00021219
_cell_angle_beta   90.01165531
_cell_angle_gamma   90.00381773
_symmetry_Int_Tables_number   1
_chemical_formula_structural   H8PbC4(N3Cl2)2
_chemical_formula_sum   'H192 Pb24 C96 N144 Cl96'
_cell_volume   8074.24628337
_cell_formula_units_Z   24
loop_
 _symmetry_equiv_pos_site_id
 _symmetry_equiv_pos_as_xyz
  1  'x, y, z'
loop_
 _atom_site_type_symbol
 _atom_site_label
 _atom_site_symmetry_multiplicity
 _atom_site_fract_x
 _atom_site_fract_y
 _atom_site_fract_z
 _atom_site_occupancy
  H  H0  1  -0.00774440  0.03088145  0.68224314  1
  H  H1  1  -0.00455924  0.36646037  0.68157700  1
  H  H2  1  0.00828283  0.69822256  0.68073979  1
  H  H3  1  0.50789228  0.03200803  0.67855460  1
  H  H4  1  0.50571442  0.36493614  0.68168914  1
  H  H5  1  0.49566621  0.69894540  0.68108139  1
  H  H6  1  0.00340727  0.29998824  0.18050698  1
  H  H7  1  0.00711100  0.63528361  0.18023530  1
  H  H8  1  0.00282593  0.96903054  0.17959511  1
  H  H9  1  0.50322603  0.29976207  0.17857811  1
  H  H10  1  0.48642469  0.63131559  0.17454950  1
  H  H11  1  0.50661736  0.96760365  0.17756539  1
  H  H12  1  -0.00771626  0.03054479  0.82251686  1
  H  H13  1  -0.00968562  0.36560471  0.81919746  1
  H  H14  1  -0.00222720  0.69934844  0.81706161  1
  H  H15  1  0.50892483  0.03187021  0.82073207  1
  H  H16  1  0.50957259  0.36464998  0.82089388  1
  H  H17  1  0.49875249  0.69833563  0.82268445  1
  H  H18  1  0.00587476  0.30168962  0.32158073  1
  H  H19  1  0.00100023  0.63585409  0.31886651  1
  H  H20  1  0.00100976  0.96709992  0.31797926  1
  H  H21  1  0.50064774  0.30056865  0.31882845  1
  H  H22  1  0.50735633  0.63330202  0.32186847  1
  H  H23  1  0.49470041  0.96629773  0.31815003  1
  H  H24  1  0.24888938  0.20030353  0.68068001  1
  H  H25  1  0.25304021  0.53137727  0.68279232  1
  H  H26  1  0.25658864  0.86466100  0.67960119  1
  H  H27  1  0.74956245  0.19950057  0.67876051  1
  H  H28  1  0.74316571  0.53454581  0.67811603  1
  H  H29  1  0.74682073  0.86432004  0.68119581  1
  H  H30  1  0.25275990  0.13281058  0.17978149  1
  H  H31  1  0.25103318  0.46842420  0.18043885  1
  H  H32  1  0.24824105  0.80288796  0.18196008  1
  H  H33  1  0.74876100  0.13374338  0.18031006  1
  H  H34  1  0.74802240  0.46921863  0.18144166  1
  H  H35  1  0.75551036  0.80135563  0.18001299  1
  H  H36  1  0.24725099  0.19905615  0.82046273  1
  H  H37  1  0.24489353  0.53095535  0.82109141  1
  H  H38  1  0.24815419  0.86438614  0.81925321  1
  H  H39  1  0.74642248  0.19878686  0.82210075  1
  H  H40  1  0.75717317  0.53305782  0.82204328  1
  H  H41  1  0.74438877  0.86682161  0.82154873  1
  H  H42  1  0.24260686  0.13467600  0.32176235  1
  H  H43  1  0.25725093  0.46822280  0.31758051  1
  H  H44  1  0.25302165  0.80161966  0.32076557  1
  H  H45  1  0.75618218  0.13562205  0.31807040  1
  H  H46  1  0.74825671  0.47045644  0.31884862  1
  H  H47  1  0.74417443  0.80134915  0.32230085  1
  H  H48  1  0.12179056  0.05445925  0.61581866  1
  H  H49  1  0.12923703  0.38358071  0.61980582  1
  H  H50  1  0.12231039  0.72482212  0.60047117  1
  H  H51  1  0.61544881  0.05927631  0.59538770  1
  H  H52  1  0.62659165  0.38835282  0.60910135  1
  H  H53  1  0.62797945  0.71740326  0.61500727  1
  H  H54  1  0.36832688  0.28116888  0.11824599  1
  H  H55  1  0.38339534  0.60697166  0.09029440  1
  H  H56  1  0.37350008  0.94914994  0.11693812  1
  H  H57  1  0.86668130  0.28064490  0.12078462  1
  H  H58  1  0.87225897  0.61543976  0.12043181  1
  H  H59  1  0.87169737  0.94718761  0.11566816  1
  H  H60  1  0.37769207  0.05216319  0.88625317  1
  H  H61  1  0.37378642  0.38477440  0.87911177  1
  H  H62  1  0.37997359  0.72188232  0.89824267  1
  H  H63  1  0.88478401  0.05952175  0.90430047  1
  H  H64  1  0.87831224  0.39187523  0.90075994  1
  H  H65  1  0.88050581  0.72160523  0.89260541  1
  H  H66  1  0.11935196  0.27659844  0.40170723  1
  H  H67  1  0.12164661  0.61380722  0.39141650  1
  H  H68  1  0.12700408  0.94600745  0.38615972  1
  H  H69  1  0.62495413  0.27808407  0.39127990  1
  H  H70  1  0.62147388  0.61159697  0.39928832  1
  H  H71  1  0.62574602  0.94611891  0.38529356  1
  H  H72  1  0.37555081  0.22047484  0.60934622  1
  H  H73  1  0.37747689  0.55394192  0.61165440  1
  H  H74  1  0.37249976  0.89071223  0.60297951  1
  H  H75  1  0.87667756  0.22195046  0.61078471  1
  H  H76  1  0.87786617  0.55123171  0.61912097  1
  H  H77  1  0.87106686  0.88740401  0.60977029  1
  H  H78  1  0.11872664  0.11430455  0.11865149  1
  H  H79  1  0.12634061  0.44464584  0.10798036  1
  H  H80  1  0.12340702  0.77984759  0.10950821  1
  H  H81  1  0.61754207  0.11502611  0.11553811  1
  H  H82  1  0.62422670  0.44437629  0.10983234  1
  H  H83  1  0.61857990  0.78261320  0.12081602  1
  H  H84  1  0.13614722  0.22304280  0.90106096  1
  H  H85  1  0.13156529  0.55641034  0.90211509  1
  H  H86  1  0.12771435  0.88863579  0.89415364  1
  H  H87  1  0.63407646  0.22261059  0.90325935  1
  H  H88  1  0.62406738  0.55213747  0.88449507  1
  H  H89  1  0.62596287  0.88916791  0.89714091  1
  H  H90  1  0.37977016  0.11652280  0.38016190  1
  H  H91  1  0.37008459  0.44535131  0.39803883  1
  H  H92  1  0.37114436  0.77658438  0.39694412  1
  H  H93  1  0.87645069  0.10985348  0.39284638  1
  H  H94  1  0.87381896  0.44642770  0.38676275  1
  H  H95  1  0.87477891  0.77965883  0.38673328  1
  H  H96  1  0.37637539  0.27833346  0.39008054  1
  H  H97  1  0.37384817  0.61567996  0.38176829  1
  H  H98  1  0.37750091  0.94384067  0.39674765  1
  H  H99  1  0.87216393  0.28102435  0.38227138  1
  H  H100  1  0.87231329  0.61565382  0.38454607  1
  H  H101  1  0.87730558  0.94543916  0.38835287  1
  H  H102  1  0.13036308  0.04854850  0.87929796  1
  H  H103  1  0.12520110  0.38453756  0.88051161  1
  H  H104  1  0.12961338  0.71894164  0.87944422  1
  H  H105  1  0.62621972  0.05486055  0.89757901  1
  H  H106  1  0.62088360  0.39038570  0.90233882  1
  H  H107  1  0.62881685  0.71908918  0.88721708  1
  H  H108  1  0.11494017  0.27631140  0.10033397  1
  H  H109  1  0.12073477  0.60829108  0.10072478  1
  H  H110  1  0.12035109  0.94444370  0.10244246  1
  H  H111  1  0.61568183  0.27517578  0.09772179  1
  H  H112  1  0.62739494  0.61728001  0.12369505  1
  H  H113  1  0.62131986  0.94562525  0.10064216  1
  H  H114  1  0.36949116  0.05014855  0.62310058  1
  H  H115  1  0.37644823  0.38705912  0.61396692  1
  H  H116  1  0.37922274  0.72268213  0.60321224  1
  H  H117  1  0.87206627  0.05492993  0.60851413  1
  H  H118  1  0.88105525  0.38853086  0.60470855  1
  H  H119  1  0.87496581  0.71777873  0.61560404  1
  H  H120  1  0.13382334  0.10820258  0.40407631  1
  H  H121  1  0.12211953  0.44632218  0.37904293  1
  H  H122  1  0.12224230  0.78019093  0.38463687  1
  H  H123  1  0.62744670  0.11368502  0.38340456  1
  H  H124  1  0.62412652  0.44658566  0.39092746  1
  H  H125  1  0.62634478  0.77530267  0.39718696  1
  H  H126  1  0.38428067  0.21798356  0.87998430  1
  H  H127  1  0.37871601  0.55142454  0.88321158  1
  H  H128  1  0.37685520  0.88528830  0.88657002  1
  H  H129  1  0.88138654  0.21939453  0.88165708  1
  H  H130  1  0.87172657  0.55802519  0.89990080  1
  H  H131  1  0.87476932  0.88593977  0.88413941  1
  H  H132  1  0.36735977  0.10982908  0.10299968  1
  H  H133  1  0.37486635  0.44573890  0.10682163  1
  H  H134  1  0.37206247  0.77968696  0.10865331  1
  H  H135  1  0.86685090  0.11139818  0.10666181  1
  H  H136  1  0.87408955  0.44681350  0.11302172  1
  H  H137  1  0.86627128  0.77758420  0.09892722  1
  H  H138  1  0.12668402  0.22228508  0.60751805  1
  H  H139  1  0.12824605  0.55287292  0.61119514  1
  H  H140  1  0.12411047  0.88544316  0.61521658  1
  H  H141  1  0.62749239  0.22158325  0.60642075  1
  H  H142  1  0.63049419  0.55648663  0.59954096  1
  H  H143  1  0.62230627  0.88768479  0.60925016  1
  H  H144  1  0.07854908  0.07327087  0.50724228  1
  H  H145  1  0.83426323  0.25036410  0.50458578  1
  H  H146  1  0.05539484  0.58723237  -0.00280852  1
  H  H147  1  0.35539112  0.08312524  0.48760262  1
  H  H148  1  0.10983386  0.08152884  0.98767276  1
  H  H149  1  0.90499808  0.58511933  0.49574832  1
  H  H150  1  0.84292440  0.91604864  0.99795677  1
  H  H151  1  0.57173178  0.40999972  0.49632584  1
  H  H152  1  0.44131171  0.74760309  0.49538138  1
  H  H153  1  0.67339566  0.91438388  0.50499503  1
  H  H154  1  0.66692895  0.08613036  0.49623468  1
  H  H155  1  0.04986526  0.25233823  -0.00755833  1
  H  H156  1  0.35865379  0.24711434  0.98884600  1
  H  H157  1  0.30195729  0.42001257  0.50514283  1
  H  H158  1  0.83593696  0.74889695  0.49325738  1
  H  H159  1  0.33815113  0.91646400  0.99602218  1
  H  H160  1  0.92253233  0.91568851  0.49829843  1
  H  H161  1  0.81826265  0.09531500  0.50008871  1
  H  H162  1  0.81205379  0.08411757  -0.00466725  1
  H  H163  1  0.93597085  0.74985069  1.00180298  1
  H  H164  1  0.43752368  0.75068574  1.00178574  1
  H  H165  1  0.89257165  0.25327307  0.01137285  1
  H  H166  1  0.57385330  0.24966488  0.49493583  1
  H  H167  1  0.32528499  0.24868937  0.50492622  1
  H  H168  1  0.20119766  0.58002295  1.00399688  1
  H  H169  1  0.09775824  0.74880707  0.99174008  1
  H  H170  1  0.08618689  0.91611771  0.49682251  1
  H  H171  1  0.64354871  0.75428057  0.01256454  1
  H  H172  1  0.30978773  0.75104526  0.50153508  1
  H  H173  1  0.20813541  0.09591575  0.50663911  1
  H  H174  1  0.07273702  0.58463295  0.50081498  1
  H  H175  1  0.94915522  0.41589545  1.00229455  1
  H  H176  1  0.82886451  0.41954794  0.00093815  1
  H  H177  1  0.82783660  0.42408043  0.50057825  1
  H  H178  1  0.94154760  0.41386367  0.49392530  1
  H  H179  1  0.65219052  0.58325721  0.99268654  1
  H  H180  1  0.89962155  0.58568393  0.00802418  1
  H  H181  1  0.67916547  0.43833498  0.49916937  1
  H  H182  1  0.31040677  0.08139145  -0.00506954  1
  H  H183  1  0.92849962  0.07393848  0.49607447  1
  H  H184  1  0.79998311  0.75204601  -0.00812508  1
  H  H185  1  0.67667933  0.42336799  0.00271239  1
  H  H186  1  0.95936843  0.07190573  1.00608348  1
  H  H187  1  0.54997091  0.41426429  1.00508512  1
  H  H188  1  0.20190143  0.25018313  1.00786924  1
  H  H189  1  0.33188479  0.58350281  0.50319134  1
  H  H190  1  0.54210406  0.08145012  0.49363067  1
  H  H191  1  0.42028263  0.41195417  0.50698507  1
  Pb  Pb192  1  0.25015468  0.04570518  0.74539143  1
  Pb  Pb193  1  0.25307865  0.37850699  0.74721175  1
  Pb  Pb194  1  0.25592341  0.71496900  0.74290481  1
  Pb  Pb195  1  0.75238208  0.04731181  0.74893262  1
  Pb  Pb196  1  0.74830961  0.38374491  0.75105341  1
  Pb  Pb197  1  0.75176520  0.71256610  0.75098587  1
  Pb  Pb198  1  0.24895074  0.28602951  0.25134474  1
  Pb  Pb199  1  0.24417246  0.61872164  0.24423258  1
  Pb  Pb200  1  0.25207277  0.95284965  0.24978549  1
  Pb  Pb201  1  0.74738483  0.28652892  0.25218389  1
  Pb  Pb202  1  0.74976176  0.62094192  0.25004321  1
  Pb  Pb203  1  0.74490305  0.95159595  0.25046455  1
  Pb  Pb204  1  0.00121558  0.21533177  0.75233286  1
  Pb  Pb205  1  0.00617303  0.54794563  0.75578988  1
  Pb  Pb206  1  0.00088037  0.87903717  0.74937624  1
  Pb  Pb207  1  0.50237280  0.21120089  0.74727664  1
  Pb  Pb208  1  0.49996622  0.54726827  0.74783439  1
  Pb  Pb209  1  0.50219132  0.88053250  0.74960697  1
  Pb  Pb210  1  -0.00060809  0.11701255  0.25332532  1
  Pb  Pb211  1  -0.00192824  0.45141177  0.24557717  1
  Pb  Pb212  1  -0.00169190  0.78880708  0.24441211  1
  Pb  Pb213  1  0.49892028  0.12079199  0.25172064  1
  Pb  Pb214  1  0.49793449  0.45395006  0.25045712  1
  Pb  Pb215  1  0.49449070  0.78362855  0.25137796  1
  C  C216  1  -0.00400484  0.04635037  0.63461443  1
  C  C217  1  0.00180066  0.37963878  0.63360402  1
  C  C218  1  0.00194584  0.71295788  0.63308597  1
  C  C219  1  0.49782083  0.04631704  0.63116011  1
  C  C220  1  0.50234369  0.37998842  0.63388064  1
  C  C221  1  0.50114855  0.71271357  0.63307680  1
  C  C222  1  -0.00570636  0.28539433  0.13292643  1
  C  C223  1  0.00033298  0.62024867  0.13258768  1
  C  C224  1  -0.00153601  0.95370085  0.13230612  1
  C  C225  1  0.49583083  0.28560530  0.13107498  1
  C  C226  1  0.49949559  0.61835176  0.12721922  1
  C  C227  1  0.50025703  0.95372363  0.12971708  1
  C  C228  1  0.00261675  0.04591530  0.86967671  1
  C  C229  1  -0.00246566  0.38049236  0.86669997  1
  C  C230  1  0.00292125  0.71366163  0.86493620  1
  C  C231  1  0.50403754  0.04598865  0.86847217  1
  C  C232  1  0.50178205  0.37887459  0.86839149  1
  C  C233  1  0.50218326  0.71292981  0.87050196  1
  C  C234  1  -0.00075319  0.28656727  0.36884176  1
  C  C235  1  -0.00173736  0.62099482  0.36670869  1
  C  C236  1  0.00177497  0.95261988  0.36598770  1
  C  C237  1  0.50096376  0.28571042  0.36661189  1
  C  C238  1  0.50070599  0.61958050  0.36966550  1
  C  C239  1  0.49942487  0.95222294  0.36608685  1
  C  C240  1  0.25081905  0.21466880  0.63280093  1
  C  C241  1  0.25284951  0.54646597  0.63510371  1
  C  C242  1  0.25067041  0.88010123  0.63243928  1
  C  C243  1  0.75158638  0.21452994  0.63111941  1
  C  C244  1  0.75072060  0.54773244  0.63019749  1
  C  C245  1  0.74634583  0.87968383  0.63361434  1
  C  C246  1  0.24665989  0.11929252  0.13182034  1
  C  C247  1  0.25067197  0.45349017  0.13269883  1
  C  C248  1  0.24790212  0.78766213  0.13425857  1
  C  C249  1  0.74464930  0.12013331  0.13234290  1
  C  C250  1  0.74827558  0.45411300  0.13355053  1
  C  C251  1  0.74609492  0.78689859  0.13243504  1
  C  C252  1  0.25653905  0.21358634  0.86802034  1
  C  C253  1  0.25120254  0.54577373  0.86860168  1
  C  C254  1  0.25083479  0.87938516  0.86684625  1
  C  C255  1  0.75392036  0.21359833  0.86938119  1
  C  C256  1  0.75052591  0.54799446  0.86953800  1
  C  C257  1  0.74904985  0.88105720  0.86935796  1
  C  C258  1  0.25230522  0.11986780  0.36913913  1
  C  C259  1  0.24953380  0.45344323  0.36499986  1
  C  C260  1  0.24912019  0.78706891  0.36841354  1
  C  C261  1  0.75398153  0.12062465  0.36595030  1
  C  C262  1  0.74799288  0.45515513  0.36661931  1
  C  C263  1  0.74883381  0.78613157  0.36975226  1
  C  C264  1  0.79126868  0.42697474  0.04143867  1
  C  C265  1  0.97472446  0.40394013  0.53611773  1
  C  C266  1  0.97143150  0.73925663  0.96091900  1
  C  C267  1  0.55205593  0.73980828  0.96162767  1
  C  C268  1  0.01890394  0.26065413  0.03604356  1
  C  C269  1  0.52831701  0.92757425  0.03452885  1
  C  C270  1  0.53873228  0.40578742  0.53956795  1
  C  C271  1  0.44746612  0.59458824  0.45893354  1
  C  C272  1  0.27203652  0.42851157  0.46117144  1
  C  C273  1  0.27371781  0.09333517  0.03478193  1
  C  C274  1  0.43603478  0.07009277  0.54360947  1
  C  C275  1  0.19261245  0.09619289  0.04156903  1
  C  C276  1  0.56413387  0.59603245  0.04167647  1
  C  C277  1  0.94846336  0.26031646  0.45846556  1
  C  C278  1  0.95191675  0.92648908  0.04181661  1
  C  C279  1  0.71597609  0.90761810  0.96433397  1
  C  C280  1  0.94532790  0.59409162  0.04395670  1
  C  C281  1  0.70675724  0.09411034  0.45707278  1
  C  C282  1  0.53326776  0.07260518  0.96329487  1
  C  C283  1  0.05335755  0.73855913  0.95616543  1
  C  C284  1  0.77640472  0.09485939  0.03606625  1
  C  C285  1  0.29000820  0.57293975  0.54217787  1
  C  C286  1  0.79102844  0.42962459  0.45930975  1
  C  C287  1  0.19832701  0.75941424  0.45911940  1
  C  C288  1  0.77973202  0.57645486  0.96592557  1
  C  C289  1  0.23245121  0.23989595  0.96453777  1
  C  C290  1  0.47438119  0.73754609  0.53766664  1
  C  C291  1  0.04475719  0.92675778  0.45930671  1
  C  C292  1  0.29347406  0.90584994  0.95839191  1
  C  C293  1  0.69509163  0.09657697  0.04100260  1
  C  C294  1  0.48469950  0.59254509  0.03062453  1
  C  C295  1  0.96064113  0.07148758  0.53990448  1
  C  C296  1  0.96247393  0.92662487  0.46010995  1
  C  C297  1  0.79758273  0.90646801  0.96167555  1
  C  C298  1  0.80573131  0.23959434  0.95855569  1
  C  C299  1  0.95138927  0.59540219  0.45922845  1
  C  C300  1  0.80584472  0.57128889  0.54101126  1
  C  C301  1  0.44433180  0.26109511  0.04148698  1
  C  C302  1  0.05543410  0.40194888  0.54345345  1
  C  C303  1  0.44750009  0.92884587  0.04009656  1
  C  C304  1  0.72546012  0.57307218  0.53448806  1
  C  C305  1  0.71494305  0.75576137  0.46423218  1
  C  C306  1  0.27862457  0.91065240  0.53860433  1
  C  C307  1  0.03364779  0.59488982  0.46185865  1
  C  C308  1  0.52816416  0.59292173  0.46501704  1
  C  C309  1  0.44346344  0.40703907  0.95632458  1
  C  C310  1  0.76966221  0.76135020  0.03552364  1
  C  C311  1  0.71282405  0.24196420  0.53650697  1
  N  N312  1  0.23169614  0.08911003  0.46306438  1
  N  N313  1  0.30692116  0.57174235  0.95727805  1
  N  N314  1  0.46944495  0.92665776  0.46184923  1
  N  N315  1  0.52132866  0.25886676  0.03353105  1
  N  N316  1  0.93988574  0.26129958  0.04446233  1
  N  N317  1  0.55337099  0.73613563  0.54154703  1
  N  N318  1  0.71161678  0.42478073  0.04168495  1
  N  N319  1  0.04009859  0.07387104  0.54417089  1
  N  N320  1  0.98376422  0.07948687  0.96301375  1
  N  N321  1  0.54606685  0.92758620  0.45810060  1
  N  N322  1  0.28847429  0.23632425  0.54056106  1
  N  N323  1  0.45595256  0.07211470  0.96089616  1
  N  N324  1  0.22931541  0.57322147  0.96231929  1
  N  N325  1  0.02928600  0.92568252  0.03613061  1
  N  N326  1  0.47290585  0.74067568  0.96437952  1
  N  N327  1  0.71060492  0.90680015  0.54215386  1
  N  N328  1  0.21190477  0.42678734  0.03913239  1
  N  N329  1  0.45815086  0.26119369  0.46003198  1
  N  N330  1  0.02833802  0.73995108  0.53693108  1
  N  N331  1  0.02473515  0.59099611  0.03832603  1
  N  N332  1  0.70103888  0.57416730  0.95928171  1
  N  N333  1  0.45932187  0.40742710  0.54323662  1
  N  N334  1  0.51431735  0.07365334  0.53536248  1
  N  N335  1  0.19329668  0.42789869  0.45442075  1
  N  N336  1  0.79213293  0.24139035  0.53925527  1
  N  N337  1  0.78647066  0.09279021  0.45950051  1
  N  N338  1  0.31129352  0.23852686  0.95597124  1
  N  N339  1  0.30946442  0.09924993  0.45652287  1
  N  N340  1  0.28529819  0.76012989  0.04064538  1
  N  N341  1  0.97680947  0.40641310  0.96111226  1
  N  N342  1  0.20119368  0.90865076  0.54115859  1
  N  N343  1  0.21054275  0.57252827  0.54113568  1
  N  N344  1  0.52180439  0.40759937  0.96333453  1
  N  N345  1  0.28817920  0.42712457  0.03877641  1
  N  N346  1  0.27712340  0.75897215  0.46216863  1
  N  N347  1  0.79378300  0.75824179  0.45992222  1
  N  N348  1  0.53662450  0.26172347  0.45901367  1
  N  N349  1  0.71097694  0.42868067  0.45980101  1
  N  N350  1  0.21040088  0.23778399  0.53841668  1
  N  N351  1  0.20880267  0.76018254  0.04100304  1
  N  N352  1  0.06122848  0.06705216  0.95651100  1
  N  N353  1  0.95217596  0.73740307  0.54181358  1
  N  N354  1  0.78898557  0.90584331  0.54061316  1
  N  N355  1  0.05439520  0.40396953  0.95578957  1
  N  N356  1  0.72874576  0.24118019  0.96669878  1
  N  N357  1  0.02561433  0.25831326  0.46582436  1
  N  N358  1  0.21420670  0.90716904  0.96179179  1
  N  N359  1  0.69092231  0.76259441  0.04451970  1
  N  N360  1  0.06172648  0.05502653  0.60167253  1
  N  N361  1  0.07148550  0.38751542  0.60213817  1
  N  N362  1  0.06054923  0.72492735  0.59325755  1
  N  N363  1  0.55340896  0.05695928  0.58893804  1
  N  N364  1  0.56606330  0.39013450  0.59621257  1
  N  N365  1  0.56817637  0.72045637  0.60089029  1
  N  N366  1  0.42601290  0.27723341  0.10087214  1
  N  N367  1  0.44487655  0.60609096  0.08249874  1
  N  N368  1  0.43091715  0.94472792  0.09862822  1
  N  N369  1  0.92526397  0.27624853  0.10421632  1
  N  N370  1  0.93037647  0.61059388  0.10288563  1
  N  N371  1  0.93051180  0.94330798  0.10008940  1
  N  N372  1  0.43754366  0.05501089  0.90047446  1
  N  N373  1  0.43087335  0.38981272  0.89754664  1
  N  N374  1  0.44149727  0.72324930  0.90830665  1
  N  N375  1  0.94674772  0.05663530  0.91197948  1
  N  N376  1  0.94021513  0.39127184  0.90763794  1
  N  N377  1  0.94137355  0.72375235  0.90378263  1
  N  N378  1  0.05744939  0.27515066  0.40877693  1
  N  N379  1  0.06129342  0.61062133  0.40385884  1
  N  N380  1  0.06754175  0.94285255  0.40060324  1
  N  N381  1  0.56403060  0.27561045  0.40234363  1
  N  N382  1  0.56049885  0.60821577  0.41027622  1
  N  N383  1  0.56571779  0.94324228  0.39870788  1
  N  N384  1  0.31494167  0.22385178  0.59790471  1
  N  N385  1  0.31714590  0.55735528  0.59956325  1
  N  N386  1  0.31142921  0.89343652  0.59316709  1
  N  N387  1  0.81647273  0.22458861  0.59752861  1
  N  N388  1  0.82093229  0.55577041  0.59998265  1
  N  N389  1  0.81033927  0.89001521  0.59814788  1
  N  N390  1  0.17667550  0.11160216  0.10063091  1
  N  N391  1  0.18718156  0.44260365  0.09740010  1
  N  N392  1  0.18422441  0.77706346  0.09893459  1
  N  N393  1  0.67636397  0.11160272  0.09919770  1
  N  N394  1  0.68516220  0.44513828  0.09755688  1
  N  N395  1  0.67682089  0.77841157  0.10397031  1
  N  N396  1  0.19791125  0.22443915  0.91001153  1
  N  N397  1  0.19338930  0.55565393  0.90934132  1
  N  N398  1  0.18924743  0.89038698  0.90411320  1
  N  N399  1  0.69632885  0.22451489  0.90990337  1
  N  N400  1  0.68297824  0.55708946  0.89999125  1
  N  N401  1  0.68692191  0.89237679  0.90870041  1
  N  N402  1  0.32207006  0.10927469  0.39637027  1
  N  N403  1  0.30845362  0.44379236  0.40646698  1
  N  N404  1  0.30971580  0.77761430  0.40685787  1
  N  N405  1  0.81561503  0.11278723  0.40388889  1
  N  N406  1  0.81394761  0.44359463  0.40130951  1
  N  N407  1  0.81534436  0.77752801  0.40177512  1
  N  N408  1  0.43686487  0.27645114  0.40225974  1
  N  N409  1  0.43112122  0.61058110  0.40042952  1
  N  N410  1  0.43938309  0.94177567  0.40502808  1
  N  N411  1  0.92996469  0.27693362  0.39938251  1
  N  N412  1  0.93137490  0.61147557  0.39962812  1
  N  N413  1  0.93723678  0.94275074  0.40177295  1
  N  N414  1  0.07289791  0.05523039  0.89672454  1
  N  N415  1  0.06669702  0.38893129  0.89652087  1
  N  N416  1  0.07136784  0.72264781  0.89635173  1
  N  N417  1  0.56550785  0.05693185  0.90781703  1
  N  N418  1  0.55911584  0.38823293  0.90977951  1
  N  N419  1  0.57027325  0.72288795  0.90335802  1
  N  N420  1  0.05318851  0.27511108  0.09100754  1
  N  N421  1  0.05860046  0.61019965  0.09215962  1
  N  N422  1  0.05845099  0.94293471  0.09385755  1
  N  N423  1  0.55351264  0.27433443  0.09072899  1
  N  N424  1  0.57258926  0.61164539  0.10154443  1
  N  N425  1  0.56043422  0.94259476  0.08936509  1
  N  N426  1  0.42564216  0.05443486  0.60333232  1
  N  N427  1  0.43694635  0.38921753  0.60066239  1
  N  N428  1  0.44059292  0.72349584  0.59352221  1
  N  N429  1  0.93270010  0.05663124  0.59655726  1
  N  N430  1  0.94187468  0.38993569  0.59378440  1
  N  N431  1  0.93469987  0.72062954  0.60137720  1
  N  N432  1  0.19581948  0.11119455  0.41151390  1
  N  N433  1  0.18111471  0.44338040  0.39472681  1
  N  N434  1  0.18071254  0.77640342  0.40102651  1
  N  N435  1  0.68652188  0.10971076  0.39882673  1
  N  N436  1  0.68482919  0.44894985  0.40320696  1
  N  N437  1  0.68673593  0.77313701  0.40868370  1
  N  N438  1  0.32569024  0.22249719  0.89655841  1
  N  N439  1  0.31993584  0.55613087  0.89835715  1
  N  N440  1  0.31723753  0.88918909  0.90043357  1
  N  N441  1  0.82380540  0.22332084  0.89909683  1
  N  N442  1  0.81080490  0.56018539  0.91022060  1
  N  N443  1  0.81670753  0.88978043  0.90118767  1
  N  N444  1  0.30629458  0.10823642  0.09235977  1
  N  N445  1  0.31382559  0.44398335  0.09655002  1
  N  N446  1  0.31082645  0.77708887  0.09828866  1
  N  N447  1  0.80630171  0.10976839  0.09423287  1
  N  N448  1  0.81435968  0.44348213  0.09884698  1
  N  N449  1  0.80447905  0.77605224  0.09025774  1
  N  N450  1  0.18737694  0.22391669  0.59621629  1
  N  N451  1  0.18924041  0.55600180  0.59950839  1
  N  N452  1  0.18366717  0.88932497  0.60106525  1
  N  N453  1  0.68765218  0.22534800  0.59355751  1
  N  N454  1  0.69162453  0.55883918  0.58889805  1
  N  N455  1  0.68322323  0.88998524  0.59800808  1
  Cl  Cl456  1  0.24332202  0.06062574  0.60648886  1
  Cl  Cl457  1  0.25673579  0.38670969  0.61117541  1
  Cl  Cl458  1  0.25321223  0.72648890  0.60407039  1
  Cl  Cl459  1  0.74420990  0.06055701  0.60446722  1
  Cl  Cl460  1  0.75088939  0.38965496  0.61321677  1
  Cl  Cl461  1  0.75268707  0.72058119  0.61671877  1
  Cl  Cl462  1  0.23962220  0.27561512  0.11456841  1
  Cl  Cl463  1  0.24335191  0.60671714  0.10592803  1
  Cl  Cl464  1  0.24463683  0.94754736  0.11795584  1
  Cl  Cl465  1  0.74177308  0.28252674  0.12094398  1
  Cl  Cl466  1  0.75292824  0.61485944  0.11557728  1
  Cl  Cl467  1  0.74765887  0.94787780  0.11848712  1
  Cl  Cl468  1  0.25389778  0.05285931  0.87734794  1
  Cl  Cl469  1  0.24887380  0.37990727  0.87581984  1
  Cl  Cl470  1  0.25804372  0.71740364  0.87466924  1
  Cl  Cl471  1  0.75955932  0.05590017  0.88292485  1
  Cl  Cl472  1  0.74934565  0.39487125  0.89668374  1
  Cl  Cl473  1  0.75485032  0.72071066  0.88686044  1
  Cl  Cl474  1  0.25140550  0.27660105  0.38549700  1
  Cl  Cl475  1  0.24747863  0.61868518  0.37603440  1
  Cl  Cl476  1  0.25452550  0.94868567  0.38291507  1
  Cl  Cl477  1  0.74685275  0.27903145  0.38933010  1
  Cl  Cl478  1  0.74643961  0.61779996  0.38046029  1
  Cl  Cl479  1  0.74909808  0.94653774  0.38606743  1
  Cl  Cl480  1  0.00026467  0.21791491  0.62092030  1
  Cl  Cl481  1  0.00540223  0.55103437  0.62347187  1
  Cl  Cl482  1  -0.00421307  0.88918663  0.61395727  1
  Cl  Cl483  1  0.50135593  0.21899279  0.61069720  1
  Cl  Cl484  1  0.50294667  0.54973607  0.61632634  1
  Cl  Cl485  1  0.49912262  0.88634326  0.61741161  1
  Cl  Cl486  1  -0.00782902  0.10850859  0.11289551  1
  Cl  Cl487  1  -0.00236201  0.44400942  0.10747504  1
  Cl  Cl488  1  -0.00608261  0.77796169  0.10919329  1
  Cl  Cl489  1  0.49302496  0.11509838  0.12379721  1
  Cl  Cl490  1  0.50236523  0.44134808  0.10947398  1
  Cl  Cl491  1  0.49331223  0.77863974  0.11110706  1
  Cl  Cl492  1  0.01061273  0.22158283  0.88950734  1
  Cl  Cl493  1  0.00551456  0.55842304  0.89774084  1
  Cl  Cl494  1  0.00309146  0.88736405  0.87702806  1
  Cl  Cl495  1  0.50878865  0.21748337  0.87867809  1
  Cl  Cl496  1  0.50209185  0.54820567  0.88109288  1
  Cl  Cl497  1  0.50257977  0.88199929  0.88183689  1
  Cl  Cl498  1  0.00752754  0.10615062  0.39552760  1
  Cl  Cl499  1  -0.00469220  0.44536172  0.37744413  1
  Cl  Cl500  1  -0.00231547  0.77959185  0.37498224  1
  Cl  Cl501  1  0.50525047  0.11167716  0.39284605  1
  Cl  Cl502  1  0.49755934  0.44220177  0.39143721  1
  Cl  Cl503  1  0.49539947  0.77555201  0.38505092  1
  Cl  Cl504  1  0.36315996  0.14507694  0.74801388  1
  Cl  Cl505  1  0.36293034  0.47755282  0.75227090  1
  Cl  Cl506  1  0.36038648  0.80995475  0.74758056  1
  Cl  Cl507  1  0.86329503  0.14487806  0.74850205  1
  Cl  Cl508  1  0.85855139  0.47782345  0.75168227  1
  Cl  Cl509  1  0.86154614  0.81264527  0.75094903  1
  Cl  Cl510  1  0.13677440  0.18764546  0.24851968  1
  Cl  Cl511  1  0.13647170  0.52263767  0.25050553  1
  Cl  Cl512  1  0.13584351  0.85579184  0.25433325  1
  Cl  Cl513  1  0.63716463  0.18784513  0.25344637  1
  Cl  Cl514  1  0.63675013  0.52115869  0.24813144  1
  Cl  Cl515  1  0.64080254  0.85601895  0.24967445  1
  Cl  Cl516  1  0.14031855  0.14507676  0.74962941  1
  Cl  Cl517  1  0.13796228  0.47722894  0.74937128  1
  Cl  Cl518  1  0.13671952  0.81079807  0.74825689  1
  Cl  Cl519  1  0.63984488  0.14551943  0.74717476  1
  Cl  Cl520  1  0.63973112  0.47595003  0.75190643  1
  Cl  Cl521  1  0.63726917  0.81111392  0.75007890  1
  Cl  Cl522  1  0.36227427  0.18907461  0.25669682  1
  Cl  Cl523  1  0.36196436  0.52144906  0.25051090  1
  Cl  Cl524  1  0.36149850  0.85590336  0.24885594  1
  Cl  Cl525  1  0.86130250  0.18983542  0.25064770  1
  Cl  Cl526  1  0.86088481  0.52158045  0.24828894  1
  Cl  Cl527  1  0.86133572  0.85503130  0.25194024  1
  Cl  Cl528  1  0.11285413  0.31141476  0.74976944  1
  Cl  Cl529  1  0.10927143  0.64323938  0.75232366  1
  Cl  Cl530  1  0.11357916  0.97900406  0.74915675  1
  Cl  Cl531  1  0.61145510  0.31308615  0.74620912  1
  Cl  Cl532  1  0.61268003  0.64491849  0.75158874  1
  Cl  Cl533  1  0.61269989  0.97884964  0.74833004  1
  Cl  Cl534  1  0.38716362  0.02254585  0.25030686  1
  Cl  Cl535  1  0.38843273  0.35432928  0.25005121  1
  Cl  Cl536  1  0.39179796  0.68885682  0.24963867  1
  Cl  Cl537  1  0.88941513  0.02397724  0.25329937  1
  Cl  Cl538  1  0.88442599  0.35591041  0.24713214  1
  Cl  Cl539  1  0.88655516  0.68807779  0.24615334  1
  Cl  Cl540  1  0.38818309  0.31026784  0.75102907  1
  Cl  Cl541  1  0.38888103  0.64363121  0.75036441  1
  Cl  Cl542  1  0.38704836  0.97859052  0.74708820  1
  Cl  Cl543  1  0.89152737  0.31034171  0.75153941  1
  Cl  Cl544  1  0.88701797  0.64383465  0.75057191  1
  Cl  Cl545  1  0.88985318  0.98005197  0.74846390  1
  Cl  Cl546  1  0.10956977  0.02509949  0.24957965  1
  Cl  Cl547  1  0.10741803  0.35460362  0.25044641  1
  Cl  Cl548  1  0.11007236  0.68820888  0.24755720  1
  Cl  Cl549  1  0.61271008  0.02328294  0.25253794  1
  Cl  Cl550  1  0.61234325  0.35576116  0.25202545  1
  Cl  Cl551  1  0.61432919  0.68967554  0.24382670  1
