# generated using pymatgen
data_H8PbC4(N3Cl2)2
_symmetry_space_group_name_H-M   'P 1'
_cell_length_a   16.62377754
_cell_length_b   22.51078363
_cell_length_c   21.59323469
_cell_angle_alpha   89.99975714
_cell_angle_beta   90.01296117
_cell_angle_gamma   89.99742125
_symmetry_Int_Tables_number   1
_chemical_formula_structural   H8PbC4(N3Cl2)2
_chemical_formula_sum   'H192 Pb24 C96 N144 Cl96'
_cell_volume   8080.49611370
_cell_formula_units_Z   24
loop_
 _symmetry_equiv_pos_site_id
 _symmetry_equiv_pos_as_xyz
  1  'x, y, z'
loop_
 _atom_site_type_symbol
 _atom_site_label
 _atom_site_symmetry_multiplicity
 _atom_site_fract_x
 _atom_site_fract_y
 _atom_site_fract_z
 _atom_site_occupancy
  H  H0  1  0.00328329  0.03007880  0.68244964  1
  H  H1  1  -0.00029679  0.36469425  0.67789561  1
  H  H2  1  0.00118548  0.69492480  0.67795271  1
  H  H3  1  0.50298344  0.03006180  0.67809050  1
  H  H4  1  0.49036616  0.36200619  0.68062477  1
  H  H5  1  0.50552853  0.69442413  0.67679978  1
  H  H6  1  -0.00791749  0.30324565  0.18125724  1
  H  H7  1  0.00314704  0.63368348  0.18087584  1
  H  H8  1  0.00130919  0.97064891  0.17946830  1
  H  H9  1  0.50051847  0.30194586  0.17868630  1
  H  H10  1  0.49372197  0.63504303  0.18144919  1
  H  H11  1  0.50543136  0.97117607  0.18029028  1
  H  H12  1  0.01102517  0.03157156  0.81949139  1
  H  H13  1  -0.00537304  0.36137505  0.82303880  1
  H  H14  1  -0.00511197  0.69528476  0.81817488  1
  H  H15  1  0.49098877  0.03286435  0.82001152  1
  H  H16  1  0.50447189  0.36347677  0.81960692  1
  H  H17  1  0.50875342  0.69960821  0.82346757  1
  H  H18  1  -0.00237209  0.30375718  0.32134541  1
  H  H19  1  0.00062717  0.63857670  0.32377829  1
  H  H20  1  0.01296786  0.96722047  0.32439557  1
  H  H21  1  0.50382463  0.30478257  0.32021115  1
  H  H22  1  0.50289308  0.63557566  0.32163382  1
  H  H23  1  0.49726814  0.96945363  0.32399521  1
  H  H24  1  0.25752278  0.19854642  0.67807858  1
  H  H25  1  0.25905842  0.53200199  0.67638873  1
  H  H26  1  0.24295465  0.86450098  0.67746648  1
  H  H27  1  0.75013630  0.19727055  0.68043273  1
  H  H28  1  0.74156325  0.52926527  0.67936311  1
  H  H29  1  0.74752199  0.86018985  0.68093120  1
  H  H30  1  0.24907611  0.13832183  0.18060867  1
  H  H31  1  0.23887037  0.46861424  0.17852070  1
  H  H32  1  0.23876421  0.80079110  0.17835929  1
  H  H33  1  0.75345940  0.13641620  0.17775160  1
  H  H34  1  0.76109762  0.46894825  0.18193093  1
  H  H35  1  0.76812796  0.80470587  0.17902895  1
  H  H36  1  0.25789273  0.19877241  0.82108748  1
  H  H37  1  0.25572336  0.52773290  0.82201666  1
  H  H38  1  0.25048262  0.86439870  0.81749213  1
  H  H39  1  0.74157540  0.19377894  0.82290610  1
  H  H40  1  0.74912728  0.53049302  0.82199612  1
  H  H41  1  0.74812063  0.86528713  0.81762949  1
  H  H42  1  0.23898053  0.13526484  0.32378903  1
  H  H43  1  0.24213472  0.47251587  0.32185050  1
  H  H44  1  0.24994091  0.80302599  0.32077051  1
  H  H45  1  0.75519246  0.13701726  0.31660181  1
  H  H46  1  0.75729637  0.47017060  0.32202917  1
  H  H47  1  0.74863402  0.80482993  0.32070409  1
  H  H48  1  0.11900239  0.05301156  0.60557642  1
  H  H49  1  0.11418245  0.38903239  0.60150555  1
  H  H50  1  0.12077140  0.72066733  0.60491455  1
  H  H51  1  0.61874957  0.05645823  0.60171157  1
  H  H52  1  0.61790155  0.38648558  0.61263734  1
  H  H53  1  0.61939535  0.72570048  0.60053887  1
  H  H54  1  0.36676525  0.28353053  0.11707035  1
  H  H55  1  0.38207022  0.61021946  0.10210567  1
  H  H56  1  0.37863352  0.94698682  0.11190731  1
  H  H57  1  0.86897411  0.27618247  0.11009979  1
  H  H58  1  0.88315189  0.61051961  0.10462779  1
  H  H59  1  0.87382166  0.94695026  0.11035450  1
  H  H60  1  0.37900583  0.05602590  0.89858666  1
  H  H61  1  0.37587754  0.38386869  0.88516239  1
  H  H62  1  0.37084481  0.71752785  0.87930645  1
  H  H63  1  0.87494322  0.05285514  0.87953021  1
  H  H64  1  0.88163816  0.39057163  0.90180990  1
  H  H65  1  0.87350210  0.72134454  0.89178216  1
  H  H66  1  0.13275740  0.28273933  0.38239039  1
  H  H67  1  0.12402316  0.61215501  0.39313752  1
  H  H68  1  0.11539160  0.94106749  0.40983663  1
  H  H69  1  0.63216725  0.28080795  0.38624547  1
  H  H70  1  0.62404881  0.60928332  0.39374469  1
  H  H71  1  0.61581828  0.94145143  0.39786583  1
  H  H72  1  0.36498582  0.22404396  0.59695714  1
  H  H73  1  0.37614207  0.55673824  0.60049822  1
  H  H74  1  0.38005504  0.88493739  0.61966675  1
  H  H75  1  0.86895541  0.22229909  0.60685242  1
  H  H76  1  0.87597298  0.54971507  0.61554883  1
  H  H77  1  0.88023827  0.88514298  0.61657054  1
  H  H78  1  0.12480708  0.11189319  0.11230758  1
  H  H79  1  0.12471037  0.44139010  0.10055355  1
  H  H80  1  0.13520720  0.77552242  0.09269954  1
  H  H81  1  0.62566459  0.11322256  0.10953935  1
  H  H82  1  0.62326496  0.44882671  0.12385297  1
  H  H83  1  0.62677498  0.78418150  0.12836410  1
  H  H84  1  0.13216741  0.22174048  0.88766672  1
  H  H85  1  0.11939127  0.54735510  0.88016206  1
  H  H86  1  0.12606104  0.88730271  0.88981948  1
  H  H87  1  0.63396823  0.22165879  0.90590007  1
  H  H88  1  0.62188746  0.55625031  0.88803929  1
  H  H89  1  0.62533180  0.88962365  0.89048897  1
  H  H90  1  0.38056890  0.11781964  0.37454709  1
  H  H91  1  0.38071728  0.45279078  0.37723429  1
  H  H92  1  0.38047329  0.78012975  0.38421979  1
  H  H93  1  0.88078878  0.11128502  0.38810560  1
  H  H94  1  0.88189114  0.44648446  0.39179085  1
  H  H95  1  0.88130875  0.78103940  0.38430295  1
  H  H96  1  0.38361183  0.27874001  0.39453477  1
  H  H97  1  0.37516550  0.61279938  0.38967365  1
  H  H98  1  0.36723757  0.94758083  0.38974555  1
  H  H99  1  0.88646996  0.27820420  0.40278484  1
  H  H100  1  0.87469039  0.61030040  0.39075060  1
  H  H101  1  0.87166615  0.95112549  0.37362964  1
  H  H102  1  0.12253015  0.05669886  0.90013745  1
  H  H103  1  0.12939022  0.38588546  0.88101932  1
  H  H104  1  0.12278741  0.71934227  0.88390490  1
  H  H105  1  0.62682488  0.05134677  0.87863473  1
  H  H106  1  0.62507954  0.38727768  0.89205834  1
  H  H107  1  0.61795989  0.72509952  0.90412937  1
  H  H108  1  0.11797159  0.28118796  0.11076734  1
  H  H109  1  0.13156499  0.61058548  0.11109112  1
  H  H110  1  0.12229134  0.94495004  0.10651051  1
  H  H111  1  0.61523899  0.27599272  0.10309250  1
  H  H112  1  0.62925158  0.61679743  0.12392662  1
  H  H113  1  0.62713486  0.94724651  0.10586022  1
  H  H114  1  0.36975096  0.05341814  0.61585655  1
  H  H115  1  0.36903930  0.38832379  0.60774561  1
  H  H116  1  0.37218642  0.71415787  0.61439706  1
  H  H117  1  0.87013230  0.04997474  0.62143565  1
  H  H118  1  0.86581764  0.38524895  0.61736271  1
  H  H119  1  0.87143262  0.72131037  0.61326933  1
  H  H120  1  0.13667023  0.10539410  0.40904339  1
  H  H121  1  0.13428436  0.44291227  0.40394599  1
  H  H122  1  0.13281034  0.77756792  0.39756212  1
  H  H123  1  0.63247000  0.11205197  0.38996482  1
  H  H124  1  0.63266064  0.44871097  0.39002495  1
  H  H125  1  0.63391311  0.77630154  0.39966514  1
  H  H126  1  0.38170720  0.22062371  0.89286209  1
  H  H127  1  0.36558464  0.55750984  0.90224727  1
  H  H128  1  0.37517661  0.88891267  0.88761621  1
  H  H129  1  0.87980026  0.21696272  0.87624551  1
  H  H130  1  0.87100051  0.55371682  0.89536083  1
  H  H131  1  0.87380707  0.88744063  0.88950939  1
  H  H132  1  0.37451146  0.11446435  0.10985843  1
  H  H133  1  0.37260890  0.44648620  0.11677450  1
  H  H134  1  0.38010012  0.78293699  0.12596217  1
  H  H135  1  0.87440006  0.10935179  0.10590569  1
  H  H136  1  0.87003975  0.44238430  0.09981859  1
  H  H137  1  0.86966480  0.77520864  0.09115829  1
  H  H138  1  0.11795361  0.21691483  0.62385782  1
  H  H139  1  0.12785235  0.55161569  0.61531076  1
  H  H140  1  0.13371214  0.89124845  0.59573136  1
  H  H141  1  0.61973057  0.21732440  0.61689140  1
  H  H142  1  0.62878199  0.55784568  0.59949744  1
  H  H143  1  0.63210490  0.88866707  0.60253402  1
  H  H144  1  0.92043000  0.57916215  0.49527998  1
  H  H145  1  0.40346351  0.74912635  0.50954712  1
  H  H146  1  0.81610589  0.25200031  0.49807037  1
  H  H147  1  0.29365923  0.56978911  1.00458214  1
  H  H148  1  0.94962861  0.41911010  1.00360137  1
  H  H149  1  0.55444638  0.73803774  0.49696411  1
  H  H150  1  0.78602554  0.75318852  -0.00650614  1
  H  H151  1  0.67623566  0.41838628  0.50190824  1
  H  H152  1  0.89972348  0.07845501  0.50882297  1
  H  H153  1  0.65199729  0.24679975  0.50454326  1
  H  H154  1  0.05425459  0.41747127  0.49205616  1
  H  H155  1  0.55567683  0.24665765  -0.00625243  1
  H  H156  1  0.10573113  0.25314967  0.49067089  1
  H  H157  1  0.40167174  0.08185444  0.50753833  1
  H  H158  1  0.05308394  0.08139580  1.00697261  1
  H  H159  1  0.32343477  0.09971548  0.00180695  1
  H  H160  1  0.32659162  0.91637392  0.99692866  1
  H  H161  1  0.41979317  0.41858886  0.50059731  1
  H  H162  1  0.57127270  0.92136920  0.00239253  1
  H  H163  1  0.21071033  0.75197999  -0.01176635  1
  H  H164  1  0.91092555  0.74956879  0.50704590  1
  H  H165  1  0.20769206  0.41712068  0.50487953  1
  H  H166  1  0.08149274  0.74832957  0.99579893  1
  H  H167  1  0.41236388  0.41141282  0.99722264  1
  H  H168  1  0.14665573  0.58401207  0.98474157  1
  H  H169  1  0.60743674  0.58932058  0.01004832  1
  H  H170  1  0.70801703  0.24634635  1.00661358  1
  H  H171  1  0.79915985  0.41459578  -0.00434234  1
  H  H172  1  0.88334082  0.92012443  0.48818691  1
  H  H173  1  0.15815419  0.58296586  0.50165175  1
  H  H174  1  0.55263049  0.75340605  1.01030984  1
  H  H175  1  0.81633392  0.58438462  0.99948177  1
  H  H176  1  0.44309786  0.08149577  1.00829022  1
  H  H177  1  0.29630809  0.25457154  0.49120981  1
  H  H178  1  0.17149702  0.08582960  0.00021166  1
  H  H179  1  0.44526187  0.58516090  -0.00597050  1
  H  H180  1  0.40590466  0.91291197  0.49330108  1
  H  H181  1  0.06053860  0.07835386  0.49610015  1
  H  H182  1  0.17439254  0.25359527  0.99928532  1
  H  H183  1  0.92176242  0.92130871  0.00500617  1
  H  H184  1  0.57696383  0.41525903  1.00112320  1
  H  H185  1  0.92929803  0.73778778  0.99862333  1
  H  H186  1  0.21441436  0.07982061  0.50781396  1
  H  H187  1  0.36592843  0.75383980  0.01444968  1
  H  H188  1  0.55543160  0.92575336  0.50293035  1
  H  H189  1  0.55950548  0.08897035  0.49516794  1
  H  H190  1  0.06825143  0.75602599  0.49827415  1
  H  H191  1  0.91772289  0.24837961  0.00137836  1
  Pb  Pb192  1  0.24617514  0.04850794  0.75460589  1
  Pb  Pb193  1  0.24866361  0.37943415  0.74069178  1
  Pb  Pb194  1  0.24793698  0.71335286  0.74857719  1
  Pb  Pb195  1  0.74894519  0.04558787  0.74610979  1
  Pb  Pb196  1  0.74514338  0.38128370  0.75656869  1
  Pb  Pb197  1  0.74807639  0.71289011  0.75501414  1
  Pb  Pb198  1  0.25062347  0.28778886  0.25138815  1
  Pb  Pb199  1  0.24913130  0.61854884  0.24617740  1
  Pb  Pb200  1  0.24587809  0.95006905  0.25268616  1
  Pb  Pb201  1  0.74693925  0.28438577  0.24742898  1
  Pb  Pb202  1  0.74911164  0.61879804  0.24604092  1
  Pb  Pb203  1  0.74818500  0.95463171  0.24876469  1
  Pb  Pb204  1  -0.00353366  0.21465120  0.74982719  1
  Pb  Pb205  1  -0.00160172  0.54551289  0.74754124  1
  Pb  Pb206  1  0.00018437  0.87922085  0.75181577  1
  Pb  Pb207  1  0.49967178  0.21254589  0.75186797  1
  Pb  Pb208  1  0.49555434  0.54805671  0.75073215  1
  Pb  Pb209  1  0.50022678  0.88116254  0.74745714  1
  Pb  Pb210  1  0.00181046  0.11897697  0.25390147  1
  Pb  Pb211  1  -0.00289676  0.45083073  0.24621409  1
  Pb  Pb212  1  -0.00382478  0.78442307  0.24445545  1
  Pb  Pb213  1  0.49652262  0.11840701  0.25036490  1
  Pb  Pb214  1  0.50050020  0.45411146  0.25037358  1
  Pb  Pb215  1  0.50185007  0.78628388  0.25978354  1
  C  C216  1  -0.00287255  0.04457545  0.63468903  1
  C  C217  1  -0.00658414  0.37940795  0.63039259  1
  C  C218  1  -0.00273649  0.71170192  0.63081668  1
  C  C219  1  0.49648032  0.04609554  0.63080800  1
  C  C220  1  0.49250159  0.37846607  0.63346942  1
  C  C221  1  0.49900650  0.71105288  0.62974261  1
  C  C222  1  -0.00699042  0.28716422  0.13392718  1
  C  C223  1  0.00613884  0.61900993  0.13297621  1
  C  C224  1  -0.00119944  0.95409841  0.13237867  1
  C  C225  1  0.49430144  0.28710726  0.13122903  1
  C  C226  1  0.50220769  0.62083721  0.13379655  1
  C  C227  1  0.50413444  0.95543271  0.13283812  1
  C  C228  1  0.00273703  0.04651190  0.86680483  1
  C  C229  1  0.00165040  0.37810161  0.86975140  1
  C  C230  1  -0.00343579  0.71091348  0.86580066  1
  C  C231  1  0.49880020  0.04642392  0.86771209  1
  C  C232  1  0.50173069  0.37846039  0.86745500  1
  C  C233  1  0.49939866  0.71436219  0.87082357  1
  C  C234  1  0.00606864  0.28812896  0.36845313  1
  C  C235  1  -0.00066328  0.62092893  0.37044345  1
  C  C236  1  -0.00107868  0.95291914  0.37106057  1
  C  C237  1  0.50625295  0.28810663  0.36708330  1
  C  C238  1  0.50041704  0.61975878  0.36883531  1
  C  C239  1  0.49330046  0.95286089  0.37126791  1
  C  C240  1  0.24706530  0.21327032  0.63090518  1
  C  C241  1  0.25361163  0.54671509  0.62883638  1
  C  C242  1  0.25268972  0.87954145  0.63057647  1
  C  C243  1  0.74612231  0.21245682  0.63274351  1
  C  C244  1  0.74878298  0.54460630  0.63198967  1
  C  C245  1  0.75329955  0.87690840  0.63401484  1
  C  C246  1  0.25016362  0.12259678  0.13295588  1
  C  C247  1  0.24569903  0.45292323  0.13155295  1
  C  C248  1  0.25203451  0.78614726  0.13139950  1
  C  C249  1  0.75086526  0.12013410  0.13071688  1
  C  C250  1  0.75106641  0.45393895  0.13479264  1
  C  C251  1  0.75527770  0.78910248  0.13253956  1
  C  C252  1  0.25680786  0.21367923  0.86877109  1
  C  C253  1  0.24676037  0.54371755  0.86910083  1
  C  C254  1  0.25043530  0.88009865  0.86499890  1
  C  C255  1  0.75164356  0.20974786  0.86967840  1
  C  C256  1  0.74770812  0.54683238  0.86926121  1
  C  C257  1  0.74921154  0.88000088  0.86546879  1
  C  C258  1  0.25190583  0.12024362  0.37055680  1
  C  C259  1  0.25208639  0.45712389  0.36885913  1
  C  C260  1  0.25439995  0.78782779  0.36813392  1
  C  C261  1  0.75629802  0.12120792  0.36411104  1
  C  C262  1  0.75678129  0.45504831  0.36959018  1
  C  C263  1  0.75450878  0.78859937  0.36782085  1
  C  C264  1  0.53771584  0.40442576  0.96249780  1
  C  C265  1  0.01432453  0.92456986  0.46829157  1
  C  C266  1  0.70110075  0.57628738  0.96083987  1
  C  C267  1  0.47474978  0.07159251  0.96538460  1
  C  C268  1  0.30135252  0.76095136  0.45898568  1
  C  C269  1  0.76946335  0.42606378  0.03907522  1
  C  C270  1  0.79832277  0.42771021  0.46271242  1
  C  C271  1  0.45918611  0.40725459  0.54031643  1
  C  C272  1  0.47767345  0.59552580  0.03651913  1
  C  C273  1  0.04216644  0.73888515  0.95686673  1
  C  C274  1  0.23683958  0.76064033  0.03357808  1
  C  C275  1  0.02360852  0.07222710  0.96298829  1
  C  C276  1  0.71660917  0.42829214  0.46367984  1
  C  C277  1  0.95775942  0.25905352  0.04099175  1
  C  C278  1  0.02656471  0.06912743  0.53809572  1
  C  C279  1  0.55537984  0.07001728  0.95642584  1
  C  C280  1  0.29692067  0.24016066  0.96241216  1
  C  C281  1  0.52174096  0.25877611  0.03500508  1
  C  C282  1  0.31399877  0.42909021  0.45538587  1
  C  C283  1  0.18491534  0.23845464  0.54449040  1
  C  C284  1  0.77925196  0.23978236  0.53762167  1
  C  C285  1  0.28508121  0.57450088  0.53385014  1
  C  C286  1  0.51986953  0.74208529  0.96825178  1
  C  C287  1  0.44051456  0.26175905  0.04143098  1
  C  C288  1  0.31827218  0.09401311  0.45516516  1
  C  C289  1  0.26540350  0.24183362  0.53361884  1
  C  C290  1  0.53391594  0.58933920  0.46125664  1
  C  C291  1  0.20880862  0.09524830  0.04040671  1
  C  C292  1  0.54958478  0.25822226  0.45780491  1
  C  C293  1  0.05802889  0.41039688  0.95685500  1
  C  C294  1  0.21986159  0.42164000  0.03762982  1
  C  C295  1  0.23251896  0.90864004  0.53487051  1
  C  C296  1  0.43920191  0.73916439  0.95850198  1
  C  C297  1  0.78445296  0.08924668  0.03840217  1
  C  C298  1  0.94470870  0.06877918  0.54402749  1
  C  C299  1  0.20353830  0.57323274  0.53744400  1
  C  C300  1  0.02040991  0.40658478  0.53373688  1
  C  C301  1  0.93905974  0.40509846  0.54073800  1
  C  C302  1  0.45562199  0.40283885  0.96035482  1
  C  C303  1  0.55923068  0.59776081  0.04410233  1
  C  C304  1  0.52603855  0.07638486  0.53652838  1
  C  C305  1  0.81393732  0.23880348  0.95559159  1
  C  C306  1  0.03210839  0.74276319  0.53784307  1
  C  C307  1  0.03989182  0.58931716  0.46288787  1
  C  C308  1  0.28760394  0.90623536  0.95787826  1
  C  C309  1  0.93415552  0.92802160  0.45712639  1
  C  C310  1  0.21522919  0.24149017  0.96208292  1
  C  C311  1  0.69710950  0.23765235  0.54100506  1
  N  N312  1  0.71191846  0.90695243  0.95925218  1
  N  N313  1  0.76445771  0.75931955  0.03811179  1
  N  N314  1  0.95248851  0.74240834  0.54171396  1
  N  N315  1  0.03721989  0.26028525  0.04089840  1
  N  N316  1  0.29723872  0.42355190  0.04127785  1
  N  N317  1  0.53856445  0.40704158  0.54142516  1
  N  N318  1  0.24066108  0.09002904  0.46591587  1
  N  N319  1  0.79561479  0.09373392  0.45740566  1
  N  N320  1  0.03772039  0.92650150  0.03890815  1
  N  N321  1  0.45653288  0.59056701  0.46133842  1
  N  N322  1  0.22376955  0.75963388  0.46431881  1
  N  N323  1  0.97257634  0.59492988  0.03741188  1
  N  N324  1  0.73552356  0.24032088  0.96439077  1
  N  N325  1  0.72513892  0.90672349  0.53937651  1
  N  N326  1  0.94501084  0.07194557  0.95578373  1
  N  N327  1  0.44770227  0.73269964  0.54043216  1
  N  N328  1  0.97999719  0.26080801  0.46443673  1
  N  N329  1  0.96242731  0.73942235  0.95864876  1
  N  N330  1  0.80382984  0.76031257  0.45776485  1
  N  N331  1  0.80103947  0.90607981  0.54448350  1
  N  N332  1  0.44678625  0.07490142  0.54243762  1
  N  N333  1  0.45799922  0.92833256  0.04116793  1
  N  N334  1  0.19061827  0.56587755  0.95646821  1
  N  N335  1  0.71935406  0.09390269  0.45801889  1
  N  N336  1  0.05747629  0.26254014  0.45633960  1
  N  N337  1  0.96057649  0.58891544  0.46070161  1
  N  N338  1  0.20824887  0.90594845  0.95895836  1
  N  N339  1  0.70716573  0.09100127  0.03803569  1
  N  N340  1  0.78031248  0.57544607  0.96219070  1
  N  N341  1  0.47203181  0.25706819  0.46160401  1
  N  N342  1  0.79976488  0.57088458  0.54173577  1
  N  N343  1  0.30948208  0.90573529  0.54139062  1
  N  N344  1  0.95961481  0.92656036  0.04205766  1
  N  N345  1  0.53639635  0.92697916  0.04106772  1
  N  N346  1  0.69093394  0.42804310  0.04705209  1
  N  N347  1  0.52566019  0.74608505  0.53822678  1
  N  N348  1  0.44689288  0.93083299  0.46195600  1
  N  N349  1  0.52517985  0.91879321  0.46202241  1
  N  N350  1  0.78896332  0.90630140  0.95886170  1
  N  N351  1  0.04922091  0.59565059  0.03961641  1
  N  N352  1  0.26877486  0.57767791  0.96173098  1
  N  N353  1  0.23559959  0.42574450  0.46324341  1
  N  N354  1  0.31469465  0.76187414  0.04622393  1
  N  N355  1  0.28859709  0.09594685  0.04061840  1
  N  N356  1  0.97947275  0.41080644  0.96288790  1
  N  N357  1  0.72371568  0.57396194  0.53647961  1
  N  N358  1  0.72753134  0.75847077  0.46262207  1
  N  N359  1  0.68781903  0.76232498  0.04923793  1
  N  N360  1  0.05779347  0.05418345  0.59492798  1
  N  N361  1  0.05321930  0.39053102  0.59080863  1
  N  N362  1  0.06011150  0.72423118  0.59337514  1
  N  N363  1  0.55723608  0.05893350  0.59143188  1
  N  N364  1  0.55738419  0.38904456  0.59965357  1
  N  N365  1  0.55819799  0.72262307  0.59055709  1
  N  N366  1  0.42466098  0.27858490  0.09968294  1
  N  N367  1  0.44349042  0.61000709  0.09269541  1
  N  N368  1  0.43880885  0.94416120  0.09913362  1
  N  N369  1  0.92937156  0.27504197  0.09804578  1
  N  N370  1  0.94481910  0.60907385  0.09516063  1
  N  N371  1  0.93431199  0.94444301  0.09811320  1
  N  N372  1  0.44016860  0.05674902  0.90863384  1
  N  N373  1  0.43486705  0.38698922  0.90101759  1
  N  N374  1  0.42737830  0.72276213  0.89910941  1
  N  N375  1  0.93385609  0.05607024  0.89595302  1
  N  N376  1  0.94354367  0.38917955  0.90998501  1
  N  N377  1  0.93451045  0.71844702  0.90326585  1
  N  N378  1  0.07423866  0.27843962  0.39801156  1
  N  N379  1  0.06402233  0.60860391  0.40682000  1
  N  N380  1  0.05338666  0.93964405  0.41646801  1
  N  N381  1  0.57301155  0.27686146  0.40049763  1
  N  N382  1  0.56371388  0.60703996  0.40573252  1
  N  N383  1  0.55447998  0.94326349  0.40926526  1
  N  N384  1  0.30321088  0.22577630  0.58884550  1
  N  N385  1  0.31526709  0.55854573  0.58888410  1
  N  N386  1  0.32213357  0.88762405  0.60237815  1
  N  N387  1  0.80819011  0.22413805  0.59497329  1
  N  N388  1  0.81646016  0.55276711  0.60103331  1
  N  N389  1  0.82025125  0.88830590  0.60301479  1
  N  N390  1  0.18480474  0.11005748  0.09805037  1
  N  N391  1  0.18585059  0.43947662  0.09153393  1
  N  N392  1  0.19711123  0.77529197  0.08643178  1
  N  N393  1  0.68595500  0.11037487  0.09697163  1
  N  N394  1  0.68139117  0.44530753  0.10662763  1
  N  N395  1  0.68296990  0.77893997  0.10850367  1
  N  N396  1  0.19144767  0.22468146  0.90277156  1
  N  N397  1  0.17722556  0.55460716  0.89653507  1
  N  N398  1  0.18698274  0.88986286  0.90074229  1
  N  N399  1  0.69632225  0.21987241  0.91225423  1
  N  N400  1  0.68074424  0.55910504  0.90309585  1
  N  N401  1  0.68633992  0.89033371  0.90164335  1
  N  N402  1  0.32555996  0.11196580  0.39580901  1
  N  N403  1  0.32410469  0.44733852  0.39650916  1
  N  N404  1  0.32219271  0.77743185  0.40018053  1
  N  N405  1  0.82003893  0.11082156  0.39928571  1
  N  N406  1  0.82224896  0.44374550  0.40577483  1
  N  N407  1  0.82189420  0.77929011  0.39909039  1
  N  N408  1  0.44501338  0.27584418  0.40369348  1
  N  N409  1  0.43541953  0.60979103  0.40240763  1
  N  N410  1  0.42686345  0.94160906  0.40292829  1
  N  N411  1  0.94844715  0.27691843  0.40976806  1
  N  N412  1  0.93504073  0.60892640  0.40390341  1
  N  N413  1  0.92620253  0.94535317  0.39571896  1
  N  N414  1  0.06088299  0.05704056  0.90859585  1
  N  N415  1  0.07188792  0.39060963  0.89906472  1
  N  N416  1  0.06340693  0.72303824  0.89895795  1
  N  N417  1  0.56944924  0.05519720  0.89761119  1
  N  N418  1  0.56493916  0.38927023  0.90439284  1
  N  N419  1  0.55642507  0.72635708  0.91229162  1
  N  N420  1  0.05716077  0.27784984  0.09889562  1
  N  N421  1  0.07119004  0.61034422  0.09877568  1
  N  N422  1  0.06156503  0.94217323  0.09597594  1
  N  N423  1  0.55428979  0.27478649  0.09211510  1
  N  N424  1  0.57261719  0.61335281  0.10482165  1
  N  N425  1  0.56587737  0.94557875  0.09569346  1
  N  N426  1  0.42884629  0.05506210  0.60010680  1
  N  N427  1  0.42964755  0.39013510  0.59665392  1
  N  N428  1  0.43098295  0.72063852  0.59962699  1
  N  N429  1  0.92805048  0.05377616  0.60421212  1
  N  N430  1  0.92359323  0.38880870  0.59927774  1
  N  N431  1  0.93120257  0.72187704  0.59852218  1
  N  N432  1  0.19892147  0.10796263  0.41412332  1
  N  N433  1  0.19648890  0.44531705  0.41077225  1
  N  N434  1  0.19452332  0.77723893  0.40665926  1
  N  N435  1  0.69370898  0.11072950  0.40050522  1
  N  N436  1  0.69206152  0.44510003  0.40455913  1
  N  N437  1  0.69573776  0.77584418  0.40704911  1
  N  N438  1  0.32164113  0.22371444  0.90581088  1
  N  N439  1  0.30374042  0.55347303  0.91076257  1
  N  N440  1  0.31509955  0.89072973  0.90050434  1
  N  N441  1  0.82367642  0.22144346  0.89644122  1
  N  N442  1  0.80980869  0.55677904  0.90581127  1
  N  N443  1  0.81296209  0.88992752  0.90073040  1
  N  N444  1  0.31381243  0.11622000  0.09688337  1
  N  N445  1  0.31336528  0.44333621  0.10130875  1
  N  N446  1  0.32339150  0.77712286  0.10642610  1
  N  N447  1  0.81416516  0.10701511  0.09396478  1
  N  N448  1  0.80786354  0.44175261  0.09255164  1
  N  N449  1  0.80722973  0.77794092  0.08766026  1
  N  N450  1  0.17443283  0.22150192  0.60366420  1
  N  N451  1  0.18552646  0.55581363  0.59775942  1
  N  N452  1  0.19547350  0.89276033  0.58825474  1
  N  N453  1  0.67825551  0.22097176  0.60054754  1
  N  N454  1  0.69070885  0.55757615  0.59204353  1
  N  N455  1  0.69404405  0.88818647  0.59469890  1
  Cl  Cl456  1  0.24262340  0.05710206  0.60927403  1
  Cl  Cl457  1  0.24085342  0.39298304  0.60342373  1
  Cl  Cl458  1  0.24773415  0.71620228  0.61835533  1
  Cl  Cl459  1  0.74129230  0.05318865  0.61615820  1
  Cl  Cl460  1  0.74080874  0.38702362  0.62492358  1
  Cl  Cl461  1  0.74425955  0.72332773  0.62334843  1
  Cl  Cl462  1  0.24117739  0.28129965  0.11970427  1
  Cl  Cl463  1  0.25629442  0.60573035  0.10591866  1
  Cl  Cl464  1  0.25168739  0.94794088  0.11773267  1
  Cl  Cl465  1  0.74154898  0.27266980  0.10814975  1
  Cl  Cl466  1  0.76226097  0.61106421  0.10884179  1
  Cl  Cl467  1  0.75040157  0.94797970  0.11529316  1
  Cl  Cl468  1  0.25060518  0.06077945  0.89180330  1
  Cl  Cl469  1  0.25240682  0.38652167  0.87094429  1
  Cl  Cl470  1  0.24455204  0.71796509  0.88480547  1
  Cl  Cl471  1  0.75120404  0.05331621  0.87648281  1
  Cl  Cl472  1  0.75798037  0.38852666  0.89240302  1
  Cl  Cl473  1  0.75078943  0.72575430  0.89763304  1
  Cl  Cl474  1  0.25788744  0.28297337  0.38659795  1
  Cl  Cl475  1  0.24759732  0.61299148  0.37809835  1
  Cl  Cl476  1  0.24152867  0.94800165  0.38746678  1
  Cl  Cl477  1  0.76139751  0.28022949  0.38175455  1
  Cl  Cl478  1  0.75075238  0.61098651  0.37688878  1
  Cl  Cl479  1  0.73597744  0.94393096  0.37920572  1
  Cl  Cl480  1  -0.00728637  0.22125934  0.62007463  1
  Cl  Cl481  1  -0.00087404  0.55515005  0.61292565  1
  Cl  Cl482  1  0.00853863  0.88540252  0.61810345  1
  Cl  Cl483  1  0.49132440  0.21738358  0.62163573  1
  Cl  Cl484  1  0.50342550  0.55837462  0.61872182  1
  Cl  Cl485  1  0.51038358  0.89279273  0.60701719  1
  Cl  Cl486  1  0.00175452  0.10946859  0.11986921  1
  Cl  Cl487  1  -0.00635365  0.44053515  0.10571834  1
  Cl  Cl488  1  -0.00409043  0.77154079  0.10022805  1
  Cl  Cl489  1  0.49727874  0.11122582  0.11644464  1
  Cl  Cl490  1  0.49669682  0.44474780  0.11841722  1
  Cl  Cl491  1  0.50291591  0.78473741  0.12773394  1
  Cl  Cl492  1  0.00535617  0.22170955  0.88125261  1
  Cl  Cl493  1  -0.00560930  0.54781921  0.88045629  1
  Cl  Cl494  1  -0.00220607  0.88563997  0.88714289  1
  Cl  Cl495  1  0.51132883  0.22034056  0.88750957  1
  Cl  Cl496  1  0.48794391  0.56036731  0.88598254  1
  Cl  Cl497  1  0.50207549  0.89166753  0.88127257  1
  Cl  Cl498  1  0.01145788  0.10819633  0.38965019  1
  Cl  Cl499  1  0.01257098  0.44629441  0.38188458  1
  Cl  Cl500  1  0.00693305  0.77505891  0.38270841  1
  Cl  Cl501  1  0.50962695  0.10991104  0.38643817  1
  Cl  Cl502  1  0.50555318  0.44909148  0.38142040  1
  Cl  Cl503  1  0.50906483  0.77390181  0.39665030  1
  Cl  Cl504  1  0.35906756  0.14778380  0.75054649  1
  Cl  Cl505  1  0.35767171  0.48203388  0.74670293  1
  Cl  Cl506  1  0.36437126  0.81200559  0.74599920  1
  Cl  Cl507  1  0.86348414  0.14490374  0.75299890  1
  Cl  Cl508  1  0.86131859  0.47907318  0.74807106  1
  Cl  Cl509  1  0.86312299  0.81170966  0.75143875  1
  Cl  Cl510  1  0.14317814  0.18423756  0.25278931  1
  Cl  Cl511  1  0.14479707  0.52113320  0.24739305  1
  Cl  Cl512  1  0.14761547  0.85112070  0.24762158  1
  Cl  Cl513  1  0.64471845  0.18852987  0.24889400  1
  Cl  Cl514  1  0.63985951  0.52197703  0.24246748  1
  Cl  Cl515  1  0.63746944  0.85320918  0.24516823  1
  Cl  Cl516  1  0.13920078  0.14556785  0.74518597  1
  Cl  Cl517  1  0.13876883  0.48128549  0.75040186  1
  Cl  Cl518  1  0.14199813  0.81637627  0.75323795  1
  Cl  Cl519  1  0.64122228  0.14886247  0.75018411  1
  Cl  Cl520  1  0.64195478  0.48025334  0.75891668  1
  Cl  Cl521  1  0.63934787  0.81567746  0.74757400  1
  Cl  Cl522  1  0.36276461  0.18711480  0.25557352  1
  Cl  Cl523  1  0.36420182  0.52051440  0.24795590  1
  Cl  Cl524  1  0.36844791  0.85580537  0.24922230  1
  Cl  Cl525  1  0.86699284  0.18872703  0.24707989  1
  Cl  Cl526  1  0.86189539  0.51845870  0.25102005  1
  Cl  Cl527  1  0.86219221  0.85347268  0.25085348  1
  Cl  Cl528  1  0.11120686  0.31315219  0.74901384  1
  Cl  Cl529  1  0.10836154  0.64779958  0.75260342  1
  Cl  Cl530  1  0.11160140  0.98056951  0.75242025  1
  Cl  Cl531  1  0.60825788  0.31535176  0.74732592  1
  Cl  Cl532  1  0.60760737  0.64908247  0.75368571  1
  Cl  Cl533  1  0.60705723  0.98356192  0.75241530  1
  Cl  Cl534  1  0.39224886  0.02273155  0.25326892  1
  Cl  Cl535  1  0.38963353  0.35435163  0.24821030  1
  Cl  Cl536  1  0.39121178  0.68692858  0.24965056  1
  Cl  Cl537  1  0.88854960  0.01931274  0.25870785  1
  Cl  Cl538  1  0.89521372  0.35483165  0.25333215  1
  Cl  Cl539  1  0.89710113  0.68776019  0.25103694  1
  Cl  Cl540  1  0.38854003  0.31418106  0.75292227  1
  Cl  Cl541  1  0.38687214  0.64869421  0.75147177  1
  Cl  Cl542  1  0.38559111  0.97984127  0.74089633  1
  Cl  Cl543  1  0.89082410  0.31164561  0.74970060  1
  Cl  Cl544  1  0.88818491  0.64746567  0.75056204  1
  Cl  Cl545  1  0.88882057  0.98041049  0.74949171  1
  Cl  Cl546  1  0.10833038  0.01531757  0.24722129  1
  Cl  Cl547  1  0.11227152  0.35212751  0.25004447  1
  Cl  Cl548  1  0.11439886  0.68733004  0.24742379  1
  Cl  Cl549  1  0.60891775  0.01878922  0.25145567  1
  Cl  Cl550  1  0.61247140  0.35362555  0.24720886  1
  Cl  Cl551  1  0.61429116  0.68681067  0.24585422  1
