# generated using pymatgen
data_H8PbC4(N3Cl2)2
_symmetry_space_group_name_H-M   'P 1'
_cell_length_a   16.62679606
_cell_length_b   22.52401375
_cell_length_c   21.59595644
_cell_angle_alpha   90.00162006
_cell_angle_beta   90.03699183
_cell_angle_gamma   90.00589588
_symmetry_Int_Tables_number   1
_chemical_formula_structural   H8PbC4(N3Cl2)2
_chemical_formula_sum   'H192 Pb24 C96 N144 Cl96'
_cell_volume   8087.73109821
_cell_formula_units_Z   24
loop_
 _symmetry_equiv_pos_site_id
 _symmetry_equiv_pos_as_xyz
  1  'x, y, z'
loop_
 _atom_site_type_symbol
 _atom_site_label
 _atom_site_symmetry_multiplicity
 _atom_site_fract_x
 _atom_site_fract_y
 _atom_site_fract_z
 _atom_site_occupancy
  H  H0  1  0.02702427  0.02559928  0.67621481  1
  H  H1  1  0.00985710  0.36273216  0.67643911  1
  H  H2  1  0.00093825  0.69768341  0.66931301  1
  H  H3  1  0.48242624  0.03046274  0.67861240  1
  H  H4  1  0.48853528  0.35950290  0.67895240  1
  H  H5  1  0.49383937  0.69884428  0.67730730  1
  H  H6  1  0.00360821  0.30305825  0.17802014  1
  H  H7  1  0.00800673  0.64048662  0.17511847  1
  H  H8  1  0.01773398  0.97227125  0.17484083  1
  H  H9  1  0.48761095  0.30363895  0.18042948  1
  H  H10  1  0.50528874  0.64175986  0.18132804  1
  H  H11  1  0.49009992  0.97465563  0.17137367  1
  H  H12  1  0.01844607  0.02646439  0.82305028  1
  H  H13  1  0.00112421  0.36565579  0.82755311  1
  H  H14  1  0.02290289  0.70044005  0.83878355  1
  H  H15  1  0.47918546  0.02609563  0.82765432  1
  H  H16  1  0.49412255  0.35903440  0.81767316  1
  H  H17  1  0.50324517  0.69627655  0.82266364  1
  H  H18  1  0.00644049  0.30404805  0.31985599  1
  H  H19  1  -0.01521651  0.64287172  0.32419180  1
  H  H20  1  -0.00807339  0.96963805  0.32383034  1
  H  H21  1  0.50119087  0.30519572  0.32715502  1
  H  H22  1  0.49647951  0.63808007  0.31976595  1
  H  H23  1  0.49874570  0.97003990  0.32059078  1
  H  H24  1  0.24058997  0.19758957  0.67791255  1
  H  H25  1  0.24930789  0.53160929  0.68211591  1
  H  H26  1  0.25065773  0.85876463  0.67248432  1
  H  H27  1  0.76204742  0.19666893  0.67856886  1
  H  H28  1  0.75588628  0.52979121  0.67653673  1
  H  H29  1  0.75464202  0.86161852  0.68184300  1
  H  H30  1  0.25143737  0.13163106  0.16928238  1
  H  H31  1  0.26831416  0.46804939  0.17854074  1
  H  H32  1  0.23331305  0.79979688  0.15023433  1
  H  H33  1  0.75085667  0.13601079  0.17585571  1
  H  H34  1  0.72836966  0.47393521  0.17349868  1
  H  H35  1  0.75031783  0.80730480  0.17911720  1
  H  H36  1  0.24004705  0.18854481  0.82349893  1
  H  H37  1  0.24379362  0.52821137  0.81914229  1
  H  H38  1  0.24996448  0.85896364  0.82816805  1
  H  H39  1  0.74867832  0.19378290  0.82392790  1
  H  H40  1  0.75819568  0.53196373  0.82427459  1
  H  H41  1  0.75612146  0.86325416  0.82320124  1
  H  H42  1  0.24645944  0.13722363  0.31539320  1
  H  H43  1  0.26720903  0.47010191  0.31587831  1
  H  H44  1  0.24322388  0.80875358  0.32785304  1
  H  H45  1  0.76639092  0.13363898  0.32464472  1
  H  H46  1  0.74094058  0.46477320  0.32048806  1
  H  H47  1  0.75928506  0.80313952  0.32319654  1
  H  H48  1  0.12521352  0.05886121  0.58924665  1
  H  H49  1  0.11656484  0.38877125  0.59284900  1
  H  H50  1  0.12614238  0.72069895  0.60255445  1
  H  H51  1  0.62523015  0.04637847  0.63186089  1
  H  H52  1  0.61894787  0.37762354  0.61403679  1
  H  H53  1  0.62851510  0.72182066  0.61650752  1
  H  H54  1  0.37030016  0.27201974  0.10609582  1
  H  H55  1  0.37247015  0.62003423  0.11773239  1
  H  H56  1  0.38027450  0.94245455  0.09295196  1
  H  H57  1  0.86327433  0.28296108  0.12462883  1
  H  H58  1  0.86716449  0.61714390  0.12456749  1
  H  H59  1  0.88086623  0.95329001  0.12126100  1
  H  H60  1  0.38320436  0.06057780  0.91415606  1
  H  H61  1  0.37162664  0.38746517  0.88886564  1
  H  H62  1  0.39049884  0.72825668  0.90162317  1
  H  H63  1  0.87733629  0.04840704  0.87723278  1
  H  H64  1  0.87333900  0.38989420  0.89363014  1
  H  H65  1  0.91390338  0.73014915  0.91818172  1
  H  H66  1  0.12157266  0.27600713  0.39761065  1
  H  H67  1  0.12727328  0.62104575  0.37400652  1
  H  H68  1  0.12742748  0.94550272  0.38203475  1
  H  H69  1  0.61431219  0.27334966  0.40347042  1
  H  H70  1  0.62830800  0.61494487  0.38357494  1
  H  H71  1  0.62623828  0.94824362  0.38709607  1
  H  H72  1  0.38082942  0.21577204  0.62535355  1
  H  H73  1  0.36883331  0.55265456  0.60767505  1
  H  H74  1  0.37000930  0.88882838  0.60181113  1
  H  H75  1  0.88215106  0.22462922  0.60628294  1
  H  H76  1  0.86076497  0.56489716  0.59468458  1
  H  H77  1  0.87167736  0.88250955  0.60658075  1
  H  H78  1  0.12581676  0.11062557  0.10282933  1
  H  H79  1  0.12440150  0.45144244  0.12913049  1
  H  H80  1  0.09380958  0.78160989  0.10046521  1
  H  H81  1  0.62705529  0.11233640  0.10484246  1
  H  H82  1  0.63526877  0.43823324  0.08482499  1
  H  H83  1  0.61153019  0.78552057  0.12176278  1
  H  H84  1  0.13672467  0.22188463  0.90802414  1
  H  H85  1  0.13925020  0.55953703  0.90111118  1
  H  H86  1  0.12295477  0.88703336  0.89529678  1
  H  H87  1  0.63573907  0.22209894  0.90313465  1
  H  H88  1  0.64155562  0.55605004  0.89996380  1
  H  H89  1  0.62382788  0.88814905  0.88552119  1
  H  H90  1  0.37389580  0.11494529  0.38179956  1
  H  H91  1  0.38354808  0.44279011  0.39092623  1
  H  H92  1  0.37033658  0.77955222  0.39363778  1
  H  H93  1  0.87499263  0.10550675  0.40817547  1
  H  H94  1  0.87996873  0.44807605  0.37830848  1
  H  H95  1  0.86762515  0.77545877  0.40737090  1
  H  H96  1  0.36676288  0.28092419  0.38594894  1
  H  H97  1  0.38025416  0.61376011  0.39687558  1
  H  H98  1  0.37701464  0.94332133  0.39072558  1
  H  H99  1  0.87468825  0.27937616  0.38414405  1
  H  H100  1  0.88526071  0.61118014  0.41182205  1
  H  H101  1  0.88019550  0.94186994  0.40254176  1
  H  H102  1  0.12194982  0.05724475  0.90925831  1
  H  H103  1  0.12200405  0.39170018  0.89997791  1
  H  H104  1  0.16116524  0.72264373  0.89391550  1
  H  H105  1  0.62409124  0.04643128  0.87212752  1
  H  H106  1  0.62081354  0.38507605  0.88396767  1
  H  H107  1  0.63782308  0.71852642  0.88616300  1
  H  H108  1  0.10952151  0.27181491  0.09558837  1
  H  H109  1  0.11237108  0.61028170  0.09106257  1
  H  H110  1  0.12689742  0.94478519  0.09368319  1
  H  H111  1  0.61863325  0.28168670  0.11569252  1
  H  H112  1  0.62045945  0.61131191  0.10584037  1
  H  H113  1  0.62704517  0.95102649  0.11555253  1
  H  H114  1  0.38244650  0.05848050  0.59287456  1
  H  H115  1  0.37247377  0.39358233  0.60564895  1
  H  H116  1  0.38110121  0.72284055  0.59644994  1
  H  H117  1  0.88392049  0.04666383  0.62809428  1
  H  H118  1  0.87171803  0.38332521  0.62097172  1
  H  H119  1  0.87733739  0.72315238  0.60218133  1
  H  H120  1  0.12442343  0.11553403  0.38726286  1
  H  H121  1  0.13499808  0.45332583  0.37851252  1
  H  H122  1  0.12143293  0.77783686  0.39797500  1
  H  H123  1  0.62943159  0.11494916  0.38275299  1
  H  H124  1  0.63360303  0.44018383  0.40381748  1
  H  H125  1  0.62123277  0.78243873  0.38197611  1
  H  H126  1  0.38027277  0.21197040  0.87583754  1
  H  H127  1  0.38416984  0.54671078  0.86933319  1
  H  H128  1  0.37167803  0.89012372  0.89785313  1
  H  H129  1  0.88292314  0.21565539  0.88343253  1
  H  H130  1  0.88937139  0.55439940  0.88434606  1
  H  H131  1  0.87193498  0.89055338  0.89946973  1
  H  H132  1  0.37452464  0.10960474  0.09997424  1
  H  H133  1  0.36710419  0.43947929  0.09091858  1
  H  H134  1  0.33790122  0.77111837  0.06739713  1
  H  H135  1  0.87648602  0.11242098  0.10996881  1
  H  H136  1  0.87452772  0.45751181  0.12887194  1
  H  H137  1  0.85928912  0.77945097  0.09942533  1
  H  H138  1  0.13637296  0.22689542  0.59263740  1
  H  H139  1  0.12088613  0.55534526  0.61961176  1
  H  H140  1  0.12132149  0.88265485  0.60708362  1
  H  H141  1  0.63396210  0.21698932  0.61083086  1
  H  H142  1  0.61616696  0.54477765  0.62098078  1
  H  H143  1  0.62291073  0.88508430  0.61951623  1
  H  H144  1  0.70589235  0.41959338  0.50994586  1
  H  H145  1  0.63758371  0.58645163  0.51700815  1
  H  H146  1  0.07080439  0.41873648  1.00434686  1
  H  H147  1  0.42344546  0.91405677  0.50027604  1
  H  H148  1  0.03442772  0.58467129  -0.00894215  1
  H  H149  1  0.42456813  0.40695713  0.99561827  1
  H  H150  1  0.15601694  0.58596435  0.50641297  1
  H  H151  1  0.78401404  0.58314513  0.49401277  1
  H  H152  1  0.88164843  0.25019314  0.01508319  1
  H  H153  1  0.97651824  0.76238100  1.02303610  1
  H  H154  1  0.44016260  0.58783342  0.50415740  1
  H  H155  1  0.79237712  0.74540677  -0.00505042  1
  H  H156  1  0.89999748  0.92117473  0.00644612  1
  H  H157  1  0.44506434  0.45113677  0.52351794  1
  H  H158  1  0.16211213  0.91397941  0.50195640  1
  H  H159  1  0.59354039  0.75106432  0.50952912  1
  H  H160  1  0.33327150  0.08694370  0.49407826  1
  H  H161  1  0.46096166  0.08616890  0.48968320  1
  H  H162  1  0.86903989  0.42118569  0.02141571  1
  H  H163  1  0.55819045  0.57974452  -0.00011325  1
  H  H164  1  0.63769795  0.75258126  0.01567105  1
  H  H165  1  0.32600595  0.41230811  0.49878564  1
  H  H166  1  0.81715835  0.91057629  0.49711912  1
  H  H167  1  0.37003543  0.58284384  -0.01825215  1
  H  H168  1  0.72426317  0.42283759  -0.01109981  1
  H  H169  1  0.16737592  0.42992906  0.49312762  1
  H  H170  1  0.86050832  0.58272067  -0.00015986  1
  H  H171  1  0.82826086  0.23830867  0.50155115  1
  H  H172  1  0.17322050  0.09437005  0.49954851  1
  H  H173  1  0.61635945  0.08131412  0.98070324  1
  H  H174  1  0.80307677  0.07615353  0.50615728  1
  H  H175  1  0.21694305  0.24740609  1.00627777  1
  H  H176  1  0.89593461  0.41817028  0.51430724  1
  H  H177  1  0.61731873  0.07783948  0.51814362  1
  H  H178  1  0.67954766  0.25916625  0.51247990  1
  H  H179  1  0.59055983  0.91546405  0.49702837  1
  H  H180  1  0.59929113  0.91908390  0.00768082  1
  H  H181  1  0.04058957  0.39905236  0.49203957  1
  H  H182  1  0.96889349  0.58795309  0.50902984  1
  H  H183  1  0.39661509  0.24984812  0.49506480  1
  H  H184  1  0.03754841  0.23933941  -0.00650351  1
  H  H185  1  0.56709904  0.38450527  0.50524800  1
  H  H186  1  0.28527541  0.41499089  -0.01003692  1
  H  H187  1  0.42877644  0.23954224  0.00143364  1
  H  H188  1  0.57827651  0.41318394  0.99549181  1
  H  H189  1  0.03835747  0.08377575  0.49301147  1
  H  H190  1  0.83639939  0.08124830  0.99904507  1
  H  H191  1  0.21139920  0.59052820  1.00444012  1
  Pb  Pb192  1  0.24975970  0.05019032  0.74967178  1
  Pb  Pb193  1  0.25336389  0.38466241  0.74510883  1
  Pb  Pb194  1  0.25718278  0.71625325  0.74345498  1
  Pb  Pb195  1  0.75488360  0.04872957  0.74613722  1
  Pb  Pb196  1  0.75163724  0.38189709  0.75419283  1
  Pb  Pb197  1  0.75092712  0.71770480  0.75871874  1
  Pb  Pb198  1  0.24704926  0.28375940  0.24027367  1
  Pb  Pb199  1  0.24870224  0.61919511  0.24623001  1
  Pb  Pb200  1  0.25385477  0.94789003  0.24596409  1
  Pb  Pb201  1  0.75090118  0.28225956  0.26255969  1
  Pb  Pb202  1  0.74888405  0.61840223  0.25782158  1
  Pb  Pb203  1  0.74873977  0.95188710  0.25352032  1
  Pb  Pb204  1  0.00686320  0.21926475  0.74973120  1
  Pb  Pb205  1  -0.00012899  0.55650214  0.74962148  1
  Pb  Pb206  1  0.00202214  0.88020298  0.75359324  1
  Pb  Pb207  1  0.50529837  0.21419171  0.75033090  1
  Pb  Pb208  1  0.50777287  0.54973343  0.75065662  1
  Pb  Pb209  1  0.49740290  0.88475280  0.75164348  1
  Pb  Pb210  1  0.00276021  0.11447644  0.25811130  1
  Pb  Pb211  1  -0.00047331  0.45215981  0.25466755  1
  Pb  Pb212  1  -0.00217880  0.78643420  0.25858369  1
  Pb  Pb213  1  0.49987208  0.11839574  0.24349845  1
  Pb  Pb214  1  0.50479802  0.44676337  0.24534757  1
  Pb  Pb215  1  0.49476524  0.78633019  0.24699593  1
  C  C216  1  0.01217229  0.04277655  0.63076375  1
  C  C217  1  -0.00087887  0.37814195  0.62942789  1
  C  C218  1  0.00151256  0.71410632  0.62196344  1
  C  C219  1  0.49746980  0.04542228  0.63217472  1
  C  C220  1  0.49335600  0.37656733  0.63203137  1
  C  C221  1  0.50154881  0.71416669  0.63010247  1
  C  C222  1  -0.00859885  0.28640649  0.13165884  1
  C  C223  1  -0.00389258  0.62382885  0.12879920  1
  C  C224  1  0.00758039  0.95699305  0.12791707  1
  C  C225  1  0.49209936  0.28623188  0.13371553  1
  C  C226  1  0.49909267  0.62492460  0.13448032  1
  C  C227  1  0.49965377  0.95695092  0.12528515  1
  C  C228  1  0.00609284  0.04292077  0.86930503  1
  C  C229  1  -0.00081072  0.38164740  0.87496386  1
  C  C230  1  0.03288832  0.71693440  0.88548986  1
  C  C231  1  0.49619063  0.04382881  0.87246740  1
  C  C232  1  0.49507931  0.37535079  0.86503040  1
  C  C233  1  0.51077034  0.71294144  0.86958174  1
  C  C234  1  0.00066393  0.28744689  0.36683803  1
  C  C235  1  -0.00106790  0.62646486  0.37016131  1
  C  C236  1  0.00031145  0.95283790  0.37017648  1
  C  C237  1  0.49347595  0.28780388  0.37351965  1
  C  C238  1  0.50210759  0.62251499  0.36714402  1
  C  C239  1  0.50076248  0.95400481  0.36804909  1
  C  C240  1  0.25256020  0.21275294  0.63135870  1
  C  C241  1  0.24555015  0.54665493  0.63458464  1
  C  C242  1  0.24696847  0.87607247  0.62579133  1
  C  C243  1  0.75924659  0.21215730  0.63089307  1
  C  C244  1  0.74391288  0.54617320  0.62999643  1
  C  C245  1  0.75000304  0.87605738  0.63417330  1
  C  C246  1  0.25058138  0.11712940  0.12124390  1
  C  C247  1  0.25285119  0.45315081  0.13220765  1
  C  C248  1  0.22096221  0.78367949  0.10385222  1
  C  C249  1  0.75199227  0.12081416  0.12831276  1
  C  C250  1  0.74619131  0.45720715  0.12821378  1
  C  C251  1  0.73964901  0.79046254  0.13264430  1
  C  C252  1  0.25205530  0.20645524  0.86915496  1
  C  C253  1  0.25647258  0.54449366  0.86552230  1
  C  C254  1  0.24795043  0.87780622  0.87419515  1
  C  C255  1  0.75562763  0.21058410  0.87055846  1
  C  C256  1  0.76371884  0.54740888  0.87160108  1
  C  C257  1  0.75019031  0.87963442  0.86993217  1
  C  C258  1  0.24826663  0.12270590  0.36334248  1
  C  C259  1  0.26156066  0.45617935  0.36384451  1
  C  C260  1  0.24513271  0.78927869  0.37348072  1
  C  C261  1  0.75720632  0.11842429  0.37176313  1
  C  C262  1  0.75194068  0.45185148  0.36819715  1
  C  C263  1  0.74941165  0.78783604  0.37035598  1
  C  C264  1  0.52147700  0.25354213  0.46775038  1
  C  C265  1  0.52526300  0.59296295  0.04126695  1
  C  C266  1  0.94871466  0.93018373  0.03983117  1
  C  C267  1  0.48760589  0.08000638  0.96817811  1
  C  C268  1  0.69890398  0.90200941  0.54384661  1
  C  C269  1  0.26027314  0.42605021  0.03521012  1
  C  C270  1  0.54587649  0.92642313  0.46034138  1
  C  C271  1  0.04272573  0.74391439  0.53156619  1
  C  C272  1  0.24036685  0.75246519  0.00660527  1
  C  C273  1  0.46420009  0.25356253  0.04110383  1
  C  C274  1  0.00934797  0.25344004  0.03668940  1
  C  C275  1  0.73452432  0.42950083  0.46571135  1
  C  C276  1  0.28308303  0.90973622  0.53293161  1
  C  C277  1  0.28894473  0.09135016  0.02881479  1
  C  C278  1  0.19920331  0.57460834  0.54257138  1
  C  C279  1  0.21128719  0.75187092  0.46292810  1
  C  C280  1  0.28056703  0.57361806  0.54014685  1
  C  C281  1  0.73264870  0.57492985  0.96665947  1
  C  C282  1  0.93142772  0.59372375  0.04476317  1
  C  C283  1  0.79354546  0.09261008  0.03512596  1
  C  C284  1  0.46363351  0.92534358  0.46195181  1
  C  C285  1  0.21065652  0.10014892  0.45875752  1
  C  C286  1  0.81404551  0.57367905  0.96295476  1
  C  C287  1  0.71169387  0.09387843  0.03482072  1
  C  C288  1  0.48625045  0.07386345  0.53432429  1
  C  C289  1  0.24017657  0.57652779  0.96157477  1
  C  C290  1  0.20878623  0.09145418  0.02967935  1
  C  C291  1  0.02966904  0.92746998  0.03196485  1
  C  C292  1  0.28222744  0.91267607  0.96487045  1
  C  C293  1  0.29215955  0.42884808  0.45939283  1
  C  C294  1  0.31227071  0.23820145  0.54536970  1
  C  C295  1  0.32079755  0.57296113  0.95009059  1
  C  C296  1  0.21060486  0.43468608  0.45573231  1
  C  C297  1  0.80648476  0.23808266  0.95939562  1
  C  C298  1  0.76247858  0.75814834  0.03798818  1
  C  C299  1  0.78028631  0.90125324  0.53769536  1
  C  C300  1  0.47478330  0.59742892  0.46244954  1
  C  C301  1  0.09183147  0.74452902  0.97374559  1
  C  C302  1  0.15747246  0.75672103  0.01660010  1
  C  C303  1  0.95305230  0.40774906  0.96759053  1
  C  C304  1  0.96245725  0.74477122  0.53128150  1
  C  C305  1  0.29256805  0.09801674  0.45646786  1
  C  C306  1  0.77846624  0.91134358  0.96373005  1
  C  C307  1  0.53925726  0.40377698  0.95626790  1
  C  C308  1  0.47545702  0.92128449  0.03117720  1
  C  C309  1  1.00940577  0.74841692  0.98188346  1
  C  C310  1  0.97750311  0.91975954  0.46413465  1
  C  C311  1  0.56601168  0.06970464  0.54839086  1
  N  N312  1  0.03228085  0.40890195  0.96845900  1
  N  N313  1  0.01828308  0.40899613  0.53524903  1
  N  N314  1  0.05477998  0.92161214  0.45853502  1
  N  N315  1  0.76907204  0.75863244  0.46654058  1
  N  N316  1  0.77510634  0.09037272  0.46614517  1
  N  N317  1  0.44637053  0.59568326  0.04534074  1
  N  N318  1  0.69338919  0.76135713  0.45844352  1
  N  N319  1  0.01909286  0.07830618  0.53837197  1
  N  N320  1  0.31689457  0.23680935  0.95224837  1
  N  N321  1  0.68364375  0.56905003  0.54457261  1
  N  N322  1  0.71546991  0.23171640  0.53843183  1
  N  N323  1  0.55377544  0.92571981  0.03956027  1
  N  N324  1  0.45956543  0.40569773  0.95668977  1
  N  N325  1  0.93094084  0.25638617  0.04757763  1
  N  N326  1  0.69793440  0.09313612  0.45881892  1
  N  N327  1  0.20515934  0.91160497  0.96533654  1
  N  N328  1  0.06641272  0.59792603  0.45235845  1
  N  N329  1  0.74194238  0.42089826  0.03507331  1
  N  N330  1  0.48513151  0.74500722  0.96371878  1
  N  N331  1  0.81722618  0.43554370  0.04746591  1
  N  N332  1  0.81290534  0.43319051  0.45738025  1
  N  N333  1  0.44312048  0.25794971  0.46132841  1
  N  N334  1  0.28857532  0.75245651  0.46298914  1
  N  N335  1  0.70067722  0.91029204  0.96029495  1
  N  N336  1  0.47311478  0.74249029  0.53476231  1
  N  N337  1  0.46084500  0.40961157  0.53940551  1
  N  N338  1  0.56108401  0.74082771  0.95881232  1
  N  N339  1  0.24006039  0.24036453  0.96195974  1
  N  N340  1  0.23614733  0.24217618  0.53358356  1
  N  N341  1  0.02856812  0.25634335  0.46125163  1
  N  N342  1  0.54419064  0.40620166  0.54327583  1
  N  N343  1  0.55061922  0.74261526  0.54303180  1
  N  N344  1  0.56382460  0.07413748  0.95308408  1
  N  N345  1  0.00941580  0.59079459  0.03467452  1
  N  N346  1  0.20407902  0.90711082  0.53627466  1
  N  N347  1  0.94574701  0.07187313  0.95490670  1
  N  N348  1  0.95197729  0.25643728  0.45628068  1
  N  N349  1  0.99027404  0.59447464  0.46399506  1
  N  N350  1  0.02049759  0.07485107  0.96519843  1
  N  N351  1  0.94259730  0.07408440  0.55029779  1
  N  N352  1  0.79419368  0.24566513  0.54056530  1
  N  N353  1  0.55392459  0.59784594  0.45843030  1
  N  N354  1  0.94012766  0.39979098  0.54304873  1
  N  N355  1  0.18292712  0.42956541  0.04784770  1
  N  N356  1  0.68395962  0.75864212  0.04794361  1
  N  N357  1  0.54318325  0.25694202  0.04361947  1
  N  N358  1  0.72935536  0.24173019  0.96640647  1
  N  N359  1  0.76020632  0.58390993  0.53858374  1
  N  N360  1  0.06287570  0.05608691  0.58566870  1
  N  N361  1  0.05464140  0.38569376  0.58613177  1
  N  N362  1  0.06736922  0.72540236  0.58702376  1
  N  N363  1  0.57140507  0.05240474  0.60899873  1
  N  N364  1  0.55966052  0.37884797  0.59834124  1
  N  N365  1  0.56951451  0.72524926  0.60064883  1
  N  N366  1  0.43109523  0.27152609  0.09607966  1
  N  N367  1  0.43152085  0.61566763  0.10359685  1
  N  N368  1  0.44176286  0.94068568  0.08409291  1
  N  N369  1  0.92052240  0.27742483  0.10582855  1
  N  N370  1  0.92300841  0.61253847  0.10374346  1
  N  N371  1  0.93663359  0.94842865  0.10068819  1
  N  N372  1  0.44530324  0.06121120  0.91830852  1
  N  N373  1  0.43235888  0.38478856  0.90130861  1
  N  N374  1  0.45283714  0.72792645  0.90875911  1
  N  N375  1  0.93523299  0.05249063  0.89519271  1
  N  N376  1  0.93234125  0.39181748  0.90927497  1
  N  N377  1  0.97516937  0.73094762  0.92677255  1
  N  N378  1  0.05983009  0.27542149  0.40611332  1
  N  N379  1  0.07136419  0.61589557  0.39365916  1
  N  N380  1  0.06891415  0.94234415  0.39878921  1
  N  N381  1  0.55308396  0.27196138  0.41342017  1
  N  N382  1  0.56939093  0.61314964  0.39831230  1
  N  N383  1  0.56711975  0.94421349  0.40167665  1
  N  N384  1  0.32496912  0.22084714  0.60511053  1
  N  N385  1  0.30823964  0.55703196  0.59567177  1
  N  N386  1  0.30978214  0.89115976  0.58866821  1
  N  N387  1  0.82157071  0.22193124  0.59411735  1
  N  N388  1  0.79854469  0.55990314  0.58764843  1
  N  N389  1  0.81096211  0.88500701  0.59518599  1
  N  N390  1  0.18449700  0.10690165  0.08610585  1
  N  N391  1  0.18026874  0.44625624  0.10848211  1
  N  N392  1  0.14894860  0.77600256  0.07841298  1
  N  N393  1  0.68734250  0.11071440  0.09153661  1
  N  N394  1  0.69709387  0.44421328  0.08159152  1
  N  N395  1  0.67007976  0.77903726  0.10596863  1
  N  N396  1  0.19908955  0.21962056  0.91270313  1
  N  N397  1  0.20148492  0.55864368  0.90850427  1
  N  N398  1  0.18334533  0.88941702  0.90762618  1
  N  N399  1  0.69792021  0.22400951  0.90995604  1
  N  N400  1  0.70257685  0.55907073  0.91157765  1
  N  N401  1  0.68318499  0.89027218  0.90053494  1
  N  N402  1  0.31462004  0.11193888  0.39686518  1
  N  N403  1  0.32264250  0.44271637  0.40203639  1
  N  N404  1  0.30993956  0.77617032  0.40617665  1
  N  N405  1  0.81286511  0.10589101  0.41355789  1
  N  N406  1  0.82215470  0.44657096  0.39631563  1
  N  N407  1  0.80511514  0.77494654  0.41222949  1
  N  N408  1  0.42518498  0.27989092  0.40344818  1
  N  N409  1  0.44174923  0.61189365  0.40678517  1
  N  N410  1  0.43717838  0.94256173  0.40414402  1
  N  N411  1  0.93378622  0.27570462  0.39767949  1
  N  N412  1  0.94766179  0.61463107  0.41538572  1
  N  N413  1  0.94195158  0.93876612  0.41105126  1
  N  N414  1  0.05954234  0.05654008  0.91272821  1
  N  N415  1  0.06112608  0.39209387  0.91143087  1
  N  N416  1  0.10372804  0.72455474  0.91324088  1
  N  N417  1  0.56944395  0.05163949  0.89423267  1
  N  N418  1  0.56157099  0.38654534  0.89899370  1
  N  N419  1  0.57853900  0.72037061  0.90078833  1
  N  N420  1  0.04725538  0.27191640  0.08876546  1
  N  N421  1  0.04985014  0.61268247  0.08539877  1
  N  N422  1  0.06513876  0.94342450  0.08510983  1
  N  N423  1  0.55879765  0.27674792  0.10159975  1
  N  N424  1  0.55904273  0.61033486  0.09582020  1
  N  N425  1  0.56916687  0.94850768  0.09726205  1
  N  N426  1  0.44449738  0.05853930  0.58710003  1
  N  N427  1  0.43396496  0.39744227  0.59775062  1
  N  N428  1  0.44301880  0.72498097  0.58941095  1
  N  N429  1  0.93932218  0.05418527  0.60859476  1
  N  N430  1  0.92889140  0.39054875  0.60365733  1
  N  N431  1  0.93645886  0.72684774  0.58650215  1
  N  N432  1  0.18438757  0.11511909  0.40037511  1
  N  N433  1  0.19296938  0.45114971  0.39594531  1
  N  N434  1  0.18173488  0.77399594  0.40905689  1
  N  N435  1  0.68709368  0.11040931  0.40014284  1
  N  N436  1  0.69570157  0.44089631  0.41135926  1
  N  N437  1  0.67986867  0.77961674  0.39881386  1
  N  N438  1  0.32355485  0.21780245  0.89386756  1
  N  N439  1  0.32939481  0.55329890  0.89052108  1
  N  N440  1  0.31143844  0.89254555  0.90997566  1
  N  N441  1  0.82533632  0.22001631  0.90066062  1
  N  N442  1  0.83197684  0.55676681  0.90239812  1
  N  N443  1  0.81062659  0.89274298  0.90936352  1
  N  N444  1  0.31533706  0.10672480  0.08478401  1
  N  N445  1  0.30481177  0.44015301  0.08657542  1
  N  N446  1  0.27671448  0.76898650  0.05927880  1
  N  N447  1  0.81723821  0.10966310  0.09455364  1
  N  N448  1  0.82007511  0.44840508  0.10776206  1
  N  N449  1  0.79742180  0.77713287  0.09088175  1
  N  N450  1  0.19880873  0.22557866  0.58844300  1
  N  N451  1  0.17857334  0.55755291  0.60250799  1
  N  N452  1  0.18128029  0.88535199  0.59300120  1
  N  N453  1  0.69374398  0.22308629  0.59812436  1
  N  N454  1  0.67270225  0.55487220  0.60418387  1
  N  N455  1  0.68118907  0.88712801  0.60237147  1
  Cl  Cl456  1  0.25107073  0.05778520  0.61007546  1
  Cl  Cl457  1  0.24421681  0.39213370  0.60917455  1
  Cl  Cl458  1  0.25755308  0.72093064  0.61437682  1
  Cl  Cl459  1  0.75795339  0.05223814  0.61063937  1
  Cl  Cl460  1  0.74288527  0.38450858  0.61675532  1
  Cl  Cl461  1  0.75166319  0.71876922  0.62671385  1
  Cl  Cl462  1  0.23408237  0.27025374  0.10034651  1
  Cl  Cl463  1  0.23464124  0.61545430  0.11049303  1
  Cl  Cl464  1  0.25466220  0.94461987  0.11316898  1
  Cl  Cl465  1  0.74057683  0.28970974  0.13199360  1
  Cl  Cl466  1  0.74184555  0.61183610  0.12603698  1
  Cl  Cl467  1  0.75005124  0.94583582  0.12317435  1
  Cl  Cl468  1  0.25019553  0.05914815  0.88661657  1
  Cl  Cl469  1  0.24784433  0.39071396  0.88435323  1
  Cl  Cl470  1  0.27708678  0.72620423  0.87924046  1
  Cl  Cl471  1  0.75174103  0.05157855  0.87699484  1
  Cl  Cl472  1  0.74591296  0.39919223  0.89245679  1
  Cl  Cl473  1  0.77163813  0.72428402  0.89425716  1
  Cl  Cl474  1  0.24333970  0.27768574  0.37157094  1
  Cl  Cl475  1  0.25737089  0.61470860  0.37771166  1
  Cl  Cl476  1  0.25173803  0.93923033  0.38175183  1
  Cl  Cl477  1  0.74155417  0.27540700  0.39981177  1
  Cl  Cl478  1  0.76460779  0.60253929  0.39793529  1
  Cl  Cl479  1  0.75694897  0.94849617  0.38789353  1
  Cl  Cl480  1  0.00729609  0.22714388  0.61735853  1
  Cl  Cl481  1  -0.02015218  0.56574104  0.60368912  1
  Cl  Cl482  1  -0.00090714  0.88417550  0.62093648  1
  Cl  Cl483  1  0.50975624  0.22387288  0.61531580  1
  Cl  Cl484  1  0.49006671  0.54581208  0.61277699  1
  Cl  Cl485  1  0.49450075  0.88877625  0.61868826  1
  Cl  Cl486  1  0.00273123  0.11594337  0.12796575  1
  Cl  Cl487  1  -0.00149838  0.45105648  0.12071816  1
  Cl  Cl488  1  -0.02423919  0.78332587  0.12420683  1
  Cl  Cl489  1  0.50387640  0.10581878  0.11006070  1
  Cl  Cl490  1  0.50118669  0.43540203  0.10057979  1
  Cl  Cl491  1  0.48272384  0.78461703  0.11590677  1
  Cl  Cl492  1  0.01481621  0.22512594  0.88879153  1
  Cl  Cl493  1  0.01962151  0.56466119  0.89384836  1
  Cl  Cl494  1  -0.00421309  0.89014376  0.88875582  1
  Cl  Cl495  1  0.51099218  0.21678313  0.88317027  1
  Cl  Cl496  1  0.52006402  0.55087193  0.88406610  1
  Cl  Cl497  1  0.49709710  0.89465994  0.88660983  1
  Cl  Cl498  1  -0.00137249  0.10391488  0.39862826  1
  Cl  Cl499  1  0.00792538  0.43933889  0.39013362  1
  Cl  Cl500  1  -0.00827274  0.77699967  0.39302438  1
  Cl  Cl501  1  0.50002033  0.11646886  0.37774174  1
  Cl  Cl502  1  0.50946686  0.43719175  0.38946989  1
  Cl  Cl503  1  0.49667121  0.77872939  0.38096427  1
  Cl  Cl504  1  0.36554784  0.14913407  0.74804097  1
  Cl  Cl505  1  0.35968758  0.47956233  0.75418777  1
  Cl  Cl506  1  0.35868520  0.82051021  0.74566558  1
  Cl  Cl507  1  0.85928274  0.14938355  0.75394821  1
  Cl  Cl508  1  0.86077823  0.48383260  0.74610730  1
  Cl  Cl509  1  0.86023741  0.81793902  0.75328095  1
  Cl  Cl510  1  0.13922284  0.18131579  0.24749406  1
  Cl  Cl511  1  0.13719748  0.51752680  0.25343865  1
  Cl  Cl512  1  0.13546069  0.85076262  0.24047335  1
  Cl  Cl513  1  0.63926685  0.18190801  0.25513183  1
  Cl  Cl514  1  0.63940250  0.51534415  0.25415394  1
  Cl  Cl515  1  0.63423555  0.85230428  0.25208682  1
  Cl  Cl516  1  0.14350370  0.15212700  0.74672453  1
  Cl  Cl517  1  0.13793420  0.48346782  0.74551118  1
  Cl  Cl518  1  0.14192953  0.81426958  0.75688097  1
  Cl  Cl519  1  0.64047797  0.14685201  0.73985582  1
  Cl  Cl520  1  0.63960680  0.48200928  0.74298327  1
  Cl  Cl521  1  0.63957920  0.80960649  0.75737535  1
  Cl  Cl522  1  0.36052390  0.18460085  0.23773319  1
  Cl  Cl523  1  0.36032346  0.51926207  0.24219314  1
  Cl  Cl524  1  0.35164064  0.84770165  0.25410082  1
  Cl  Cl525  1  0.85586176  0.18668829  0.25562623  1
  Cl  Cl526  1  0.86163970  0.51834913  0.24836105  1
  Cl  Cl527  1  0.85596454  0.84943423  0.25156430  1
  Cl  Cl528  1  0.10128030  0.32037475  0.75466433  1
  Cl  Cl529  1  0.11075992  0.64757431  0.74455733  1
  Cl  Cl530  1  0.11128785  0.98333805  0.75277852  1
  Cl  Cl531  1  0.61172790  0.31766996  0.74681919  1
  Cl  Cl532  1  0.61490385  0.64523229  0.74256021  1
  Cl  Cl533  1  0.61941714  0.97865096  0.74659670  1
  Cl  Cl534  1  0.39094003  0.01580122  0.25166971  1
  Cl  Cl535  1  0.38242900  0.35319946  0.25311491  1
  Cl  Cl536  1  0.39003267  0.68140661  0.24450782  1
  Cl  Cl537  1  0.88816808  0.01629303  0.24401353  1
  Cl  Cl538  1  0.88408738  0.35310951  0.25279110  1
  Cl  Cl539  1  0.88642605  0.68419607  0.24853322  1
  Cl  Cl540  1  0.38813964  0.31314778  0.75035073  1
  Cl  Cl541  1  0.39608253  0.65079610  0.75048074  1
  Cl  Cl542  1  0.39733788  0.98494078  0.74967822  1
  Cl  Cl543  1  0.88524138  0.31444653  0.74771458  1
  Cl  Cl544  1  0.90139075  0.65112540  0.76149486  1
  Cl  Cl545  1  0.88977819  0.98125482  0.74618420  1
  Cl  Cl546  1  0.10681805  0.01844148  0.26225677  1
  Cl  Cl547  1  0.10755945  0.35014519  0.24302665  1
  Cl  Cl548  1  0.10669343  0.68380981  0.25230406  1
  Cl  Cl549  1  0.60994150  0.01701794  0.25104198  1
  Cl  Cl550  1  0.60098585  0.35029056  0.25443825  1
  Cl  Cl551  1  0.61151094  0.68635194  0.25792340  1
