# generated using pymatgen
data_H8PbC4(N3Cl2)2
_symmetry_space_group_name_H-M   'P 1'
_cell_length_a   16.62232286
_cell_length_b   22.50306948
_cell_length_c   21.58874304
_cell_angle_alpha   90.00138166
_cell_angle_beta   90.00000506
_cell_angle_gamma   90.00367054
_symmetry_Int_Tables_number   1
_chemical_formula_structural   H8PbC4(N3Cl2)2
_chemical_formula_sum   'H192 Pb24 C96 N144 Cl96'
_cell_volume   8075.34026259
_cell_formula_units_Z   24
loop_
 _symmetry_equiv_pos_site_id
 _symmetry_equiv_pos_as_xyz
  1  'x, y, z'
loop_
 _atom_site_type_symbol
 _atom_site_label
 _atom_site_symmetry_multiplicity
 _atom_site_fract_x
 _atom_site_fract_y
 _atom_site_fract_z
 _atom_site_occupancy
  H  H0  1  0.00668561  0.03409495  0.68041917  1
  H  H1  1  -0.00260902  0.36564914  0.67962385  1
  H  H2  1  0.00157461  0.69792135  0.67669507  1
  H  H3  1  0.49169541  0.03200143  0.67941400  1
  H  H4  1  0.50527432  0.36315493  0.68192598  1
  H  H5  1  0.49977801  0.69888119  0.68043676  1
  H  H6  1  -0.00240879  0.30060450  0.18012822  1
  H  H7  1  0.00765022  0.63487235  0.17809742  1
  H  H8  1  0.00330582  0.96733113  0.17653598  1
  H  H9  1  0.50576994  0.30177116  0.17850131  1
  H  H10  1  0.49589073  0.63316327  0.18077639  1
  H  H11  1  0.50592717  0.96793969  0.18159004  1
  H  H12  1  0.00430634  0.02945687  0.81842972  1
  H  H13  1  0.00084901  0.36536991  0.82182774  1
  H  H14  1  0.00038942  0.69698290  0.81913827  1
  H  H15  1  0.48919281  0.02994729  0.82040056  1
  H  H16  1  0.49804080  0.36590543  0.81907719  1
  H  H17  1  0.50823299  0.69938388  0.82091510  1
  H  H18  1  -0.00614874  0.30181924  0.31789172  1
  H  H19  1  0.00107605  0.63476110  0.32000420  1
  H  H20  1  0.00677044  0.96802081  0.31878346  1
  H  H21  1  0.50275742  0.30218310  0.32055218  1
  H  H22  1  0.50702126  0.63282177  0.31857308  1
  H  H23  1  0.49568051  0.96787134  0.31925386  1
  H  H24  1  0.25331511  0.19999970  0.68057809  1
  H  H25  1  0.24799682  0.53181539  0.68089244  1
  H  H26  1  0.24682515  0.86586758  0.68238995  1
  H  H27  1  0.75053690  0.19703062  0.67979712  1
  H  H28  1  0.74500270  0.52979934  0.67925043  1
  H  H29  1  0.75501151  0.86601648  0.68091658  1
  H  H30  1  0.24467352  0.13452096  0.18141348  1
  H  H31  1  0.25552900  0.46760075  0.17839643  1
  H  H32  1  0.24922066  0.80107863  0.17923495  1
  H  H33  1  0.76020280  0.13374986  0.18221237  1
  H  H34  1  0.74626886  0.46980565  0.17929819  1
  H  H35  1  0.74704926  0.80308300  0.18007759  1
  H  H36  1  0.24600991  0.19933038  0.82025812  1
  H  H37  1  0.25421104  0.53173855  0.82110710  1
  H  H38  1  0.25051470  0.86488785  0.82057857  1
  H  H39  1  0.74831613  0.19999292  0.82178190  1
  H  H40  1  0.74324947  0.53153569  0.82247978  1
  H  H41  1  0.74309306  0.86529145  0.82172563  1
  H  H42  1  0.24965544  0.13683244  0.31856285  1
  H  H43  1  0.25542126  0.46927423  0.32000509  1
  H  H44  1  0.26460844  0.80044129  0.31772197  1
  H  H45  1  0.75047299  0.13734685  0.32224489  1
  H  H46  1  0.75122849  0.46700311  0.31841953  1
  H  H47  1  0.73844827  0.80182911  0.32270911  1
  H  H48  1  0.11950948  0.05641941  0.60225349  1
  H  H49  1  0.12929646  0.38453323  0.61665099  1
  H  H50  1  0.12087738  0.72506362  0.60286568  1
  H  H51  1  0.62640433  0.05101305  0.61770459  1
  H  H52  1  0.62729428  0.38662412  0.60930952  1
  H  H53  1  0.62258351  0.72030027  0.60816565  1
  H  H54  1  0.36681446  0.28355169  0.12351154  1
  H  H55  1  0.37894614  0.61079255  0.10546195  1
  H  H56  1  0.37357379  0.94545804  0.11658198  1
  H  H57  1  0.86589416  0.28066103  0.11620990  1
  H  H58  1  0.87290035  0.61443983  0.11931568  1
  H  H59  1  0.87132702  0.94647066  0.11260547  1
  H  H60  1  0.38209693  0.05910046  0.90446961  1
  H  H61  1  0.37673533  0.38945181  0.89378245  1
  H  H62  1  0.36850319  0.71664054  0.87633556  1
  H  H63  1  0.87679263  0.05300555  0.88484592  1
  H  H64  1  0.87448856  0.38650691  0.89139906  1
  H  H65  1  0.87353147  0.72155645  0.88817612  1
  H  H66  1  0.12320495  0.28065946  0.38626345  1
  H  H67  1  0.11867231  0.61010308  0.39660103  1
  H  H68  1  0.11829680  0.94409142  0.39930409  1
  H  H69  1  0.62514886  0.27812449  0.39242656  1
  H  H70  1  0.61457554  0.60938663  0.40082498  1
  H  H71  1  0.62164434  0.94870836  0.38697679  1
  H  H72  1  0.37569125  0.22090298  0.60774767  1
  H  H73  1  0.37835420  0.55356766  0.61606054  1
  H  H74  1  0.37842621  0.88607046  0.61560632  1
  H  H75  1  0.87484635  0.21991511  0.60708464  1
  H  H76  1  0.87997403  0.55021266  0.61982439  1
  H  H77  1  0.87941147  0.88975853  0.60905602  1
  H  H78  1  0.12315870  0.11010544  0.10874158  1
  H  H79  1  0.12615914  0.44843364  0.11470599  1
  H  H80  1  0.13316509  0.77877374  0.10352412  1
  H  H81  1  0.62027878  0.11632837  0.12900748  1
  H  H82  1  0.62609473  0.44531431  0.10617827  1
  H  H83  1  0.63134186  0.77534731  0.10318319  1
  H  H84  1  0.13364532  0.22456023  0.89916582  1
  H  H85  1  0.12219205  0.55238466  0.88451891  1
  H  H86  1  0.12900451  0.88732385  0.89472120  1
  H  H87  1  0.63480767  0.22457470  0.90147585  1
  H  H88  1  0.62940233  0.55689722  0.90213885  1
  H  H89  1  0.63110009  0.89152201  0.90148664  1
  H  H90  1  0.37473943  0.11434480  0.38841136  1
  H  H91  1  0.37053057  0.44374225  0.39711783  1
  H  H92  1  0.37212031  0.77693858  0.40207401  1
  H  H93  1  0.87528079  0.11243402  0.39143910  1
  H  H94  1  0.87413454  0.44476918  0.38981645  1
  H  H95  1  0.87930694  0.78191311  0.37269394  1
  H  H96  1  0.37620652  0.27930754  0.38976892  1
  H  H97  1  0.36758352  0.61624701  0.37368019  1
  H  H98  1  0.37225902  0.94525049  0.39065256  1
  H  H99  1  0.87466583  0.27847470  0.39491814  1
  H  H100  1  0.87038691  0.61251037  0.38444220  1
  H  H101  1  0.87076276  0.94915992  0.37959868  1
  H  H102  1  0.12632559  0.05565979  0.89204470  1
  H  H103  1  0.12372587  0.38912322  0.89266126  1
  H  H104  1  0.12206500  0.72015420  0.89123198  1
  H  H105  1  0.62773348  0.04896808  0.87436751  1
  H  H106  1  0.62595680  0.38650335  0.88751290  1
  H  H107  1  0.61482537  0.72450603  0.90474111  1
  H  H108  1  0.11471132  0.27959953  0.10517494  1
  H  H109  1  0.11964484  0.60881770  0.09668095  1
  H  H110  1  0.11982388  0.94118589  0.10075608  1
  H  H111  1  0.61310731  0.27490882  0.09510725  1
  H  H112  1  0.62793621  0.61390861  0.11778785  1
  H  H113  1  0.62147756  0.94425908  0.10211029  1
  H  H114  1  0.37946029  0.05814958  0.59796147  1
  H  H115  1  0.37808787  0.38572407  0.61221135  1
  H  H116  1  0.37410294  0.72172164  0.61090419  1
  H  H117  1  0.87163940  0.05147441  0.62055688  1
  H  H118  1  0.88068518  0.38781829  0.60456411  1
  H  H119  1  0.87313506  0.71853083  0.60905056  1
  H  H120  1  0.12484274  0.11173115  0.38860870  1
  H  H121  1  0.12184968  0.44863365  0.38251836  1
  H  H122  1  0.12583158  0.78067146  0.37484623  1
  H  H123  1  0.62652411  0.11241661  0.39310625  1
  H  H124  1  0.62522061  0.44520716  0.38896707  1
  H  H125  1  0.63553072  0.77410277  0.40910693  1
  H  H126  1  0.38186538  0.21978938  0.88045155  1
  H  H127  1  0.37093625  0.55587076  0.89871920  1
  H  H128  1  0.37769778  0.88766476  0.89008740  1
  H  H129  1  0.88283668  0.22026162  0.88255978  1
  H  H130  1  0.87684353  0.55211805  0.88552149  1
  H  H131  1  0.87843025  0.88426124  0.88247272  1
  H  H132  1  0.37195196  0.11307506  0.11273950  1
  H  H133  1  0.37497581  0.44446486  0.10398031  1
  H  H134  1  0.38204172  0.78010852  0.11772432  1
  H  H135  1  0.86605689  0.11015340  0.09882161  1
  H  H136  1  0.87501637  0.44544713  0.11236235  1
  H  H137  1  0.88026078  0.78246476  0.11828528  1
  H  H138  1  0.12634028  0.22018813  0.61443228  1
  H  H139  1  0.12994861  0.55499694  0.60364778  1
  H  H140  1  0.12951553  0.88899242  0.60593927  1
  H  H141  1  0.62587056  0.22058969  0.60750989  1
  H  H142  1  0.63178487  0.55753387  0.59997810  1
  H  H143  1  0.63081776  0.88683954  0.60879961  1
  H  H144  1  0.19839159  0.25408787  1.00622003  1
  H  H145  1  0.70119996  0.25166940  1.00405501  1
  H  H146  1  0.57972690  0.92133721  0.49984926  1
  H  H147  1  0.15099922  0.41873995  0.48963287  1
  H  H148  1  0.29887197  0.75275810  0.50669928  1
  H  H149  1  0.43600260  0.58343944  -0.00507277  1
  H  H150  1  0.71373478  0.75034654  0.50802650  1
  H  H151  1  0.45019075  0.08329330  0.49643305  1
  H  H152  1  0.31150215  0.41396387  0.50391308  1
  H  H153  1  0.35452538  0.24874249  0.98966892  1
  H  H154  1  0.16003501  0.41790585  0.00153496  1
  H  H155  1  0.58222218  0.41746561  0.99688387  1
  H  H156  1  0.82897156  0.91972567  0.50561396  1
  H  H157  1  0.79415766  0.08358386  -0.00751887  1
  H  H158  1  0.42527262  0.72978688  0.50347315  1
  H  H159  1  0.54563900  0.58336029  0.50756546  1
  H  H160  1  0.54300283  0.74971911  1.00988499  1
  H  H161  1  0.69743448  0.57693668  0.49611544  1
  H  H162  1  0.16599865  0.25017944  0.50184654  1
  H  H163  1  0.18805153  0.74961209  -0.00488628  1
  H  H164  1  0.91851222  0.08260113  0.99627014  1
  H  H165  1  0.06605178  0.74309078  0.49780840  1
  H  H166  1  0.34385242  0.58275297  0.50447702  1
  H  H167  1  0.54052225  0.24857978  -0.00528603  1
  H  H168  1  0.61038813  0.08042121  0.98860015  1
  H  H169  1  0.93408966  0.41542434  0.49535809  1
  H  H170  1  0.91990621  0.41503578  0.99632536  1
  H  H171  1  0.33006385  0.91376974  0.99561514  1
  H  H172  1  0.32788315  0.08909920  0.50023788  1
  H  H173  1  0.32070962  0.07011607  0.01409078  1
  H  H174  1  0.90795964  0.91595857  0.00633838  1
  H  H175  1  0.85386881  0.58047251  0.50702765  1
  H  H176  1  0.05836539  0.25244693  -0.00577043  1
  H  H177  1  0.69348984  0.75403000  -0.00157488  1
  H  H178  1  0.05659696  0.08219803  0.49214630  1
  H  H179  1  0.07003829  0.06888035  0.99911897  1
  H  H180  1  0.18923086  0.91416526  0.49749462  1
  H  H181  1  0.56703865  0.76104898  0.50985628  1
  H  H182  1  0.91138751  0.74998183  0.50371985  1
  H  H183  1  0.57506294  0.41384029  0.50070820  1
  H  H184  1  0.38556103  0.74647683  0.98646635  1
  H  H185  1  0.05073743  0.91861379  0.50589515  1
  H  H186  1  0.30755263  0.58110863  1.00302603  1
  H  H187  1  0.18219099  0.10573827  0.00213201  1
  H  H188  1  0.84852111  0.75156781  0.00695673  1
  H  H189  1  0.17506657  0.09445804  0.49684786  1
  H  H190  1  0.84333398  0.58072362  0.99274054  1
  H  H191  1  0.45588325  0.07762862  1.00554255  1
  Pb  Pb192  1  0.25192431  0.05096084  0.74514830  1
  Pb  Pb193  1  0.25080053  0.37913495  0.75072386  1
  Pb  Pb194  1  0.24920004  0.71121856  0.74651458  1
  Pb  Pb195  1  0.75106545  0.04353308  0.75229059  1
  Pb  Pb196  1  0.75201683  0.38091005  0.74914797  1
  Pb  Pb197  1  0.74879452  0.71430884  0.75485791  1
  Pb  Pb198  1  0.24465847  0.28633234  0.24931603  1
  Pb  Pb199  1  0.24323093  0.61908456  0.24267853  1
  Pb  Pb200  1  0.24605531  0.95155977  0.25008368  1
  Pb  Pb201  1  0.74539194  0.28756017  0.24468095  1
  Pb  Pb202  1  0.74939570  0.61880944  0.25747782  1
  Pb  Pb203  1  0.74603041  0.95412524  0.24980448  1
  Pb  Pb204  1  -0.00232959  0.21401669  0.75137594  1
  Pb  Pb205  1  0.00040093  0.54539521  0.74895404  1
  Pb  Pb206  1  0.00317565  0.87909454  0.75104997  1
  Pb  Pb207  1  0.50742305  0.21466217  0.75372041  1
  Pb  Pb208  1  0.50113648  0.54585386  0.75179035  1
  Pb  Pb209  1  0.50000304  0.87917567  0.75120518  1
  Pb  Pb210  1  -0.00619172  0.11838283  0.24382606  1
  Pb  Pb211  1  -0.00323984  0.45431848  0.24641427  1
  Pb  Pb212  1  -0.00153255  0.78803928  0.25223319  1
  Pb  Pb213  1  0.49477738  0.12011602  0.25294245  1
  Pb  Pb214  1  0.49603262  0.45305681  0.25047194  1
  Pb  Pb215  1  0.50048994  0.78347918  0.25809331  1
  C  C216  1  -0.00052406  0.04739454  0.63253931  1
  C  C217  1  0.00218700  0.37937457  0.63169833  1
  C  C218  1  -0.00154877  0.71375053  0.62917481  1
  C  C219  1  0.49869723  0.04649940  0.63176289  1
  C  C220  1  0.50334424  0.37852206  0.63437181  1
  C  C221  1  0.49871185  0.71348890  0.63239985  1
  C  C222  1  -0.00720696  0.28677607  0.13222835  1
  C  C223  1  0.00024148  0.61983080  0.13085424  1
  C  C224  1  -0.00228469  0.95196823  0.12919578  1
  C  C225  1  0.49534644  0.28721605  0.13121592  1
  C  C226  1  0.50069187  0.61940293  0.13285268  1
  C  C227  1  0.50023494  0.95298557  0.13398899  1
  C  C228  1  0.00318793  0.04532995  0.86598991  1
  C  C229  1  -0.00075444  0.38051160  0.86944811  1
  C  C230  1  -0.00174155  0.71262818  0.86634259  1
  C  C231  1  0.49947522  0.04476700  0.86772586  1
  C  C232  1  0.50011391  0.38063339  0.86688508  1
  C  C233  1  0.49641527  0.71380965  0.86823662  1
  C  C234  1  -0.00274973  0.28731115  0.36575625  1
  C  C235  1  -0.00331563  0.61951006  0.36732481  1
  C  C236  1  -0.00170279  0.95376801  0.36637115  1
  C  C237  1  0.50111104  0.28658183  0.36785100  1
  C  C238  1  0.49660153  0.61986728  0.36627298  1
  C  C239  1  0.49709916  0.95362458  0.36710900  1
  C  C240  1  0.25121626  0.21386958  0.63257867  1
  C  C241  1  0.25213164  0.54668010  0.63326485  1
  C  C242  1  0.25189359  0.88064585  0.63470754  1
  C  C243  1  0.75032975  0.21226163  0.63220910  1
  C  C244  1  0.75201713  0.54511241  0.63169981  1
  C  C245  1  0.75553802  0.88080525  0.63309074  1
  C  C246  1  0.24650004  0.11939291  0.13354425  1
  C  C247  1  0.25152430  0.45321864  0.13063295  1
  C  C248  1  0.25446080  0.78659637  0.13154729  1
  C  C249  1  0.74894474  0.12015484  0.13479704  1
  C  C250  1  0.74949261  0.45378214  0.13224535  1
  C  C251  1  0.75266318  0.78788311  0.13244116  1
  C  C252  1  0.25469346  0.21444801  0.86767641  1
  C  C253  1  0.24945834  0.54621586  0.86877572  1
  C  C254  1  0.25272892  0.88021951  0.86818599  1
  C  C255  1  0.75529925  0.21446897  0.86935537  1
  C  C256  1  0.75009422  0.54699428  0.86980141  1
  C  C257  1  0.75120221  0.88000234  0.86890553  1
  C  C258  1  0.24925030  0.12154874  0.36638650  1
  C  C259  1  0.24867763  0.45381246  0.36752696  1
  C  C260  1  0.25399522  0.78635714  0.36512043  1
  C  C261  1  0.75056786  0.12109903  0.36928172  1
  C  C262  1  0.74990150  0.45255525  0.36607889  1
  C  C263  1  0.75097834  0.78698271  0.36956540  1
  C  C264  1  0.94140004  0.26244610  0.04084033  1
  C  C265  1  0.53893407  0.92937859  0.46144943  1
  C  C266  1  0.78652521  0.42483536  0.45920144  1
  C  C267  1  0.45740117  0.92789838  0.46090958  1
  C  C268  1  0.20774230  0.23942885  0.53900127  1
  C  C269  1  0.28933844  0.23900375  0.53823547  1
  C  C270  1  0.47088969  0.59408741  0.03614839  1
  C  C271  1  0.03381841  0.74176253  0.95940510  1
  C  C272  1  0.29055792  0.09603900  0.45942485  1
  C  C273  1  0.94743059  0.59294739  0.04208614  1
  C  C274  1  0.01966432  0.92857114  0.46264585  1
  C  C275  1  0.81777561  0.76169310  0.45460473  1
  C  C276  1  0.43424870  0.59721633  0.45374849  1
  C  C277  1  0.02997916  0.92128844  0.03437706  1
  C  C278  1  0.43361816  0.26194438  0.04425246  1
  C  C279  1  0.27721616  0.42573780  0.46277632  1
  C  C280  1  0.51483436  0.59440472  0.46460493  1
  C  C281  1  0.56149822  0.07132046  0.95357618  1
  C  C282  1  0.22344707  0.90518244  0.53947112  1
  C  C283  1  0.78865382  0.09054313  0.46068562  1
  C  C284  1  0.02304904  0.26198801  0.03551957  1
  C  C285  1  0.22561215  0.76020297  0.03501760  1
  C  C286  1  0.97233477  0.40526340  0.53513005  1
  C  C287  1  0.94346019  0.07070025  0.54308792  1
  C  C288  1  0.81109792  0.24158336  0.95902294  1
  C  C289  1  0.19715283  0.57352109  0.95917670  1
  C  C290  1  0.22914264  0.24214945  0.96346452  1
  C  C291  1  0.71614363  0.42423118  0.03902027  1
  C  C292  1  0.02435176  0.07227583  0.53480056  1
  C  C293  1  0.54106664  0.40695056  0.95874011  1
  C  C294  1  0.55209142  0.59545244  0.04206812  1
  C  C295  1  0.20429630  0.42745263  0.03811136  1
  C  C296  1  0.51467715  0.73962196  0.96561316  1
  C  C297  1  0.30701849  0.76147256  0.04122553  1
  C  C298  1  0.28590802  0.42621796  0.03599250  1
  C  C299  1  0.80475313  0.76045658  0.04327891  1
  C  C300  1  0.03954711  0.40836058  0.96341773  1
  C  C301  1  0.68556855  0.09650670  0.04847138  1
  C  C302  1  0.76534752  0.09445334  0.03627340  1
  C  C303  1  0.80744101  0.57177085  0.54315540  1
  C  C304  1  0.95775123  0.07280879  0.95734352  1
  C  C305  1  0.05399606  0.40400579  0.54095147  1
  C  C306  1  0.53746875  0.40432153  0.54066706  1
  C  C307  1  0.95063783  0.59213977  0.45806847  1
  C  C308  1  0.29750233  0.57240787  0.54199536  1
  C  C309  1  0.72804490  0.91019111  0.96390033  1
  C  C310  1  0.53599824  0.25693856  0.46030418  1
  C  C311  1  0.27061506  0.76138513  0.46204392  1
  N  N312  1  0.20950237  0.09046456  0.04173152  1
  N  N313  1  0.79154501  0.90667661  0.54125054  1
  N  N314  1  0.04180062  0.26195605  0.45811698  1
  N  N315  1  0.95609156  0.74195497  0.95949455  1
  N  N316  1  0.45710936  0.74224072  0.54193368  1
  N  N317  1  0.73220564  0.24240538  0.96405001  1
  N  N318  1  0.72074031  0.57418321  0.96538985  1
  N  N319  1  0.27576706  0.57383220  0.96310791  1
  N  N320  1  0.70871238  0.42554199  0.46021178  1
  N  N321  1  0.74002333  0.75877615  0.46572600  1
  N  N322  1  0.48282113  0.07485744  0.96274009  1
  N  N323  1  0.46168205  0.40781817  0.96134044  1
  N  N324  1  0.51184544  0.25892347  0.03572571  1
  N  N325  1  0.21841241  0.57302074  0.53729194  1
  N  N326  1  0.96561818  0.26143552  0.46116926  1
  N  N327  1  0.96043713  0.40729445  0.96155294  1
  N  N328  1  0.45195051  0.92674087  0.04289522  1
  N  N329  1  0.29183818  0.90582500  0.95924108  1
  N  N330  1  0.95127362  0.92432360  0.03937381  1
  N  N331  1  0.55514352  0.07080170  0.54281713  1
  N  N332  1  0.79876943  0.57303716  0.95823831  1
  N  N333  1  0.52842525  0.92635609  0.03816172  1
  N  N334  1  0.21376633  0.90499159  0.96261531  1
  N  N335  1  0.30806099  0.23987036  0.95591475  1
  N  N336  1  0.71214686  0.24049508  0.53908012  1
  N  N337  1  0.78833866  0.24014634  0.53886157  1
  N  N338  1  0.19220187  0.76185504  0.45290936  1
  N  N339  1  0.28986855  0.10002098  0.04095001  1
  N  N340  1  0.02798115  0.59105992  0.46337618  1
  N  N341  1  0.03167854  0.74532605  0.53751707  1
  N  N342  1  0.95362599  0.73440911  0.53734497  1
  N  N343  1  0.45856862  0.25738691  0.46079048  1
  N  N344  1  0.02450460  0.59072095  0.03386022  1
  N  N345  1  0.71116233  0.09029041  0.46243416  1
  N  N346  1  0.19787915  0.42793328  0.45679793  1
  N  N347  1  0.79412075  0.42413477  0.04005800  1
  N  N348  1  0.03755659  0.07295231  0.95914006  1
  N  N349  1  0.71311829  0.90570748  0.53971630  1
  N  N350  1  0.21091003  0.09399782  0.45842611  1
  N  N351  1  0.72797175  0.57470230  0.53746949  1
  N  N352  1  0.80525567  0.90719231  0.95885234  1
  N  N353  1  0.94082741  0.92989708  0.45599367  1
  N  N354  1  0.30261601  0.90476455  0.54284422  1
  N  N355  1  0.45812680  0.40480826  0.54137791  1
  N  N356  1  0.43628421  0.73772262  0.95469854  1
  N  N357  1  0.47768995  0.07344383  0.53763967  1
  N  N358  1  0.53671528  0.73223015  0.53826684  1
  N  N359  1  0.72531491  0.75734690  0.03907801  1
  N  N360  1  0.05861438  0.05740330  0.59192806  1
  N  N361  1  0.07106322  0.38836507  0.59956953  1
  N  N362  1  0.06009939  0.72409871  0.59176276  1
  N  N363  1  0.56770733  0.05503563  0.60186924  1
  N  N364  1  0.56668269  0.38899832  0.59747912  1
  N  N365  1  0.56189998  0.72623951  0.59753731  1
  N  N366  1  0.42307569  0.27875674  0.10371119  1
  N  N367  1  0.43968986  0.60924054  0.09402335  1
  N  N368  1  0.43335109  0.94287780  0.10246558  1
  N  N369  1  0.92404369  0.27723886  0.09967035  1
  N  N370  1  0.93039801  0.61028157  0.10125999  1
  N  N371  1  0.93068275  0.94355294  0.09775386  1
  N  N372  1  0.44432782  0.05491679  0.91064912  1
  N  N373  1  0.43797968  0.39158964  0.90370170  1
  N  N374  1  0.42578755  0.72237710  0.89469248  1
  N  N375  1  0.93642252  0.05739371  0.89932778  1
  N  N376  1  0.93494498  0.38983102  0.90383000  1
  N  N377  1  0.93379634  0.72351823  0.90018404  1
  N  N378  1  0.06285805  0.27786393  0.39911080  1
  N  N379  1  0.05684245  0.60855311  0.40551350  1
  N  N380  1  0.05638690  0.94280529  0.40792992  1
  N  N381  1  0.56494393  0.27457771  0.40443950  1
  N  N382  1  0.55270939  0.60894986  0.40886351  1
  N  N383  1  0.56238661  0.94509922  0.40178905  1
  N  N384  1  0.31541827  0.22376668  0.59468666  1
  N  N385  1  0.31947696  0.55649894  0.60076710  1
  N  N386  1  0.31849159  0.88978561  0.60227166  1
  N  N387  1  0.81369032  0.22270076  0.59657930  1
  N  N388  1  0.82211790  0.55524489  0.60227157  1
  N  N389  1  0.81870123  0.89209838  0.59778613  1
  N  N390  1  0.18365213  0.11381336  0.09630541  1
  N  N391  1  0.18439488  0.44421033  0.09828162  1
  N  N392  1  0.19407196  0.77605635  0.09265176  1
  N  N393  1  0.67582832  0.11186658  0.10803352  1
  N  N394  1  0.68674291  0.44205398  0.09459525  1
  N  N395  1  0.69313354  0.77753633  0.09322743  1
  N  N396  1  0.19542577  0.22641537  0.90879306  1
  N  N397  1  0.18057813  0.55690431  0.90073302  1
  N  N398  1  0.19002833  0.88973035  0.90526892  1
  N  N399  1  0.69680607  0.22447736  0.90946864  1
  N  N400  1  0.69100031  0.55841112  0.90985294  1
  N  N401  1  0.69258881  0.89351176  0.90996788  1
  N  N402  1  0.31463101  0.11127104  0.40188075  1
  N  N403  1  0.30920482  0.44167547  0.40734277  1
  N  N404  1  0.31022103  0.77592374  0.40849944  1
  N  N405  1  0.81562083  0.10905641  0.40454562  1
  N  N406  1  0.81401576  0.44149662  0.40256188  1
  N  N407  1  0.82444810  0.77777924  0.39468104  1
  N  N408  1  0.43662226  0.27613504  0.40188989  1
  N  N409  1  0.42398216  0.61237201  0.39409928  1
  N  N410  1  0.43220668  0.94240609  0.40398018  1
  N  N411  1  0.93637292  0.27707658  0.40397083  1
  N  N412  1  0.92895009  0.60917854  0.39973867  1
  N  N413  1  0.92951527  0.94557649  0.39587460  1
  N  N414  1  0.06547152  0.05255984  0.90336690  1
  N  N415  1  0.06377709  0.39196310  0.90630689  1
  N  N416  1  0.06175861  0.72399882  0.90338789  1
  N  N417  1  0.57161589  0.05452539  0.89424287  1
  N  N418  1  0.56608836  0.39033718  0.90106505  1
  N  N419  1  0.55258441  0.72484910  0.91202479  1
  N  N420  1  0.05397696  0.27712095  0.09344771  1
  N  N421  1  0.05749237  0.60815973  0.09031214  1
  N  N422  1  0.05912384  0.93875673  0.08978745  1
  N  N423  1  0.55059239  0.27574056  0.08914130  1
  N  N424  1  0.56959352  0.61046706  0.10043766  1
  N  N425  1  0.55953716  0.94259691  0.09436587  1
  N  N426  1  0.44127362  0.05737536  0.59091787  1
  N  N427  1  0.43879062  0.38843163  0.59997948  1
  N  N428  1  0.43401625  0.71911547  0.59708251  1
  N  N429  1  0.92913254  0.05583229  0.60201872  1
  N  N430  1  0.94139755  0.38974758  0.59302054  1
  N  N431  1  0.93270084  0.72371410  0.59626700  1
  N  N432  1  0.18551150  0.11300126  0.40184463  1
  N  N433  1  0.18095379  0.44526646  0.39815997  1
  N  N434  1  0.18391123  0.77755471  0.39254608  1
  N  N435  1  0.68725059  0.10975367  0.40431831  1
  N  N436  1  0.68587107  0.44294455  0.40084344  1
  N  N437  1  0.69788661  0.77633284  0.41367900  1
  N  N438  1  0.32351719  0.22269856  0.89697428  1
  N  N439  1  0.30938540  0.55553180  0.90792257  1
  N  N440  1  0.31723397  0.89077793  0.90232091  1
  N  N441  1  0.82537227  0.22457245  0.90012249  1
  N  N442  1  0.81756304  0.55661446  0.90042466  1
  N  N443  1  0.81972182  0.88830903  0.89843148  1
  N  N444  1  0.31138118  0.10612716  0.10093396  1
  N  N445  1  0.31435625  0.44163241  0.09176846  1
  N  N446  1  0.32387516  0.77708029  0.10014549  1
  N  N447  1  0.80435401  0.10948032  0.09153895  1
  N  N448  1  0.81467954  0.44268230  0.09936596  1
  N  N449  1  0.82188374  0.77775048  0.10163699  1
  N  N450  1  0.18525450  0.22359879  0.59891851  1
  N  N451  1  0.19178502  0.55697489  0.59473341  1
  N  N452  1  0.19063836  0.89103246  0.59565312  1
  N  N453  1  0.68694719  0.22317611  0.59684529  1
  N  N454  1  0.69387534  0.55527271  0.59122401  1
  N  N455  1  0.69155214  0.88941315  0.59708790  1
  Cl  Cl456  1  0.25231710  0.06026920  0.60696100  1
  Cl  Cl457  1  0.25459691  0.38689639  0.61497378  1
  Cl  Cl458  1  0.24950269  0.72515865  0.61137950  1
  Cl  Cl459  1  0.74842644  0.04829646  0.62360063  1
  Cl  Cl460  1  0.75240194  0.38873326  0.62036788  1
  Cl  Cl461  1  0.74540225  0.72261539  0.60775612  1
  Cl  Cl462  1  0.24049894  0.27737501  0.11337384  1
  Cl  Cl463  1  0.25110352  0.60771625  0.10501123  1
  Cl  Cl464  1  0.24890480  0.94671374  0.11454929  1
  Cl  Cl465  1  0.73432779  0.27550002  0.10468219  1
  Cl  Cl466  1  0.75106771  0.61623118  0.12580926  1
  Cl  Cl467  1  0.74584736  0.94586858  0.11612512  1
  Cl  Cl468  1  0.25491504  0.06276393  0.90197998  1
  Cl  Cl469  1  0.24908616  0.38680029  0.88355948  1
  Cl  Cl470  1  0.24430385  0.71603502  0.88067793  1
  Cl  Cl471  1  0.75496353  0.05150380  0.88689141  1
  Cl  Cl472  1  0.75083713  0.38363862  0.88403298  1
  Cl  Cl473  1  0.74024378  0.72633991  0.89344796  1
  Cl  Cl474  1  0.24807623  0.28040286  0.38235077  1
  Cl  Cl475  1  0.24125531  0.61386667  0.37444518  1
  Cl  Cl476  1  0.24214873  0.94802870  0.38435584  1
  Cl  Cl477  1  0.75186751  0.28288165  0.37557110  1
  Cl  Cl478  1  0.74105436  0.60925359  0.39529678  1
  Cl  Cl479  1  0.74762381  0.94644908  0.38264786  1
  Cl  Cl480  1  -0.00201777  0.21638245  0.62210643  1
  Cl  Cl481  1  0.00533307  0.55219000  0.61827219  1
  Cl  Cl482  1  0.00407036  0.88752323  0.61433483  1
  Cl  Cl483  1  0.50206937  0.21742281  0.62265384  1
  Cl  Cl484  1  0.50952395  0.55812502  0.61605467  1
  Cl  Cl485  1  0.50662840  0.88312641  0.61586947  1
  Cl  Cl486  1  -0.00012921  0.10416569  0.10438780  1
  Cl  Cl487  1  -0.00202760  0.44480965  0.11282158  1
  Cl  Cl488  1  0.00628495  0.78481544  0.12206622  1
  Cl  Cl489  1  0.48997189  0.11251068  0.10956305  1
  Cl  Cl490  1  0.50194688  0.44720963  0.11742410  1
  Cl  Cl491  1  0.50948795  0.77505296  0.11754740  1
  Cl  Cl492  1  0.01133484  0.22040199  0.88659436  1
  Cl  Cl493  1  -0.00236087  0.54873372  0.88098563  1
  Cl  Cl494  1  0.00511007  0.88749621  0.88532677  1
  Cl  Cl495  1  0.51138973  0.22367405  0.89737155  1
  Cl  Cl496  1  0.49848473  0.55681162  0.88662087  1
  Cl  Cl497  1  0.50246232  0.88446738  0.88303750  1
  Cl  Cl498  1  0.00259213  0.11132265  0.37757798  1
  Cl  Cl499  1  -0.00237869  0.44803546  0.37967060  1
  Cl  Cl500  1  0.00294067  0.77582728  0.38887068  1
  Cl  Cl501  1  0.49767548  0.11040727  0.38913272  1
  Cl  Cl502  1  0.49780748  0.44640075  0.38285876  1
  Cl  Cl503  1  0.50655403  0.77442982  0.40087680  1
  Cl  Cl504  1  0.36092640  0.14323036  0.75610487  1
  Cl  Cl505  1  0.36360332  0.47886890  0.74861015  1
  Cl  Cl506  1  0.36282229  0.81148109  0.74866610  1
  Cl  Cl507  1  0.86333953  0.14410978  0.75337799  1
  Cl  Cl508  1  0.86197307  0.47874815  0.75075422  1
  Cl  Cl509  1  0.86442798  0.81158003  0.75206664  1
  Cl  Cl510  1  0.14316140  0.18778124  0.24926963  1
  Cl  Cl511  1  0.13910895  0.52134183  0.24877375  1
  Cl  Cl512  1  0.13784175  0.85503661  0.25408626  1
  Cl  Cl513  1  0.63551345  0.18695817  0.24746802  1
  Cl  Cl514  1  0.63790271  0.52291060  0.25088754  1
  Cl  Cl515  1  0.64037818  0.85264447  0.25229840  1
  Cl  Cl516  1  0.14416780  0.14367101  0.75409946  1
  Cl  Cl517  1  0.13872653  0.47918348  0.75140721  1
  Cl  Cl518  1  0.13995989  0.81325500  0.75094811  1
  Cl  Cl519  1  0.63915418  0.14432323  0.75320217  1
  Cl  Cl520  1  0.64154932  0.48044664  0.75248770  1
  Cl  Cl521  1  0.64108188  0.81188383  0.74714220  1
  Cl  Cl522  1  0.36245340  0.18922020  0.24567799  1
  Cl  Cl523  1  0.36144747  0.52232076  0.25098293  1
  Cl  Cl524  1  0.36339799  0.85451422  0.24720179  1
  Cl  Cl525  1  0.86082006  0.18860631  0.24675825  1
  Cl  Cl526  1  0.86217290  0.52370744  0.24915682  1
  Cl  Cl527  1  0.86294656  0.85592698  0.25380778  1
  Cl  Cl528  1  0.11340649  0.31236926  0.74862487  1
  Cl  Cl529  1  0.11070566  0.64573377  0.74854344  1
  Cl  Cl530  1  0.11384330  0.97966940  0.75273353  1
  Cl  Cl531  1  0.60963509  0.31111510  0.75415287  1
  Cl  Cl532  1  0.61233887  0.64772046  0.74904668  1
  Cl  Cl533  1  0.61193087  0.97975727  0.75011852  1
  Cl  Cl534  1  0.38712230  0.02351704  0.24948489  1
  Cl  Cl535  1  0.38859576  0.35542568  0.24736575  1
  Cl  Cl536  1  0.38901510  0.69078943  0.25308024  1
  Cl  Cl537  1  0.89104986  0.02222397  0.24854739  1
  Cl  Cl538  1  0.88614368  0.35574424  0.24393599  1
  Cl  Cl539  1  0.88592951  0.68934919  0.25215532  1
  Cl  Cl540  1  0.38700131  0.31022032  0.75233928  1
  Cl  Cl541  1  0.38851032  0.64677377  0.75156149  1
  Cl  Cl542  1  0.38913292  0.97916381  0.75213292  1
  Cl  Cl543  1  0.88996905  0.31013941  0.75372702  1
  Cl  Cl544  1  0.88709693  0.64575204  0.74751684  1
  Cl  Cl545  1  0.88903056  0.97820600  0.74832663  1
  Cl  Cl546  1  0.11292636  0.02221349  0.24505872  1
  Cl  Cl547  1  0.11138333  0.35574539  0.25152346  1
  Cl  Cl548  1  0.11084819  0.68841066  0.25113328  1
  Cl  Cl549  1  0.61003328  0.02161338  0.24797371  1
  Cl  Cl550  1  0.61139360  0.35581105  0.24971115  1
  Cl  Cl551  1  0.61017168  0.68853556  0.24837897  1
