# generated using pymatgen
data_H8PbC4(N3Cl2)2
_symmetry_space_group_name_H-M   'P 1'
_cell_length_a   16.63225720
_cell_length_b   22.51840767
_cell_length_c   21.59388043
_cell_angle_alpha   89.99975219
_cell_angle_beta   90.03375395
_cell_angle_gamma   89.98508656
_symmetry_Int_Tables_number   1
_chemical_formula_structural   H8PbC4(N3Cl2)2
_chemical_formula_sum   'H192 Pb24 C96 N144 Cl96'
_cell_volume   8087.59642980
_cell_formula_units_Z   24
loop_
 _symmetry_equiv_pos_site_id
 _symmetry_equiv_pos_as_xyz
  1  'x, y, z'
loop_
 _atom_site_type_symbol
 _atom_site_label
 _atom_site_symmetry_multiplicity
 _atom_site_fract_x
 _atom_site_fract_y
 _atom_site_fract_z
 _atom_site_occupancy
  H  H0  1  -0.00629252  0.02586048  0.67469606  1
  H  H1  1  -0.02273805  0.36387283  0.65358610  1
  H  H2  1  -0.00947290  0.69300597  0.67712700  1
  H  H3  1  0.51197307  0.02958373  0.67547972  1
  H  H4  1  0.50348816  0.35898357  0.67979620  1
  H  H5  1  0.51491515  0.70028797  0.68190739  1
  H  H6  1  -0.01355994  0.30237558  0.17739636  1
  H  H7  1  -0.00306975  0.63815868  0.17813264  1
  H  H8  1  0.01558585  0.96997586  0.18054890  1
  H  H9  1  0.51159767  0.30228090  0.17979666  1
  H  H10  1  0.49367690  0.63531165  0.17805708  1
  H  H11  1  0.48476273  0.97546027  0.17527274  1
  H  H12  1  0.00528481  0.02974499  0.81691539  1
  H  H13  1  0.01692107  0.36347557  0.81740079  1
  H  H14  1  -0.00514505  0.69727969  0.82308027  1
  H  H15  1  0.50833486  0.03206818  0.82248063  1
  H  H16  1  0.48548620  0.36319324  0.82778185  1
  H  H17  1  0.49998243  0.69473882  0.81908319  1
  H  H18  1  -0.01009169  0.30242006  0.32345311  1
  H  H19  1  0.00619520  0.64183643  0.32485015  1
  H  H20  1  0.00352028  0.97530004  0.32421301  1
  H  H21  1  0.50662384  0.30427628  0.32107027  1
  H  H22  1  0.50456426  0.63739257  0.31679799  1
  H  H23  1  0.49761588  0.96883403  0.32031929  1
  H  H24  1  0.25576010  0.19677783  0.67767342  1
  H  H25  1  0.26355974  0.52936475  0.67761865  1
  H  H26  1  0.25469076  0.85927183  0.67566618  1
  H  H27  1  0.74479162  0.19222081  0.67653971  1
  H  H28  1  0.73860081  0.53287459  0.68066472  1
  H  H29  1  0.74380352  0.86255205  0.68132615  1
  H  H30  1  0.25420863  0.13889502  0.17651331  1
  H  H31  1  0.24629256  0.48368150  0.17430528  1
  H  H32  1  0.25382567  0.80327612  0.17768551  1
  H  H33  1  0.73800015  0.13508633  0.17641274  1
  H  H34  1  0.75887729  0.47042536  0.17440036  1
  H  H35  1  0.75150854  0.80580581  0.17879399  1
  H  H36  1  0.24223377  0.19780101  0.82046725  1
  H  H37  1  0.24629245  0.52958520  0.82352522  1
  H  H38  1  0.24670720  0.86157722  0.81928112  1
  H  H39  1  0.75405354  0.19067771  0.82560029  1
  H  H40  1  0.75940807  0.53349862  0.81985922  1
  H  H41  1  0.75608854  0.86441942  0.82130584  1
  H  H42  1  0.24628600  0.13529220  0.32558980  1
  H  H43  1  0.24251576  0.47040514  0.32191714  1
  H  H44  1  0.24915136  0.80687260  0.32436249  1
  H  H45  1  0.75044160  0.13930710  0.32018872  1
  H  H46  1  0.77720071  0.46601893  0.34127575  1
  H  H47  1  0.74208815  0.80485021  0.31928585  1
  H  H48  1  0.11826112  0.05510111  0.60703460  1
  H  H49  1  0.08395311  0.40122832  0.57442865  1
  H  H50  1  0.11435579  0.72085237  0.60705269  1
  H  H51  1  0.61227276  0.06047176  0.58918585  1
  H  H52  1  0.61361041  0.38824323  0.59941192  1
  H  H53  1  0.61387099  0.72559470  0.59514516  1
  H  H54  1  0.38088968  0.27958512  0.11542683  1
  H  H55  1  0.38015704  0.60922948  0.10108598  1
  H  H56  1  0.38440807  0.94051413  0.08963461  1
  H  H57  1  0.88800430  0.27050733  0.08977563  1
  H  H58  1  0.88446246  0.60956552  0.09865614  1
  H  H59  1  0.87673429  0.95128623  0.12289358  1
  H  H60  1  0.37065449  0.05331543  0.87877169  1
  H  H61  1  0.38553696  0.39775448  0.91302256  1
  H  H62  1  0.38842481  0.72002849  0.89942673  1
  H  H63  1  0.87156889  0.05206652  0.88069367  1
  H  H64  1  0.88629506  0.38707627  0.88013329  1
  H  H65  1  0.88957454  0.72823122  0.90585804  1
  H  H66  1  0.12945832  0.28245637  0.37858487  1
  H  H67  1  0.12598590  0.61115490  0.39695459  1
  H  H68  1  0.12842194  0.94679809  0.39452000  1
  H  H69  1  0.62727247  0.27740072  0.39465826  1
  H  H70  1  0.62924602  0.61332621  0.38631072  1
  H  H71  1  0.63115736  0.94940875  0.38194826  1
  H  H72  1  0.36534965  0.22259782  0.59778683  1
  H  H73  1  0.36551588  0.55959329  0.59015749  1
  H  H74  1  0.36562337  0.89208554  0.59639472  1
  H  H75  1  0.87039509  0.22117062  0.60787451  1
  H  H76  1  0.87686679  0.54792587  0.62452802  1
  H  H77  1  0.86945678  0.88598805  0.61027128  1
  H  H78  1  0.13619982  0.11212660  0.10074110  1
  H  H79  1  0.12186156  0.44984402  0.10898302  1
  H  H80  1  0.11765041  0.77830824  0.12061416  1
  H  H81  1  0.63092041  0.10805809  0.09432775  1
  H  H82  1  0.61928593  0.45202430  0.11875458  1
  H  H83  1  0.61599134  0.77945211  0.12105802  1
  H  H84  1  0.12071670  0.21859844  0.89170866  1
  H  H85  1  0.12299033  0.55625535  0.89530516  1
  H  H86  1  0.12109813  0.88715716  0.88658046  1
  H  H87  1  0.61745332  0.21702583  0.88026236  1
  H  H88  1  0.61602350  0.54762894  0.86883335  1
  H  H89  1  0.62192843  0.88884661  0.88013596  1
  H  H90  1  0.38046924  0.11412261  0.38644199  1
  H  H91  1  0.38290557  0.44686928  0.37080125  1
  H  H92  1  0.37845671  0.78176307  0.38749317  1
  H  H93  1  0.88369778  0.11536160  0.38269200  1
  H  H94  1  0.91290179  0.44652602  0.39700686  1
  H  H95  1  0.88078903  0.78424617  0.37173072  1
  H  H96  1  0.37864969  0.27972471  0.38644763  1
  H  H97  1  0.37967533  0.61104742  0.38697332  1
  H  H98  1  0.38263055  0.94466142  0.39578133  1
  H  H99  1  0.88528258  0.27328292  0.40859840  1
  H  H100  1  0.87770677  0.61329982  0.38934546  1
  H  H101  1  0.87997316  0.94634178  0.39503394  1
  H  H102  1  0.11944736  0.05683962  0.89739215  1
  H  H103  1  0.13456189  0.39083795  0.89460795  1
  H  H104  1  0.13485861  0.71345065  0.87740572  1
  H  H105  1  0.61686489  0.06123614  0.90375461  1
  H  H106  1  0.62799441  0.38098877  0.87622899  1
  H  H107  1  0.63530216  0.72074328  0.87763067  1
  H  H108  1  0.13017127  0.28334929  0.13086296  1
  H  H109  1  0.13182018  0.61258661  0.12114860  1
  H  H110  1  0.12308772  0.94451039  0.09730732  1
  H  H111  1  0.62928408  0.27336406  0.10356137  1
  H  H112  1  0.62674198  0.61588893  0.12006710  1
  H  H113  1  0.62753236  0.95536012  0.12813865  1
  H  H114  1  0.36910129  0.05100206  0.62805470  1
  H  H115  1  0.36828708  0.38303893  0.62450966  1
  H  H116  1  0.37099470  0.71617542  0.63464422  1
  H  H117  1  0.86939753  0.05473840  0.60553540  1
  H  H118  1  0.83830437  0.38786735  0.60187110  1
  H  H119  1  0.86556312  0.71960674  0.60856490  1
  H  H120  1  0.13327464  0.10758606  0.40325642  1
  H  H121  1  0.13997004  0.44238754  0.40765794  1
  H  H122  1  0.12979364  0.77554708  0.39659392  1
  H  H123  1  0.63534543  0.11197017  0.39767096  1
  H  H124  1  0.66620471  0.43594216  0.41925142  1
  H  H125  1  0.63508982  0.78047238  0.40157723  1
  H  H126  1  0.36955661  0.22027923  0.88727495  1
  H  H127  1  0.37147950  0.55518733  0.89076719  1
  H  H128  1  0.37037066  0.89092110  0.88974458  1
  H  H129  1  0.86405269  0.22234900  0.90564317  1
  H  H130  1  0.86009818  0.55948280  0.90604122  1
  H  H131  1  0.86898424  0.88933894  0.90235663  1
  H  H132  1  0.38437296  0.11235080  0.11168055  1
  H  H133  1  0.36987063  0.44621122  0.10959894  1
  H  H134  1  0.36449584  0.77221459  0.09980547  1
  H  H135  1  0.87583950  0.11812036  0.12400799  1
  H  H136  1  0.86386603  0.43895708  0.09131425  1
  H  H137  1  0.86341480  0.77901369  0.09948649  1
  H  H138  1  0.11799592  0.21556597  0.62189457  1
  H  H139  1  0.12199099  0.54912218  0.62624614  1
  H  H140  1  0.11912394  0.88564517  0.61834760  1
  H  H141  1  0.62171450  0.22034996  0.60442640  1
  H  H142  1  0.63043632  0.55541390  0.59861464  1
  H  H143  1  0.62100336  0.88897847  0.60805196  1
  H  H144  1  0.18761566  0.44416233  0.00212449  1
  H  H145  1  0.31289053  0.42483229  0.00446475  1
  H  H146  1  0.31822955  0.90992552  0.99692562  1
  H  H147  1  0.29326216  0.92059183  0.49626081  1
  H  H148  1  0.54617830  0.40911385  0.49650740  1
  H  H149  1  0.04911885  0.92041583  -0.00782781  1
  H  H150  1  0.30067926  0.25124552  0.49131043  1
  H  H151  1  0.79873824  0.75035199  -0.00686233  1
  H  H152  1  0.46676832  0.42005763  1.01235987  1
  H  H153  1  0.35074235  0.08612233  0.49621443  1
  H  H154  1  0.34504000  0.74860266  0.49861059  1
  H  H155  1  0.14236923  0.74926247  0.01090876  1
  H  H156  1  0.21827259  0.41786982  0.50769445  1
  H  H157  1  0.96389498  0.75155517  1.00712953  1
  H  H158  1  0.16606771  0.92069009  0.99646165  1
  H  H159  1  0.53166428  0.08571210  0.49106785  1
  H  H160  1  0.44176630  0.91331971  0.50502236  1
  H  H161  1  0.11010625  0.25012212  0.48792137  1
  H  H162  1  0.16611824  0.24608486  1.00315841  1
  H  H163  1  0.69903170  0.57959568  0.49054046  1
  H  H164  1  0.45584682  0.74611364  1.00551048  1
  H  H165  1  0.07394106  0.40061479  1.00009823  1
  H  H166  1  0.53484418  0.75472929  0.49245445  1
  H  H167  1  0.28244805  0.58556181  0.49358194  1
  H  H168  1  0.29821224  0.73755293  -0.00467508  1
  H  H169  1  0.72690760  0.40764417  0.52630621  1
  H  H170  1  0.46484574  0.92119571  -0.00901780  1
  H  H171  1  0.70420121  0.75354947  0.50758375  1
  H  H172  1  0.78299780  0.58689243  1.00930993  1
  H  H173  1  0.78655327  0.42207548  -0.00978697  1
  H  H174  1  0.60253748  0.58322801  0.00488123  1
  H  H175  1  0.42919172  0.59310280  0.49458930  1
  H  H176  1  0.86572051  0.75645352  0.48595065  1
  H  H177  1  0.18597956  0.75193815  0.50178937  1
  H  H178  1  0.95333087  0.58079254  -0.00285088  1
  H  H179  1  0.01283926  0.42330061  0.47173869  1
  H  H180  1  0.58151531  0.59063381  0.49879807  1
  H  H181  1  0.41875503  0.24669483  0.00594658  1
  H  H182  1  0.79296009  0.25003410  1.00647582  1
  H  H183  1  0.63978389  0.41720012  0.00999589  1
  H  H184  1  0.97176247  0.24549148  -0.00734131  1
  H  H185  1  0.61756924  0.92268600  0.01423797  1
  H  H186  1  0.64466463  0.75189180  0.01265148  1
  H  H187  1  0.92137384  0.41763953  0.99172329  1
  H  H188  1  0.39115925  0.41171714  0.50995836  1
  H  H189  1  0.85851572  0.08452688  1.00963240  1
  H  H190  1  0.69909201  0.08128228  0.50309411  1
  H  H191  1  0.34356387  0.08780051  0.00503411  1
  Pb  Pb192  1  0.23872531  0.05107133  0.75210040  1
  Pb  Pb193  1  0.24190735  0.38088032  0.74238118  1
  Pb  Pb194  1  0.24200008  0.71564946  0.75071125  1
  Pb  Pb195  1  0.74407577  0.04795455  0.74749094  1
  Pb  Pb196  1  0.74293587  0.38239493  0.76011631  1
  Pb  Pb197  1  0.74744616  0.71436444  0.75076909  1
  Pb  Pb198  1  0.26017067  0.28387029  0.25079880  1
  Pb  Pb199  1  0.25495327  0.61888509  0.25651767  1
  Pb  Pb200  1  0.25357902  0.95063744  0.24563089  1
  Pb  Pb201  1  0.76028879  0.28229338  0.24715948  1
  Pb  Pb202  1  0.75525523  0.61743356  0.24824886  1
  Pb  Pb203  1  0.75797059  0.95374261  0.25325365  1
  Pb  Pb204  1  -0.01030988  0.21758087  0.75794912  1
  Pb  Pb205  1  -0.00457173  0.54672415  0.76551606  1
  Pb  Pb206  1  -0.00838569  0.88062680  0.75558622  1
  Pb  Pb207  1  0.49511581  0.21439302  0.74581040  1
  Pb  Pb208  1  0.49195553  0.54928223  0.73516311  1
  Pb  Pb209  1  0.49133868  0.88440104  0.74942603  1
  Pb  Pb210  1  0.00953917  0.11925519  0.24880539  1
  Pb  Pb211  1  0.00580377  0.45117954  0.23897276  1
  Pb  Pb212  1  0.00137134  0.78498419  0.24255875  1
  Pb  Pb213  1  0.50934238  0.11578264  0.25286772  1
  Pb  Pb214  1  0.51259069  0.44961371  0.26013674  1
  Pb  Pb215  1  0.50324088  0.78650442  0.24956343  1
  C  C216  1  -0.00648019  0.04449945  0.62863278  1
  C  C217  1  -0.03293831  0.38182803  0.60746753  1
  C  C218  1  -0.00959294  0.71022881  0.63042863  1
  C  C219  1  0.49793473  0.04579543  0.62935667  1
  C  C220  1  0.49508700  0.37469818  0.63263920  1
  C  C221  1  0.49978496  0.71368043  0.63504257  1
  C  C222  1  0.00146605  0.28701978  0.13114284  1
  C  C223  1  0.00419846  0.62139414  0.13152558  1
  C  C224  1  0.00501782  0.95524799  0.13345880  1
  C  C225  1  0.50744181  0.28547780  0.13287809  1
  C  C226  1  0.50103497  0.62039641  0.13063652  1
  C  C227  1  0.49888159  0.95827341  0.12940954  1
  C  C228  1  -0.00112410  0.04543165  0.86417944  1
  C  C229  1  0.01324837  0.37864465  0.86516277  1
  C  C230  1  0.00620551  0.71177634  0.87025021  1
  C  C231  1  0.49821263  0.04846277  0.86879709  1
  C  C232  1  0.49958538  0.37879971  0.87415329  1
  C  C233  1  0.50844828  0.71120281  0.86590990  1
  C  C234  1  0.00195960  0.28614263  0.36986941  1
  C  C235  1  0.00310840  0.62292019  0.37071922  1
  C  C236  1  0.00404837  0.95694503  0.37057535  1
  C  C237  1  0.50441574  0.28746530  0.36795364  1
  C  C238  1  0.50382320  0.62178050  0.36447138  1
  C  C239  1  0.50359611  0.95416080  0.36782856  1
  C  C240  1  0.24658486  0.21182776  0.63047558  1
  C  C241  1  0.25076059  0.54562174  0.63138065  1
  C  C242  1  0.24695237  0.87796820  0.62980272  1
  C  C243  1  0.74557590  0.21058002  0.63011739  1
  C  C244  1  0.74851044  0.54581836  0.63294846  1
  C  C245  1  0.74457079  0.87850385  0.63389633  1
  C  C246  1  0.25872615  0.12179412  0.12966262  1
  C  C247  1  0.24596896  0.46183549  0.12950253  1
  C  C248  1  0.24429032  0.78634899  0.13102305  1
  C  C249  1  0.74925057  0.12056390  0.12941119  1
  C  C250  1  0.74715335  0.45441650  0.12765930  1
  C  C251  1  0.74295295  0.78906765  0.13203026  1
  C  C252  1  0.24370103  0.21251602  0.86817838  1
  C  C253  1  0.24643159  0.54716541  0.87009764  1
  C  C254  1  0.24678212  0.87835797  0.86650108  1
  C  C255  1  0.74540041  0.20846898  0.87162830  1
  C  C256  1  0.74515219  0.54688552  0.86686251  1
  C  C257  1  0.74908229  0.88024980  0.86818881  1
  C  C258  1  0.25400435  0.11983740  0.37272310  1
  C  C259  1  0.25534008  0.45556112  0.36866552  1
  C  C260  1  0.25209734  0.78911273  0.37113860  1
  C  C261  1  0.75655544  0.12300649  0.36716884  1
  C  C262  1  0.78569710  0.45056219  0.38855366  1
  C  C263  1  0.75321477  0.78999591  0.36642028  1
  C  C264  1  0.54482839  0.59610385  0.45753609  1
  C  C265  1  0.68651468  0.24226899  0.95688265  1
  C  C266  1  0.46223805  0.25714954  0.04273253  1
  C  C267  1  0.26809785  0.75221616  0.03736503  1
  C  C268  1  0.32051456  0.42540438  0.45217477  1
  C  C269  1  0.47563612  0.92560435  0.46385454  1
  C  C270  1  0.28855574  0.23855326  0.96056782  1
  C  C271  1  0.42963013  0.73653282  0.55161583  1
  C  C272  1  0.03504659  0.58780192  0.46189880  1
  C  C273  1  0.43760334  0.40320669  0.54563510  1
  C  C274  1  0.81526612  0.76535771  0.45355837  1
  C  C275  1  0.30046640  0.75864561  0.46079145  1
  C  C276  1  0.28604014  0.57855477  0.96091349  1
  C  C277  1  0.96333273  0.40590076  0.95503336  1
  C  C278  1  0.48656990  0.73725075  0.96188905  1
  C  C279  1  0.67641238  0.56935143  0.95138760  1
  C  C280  1  0.51758488  0.08054435  0.96349413  1
  C  C281  1  0.84277430  0.42475098  0.47787637  1
  C  C282  1  0.56801945  0.40438895  0.95824510  1
  C  C283  1  0.72905353  0.09118965  0.03319177  1
  C  C284  1  0.18680448  0.23592957  0.54263901  1
  C  C285  1  0.56673976  0.93024349  0.04697199  1
  C  C286  1  0.90557433  0.41310423  0.52266176  1
  C  C287  1  0.76037670  0.41997393  0.48483986  1
  C  C288  1  0.26745452  0.23946568  0.53315815  1
  C  C289  1  0.69820553  0.90916089  0.95643252  1
  C  C290  1  0.55450134  0.59317607  0.04054574  1
  C  C291  1  0.76819614  0.76005066  0.03654629  1
  C  C292  1  0.80973893  0.09383197  0.04205653  1
  C  C293  1  0.75582495  0.57423562  0.96524994  1
  C  C294  1  0.03110573  0.07987616  0.53914515  1
  C  C295  1  0.47332978  0.59126799  0.03568408  1
  C  C296  1  0.07182549  0.25776016  0.04955398  1
  C  C297  1  0.72901677  0.56974005  0.53419961  1
  C  C298  1  0.73411772  0.76388469  0.46408507  1
  C  C299  1  0.42983306  0.07397643  0.54643223  1
  C  C300  1  0.06088480  0.58769432  0.04523121  1
  C  C301  1  0.50857890  0.74104523  0.53638167  1
  C  C302  1  0.95166878  0.74166907  0.53918556  1
  C  C303  1  0.06916712  0.73734019  0.95660092  1
  C  C304  1  0.55663394  0.92777506  0.45706174  1
  C  C305  1  0.80902090  0.56733395  0.54497620  1
  C  C306  1  0.02166924  0.92911990  0.03695999  1
  C  C307  1  0.73152697  0.09316470  0.46111370  1
  C  C308  1  0.22625474  0.08889864  0.46815654  1
  C  C309  1  0.46176976  0.25591619  0.45767965  1
  C  C310  1  0.20395084  0.90910512  0.95736003  1
  C  C311  1  0.20703702  0.23761712  0.96379069  1
  N  N312  1  0.95770037  0.58796450  0.46065368  1
  N  N313  1  0.54118697  0.25471430  0.03839998  1
  N  N314  1  0.51652785  0.40522715  0.53847699  1
  N  N315  1  0.77492337  0.90961128  0.96494251  1
  N  N316  1  0.99111730  0.74205251  0.96515981  1
  N  N317  1  0.76473400  0.24293103  0.96444584  1
  N  N318  1  0.05999695  0.25927025  0.45484118  1
  N  N319  1  0.49060087  0.41050850  0.96909261  1
  N  N320  1  0.30448075  0.09306271  0.46177325  1
  N  N321  1  0.22458631  0.09347806  0.03536436  1
  N  N322  1  0.94353822  0.92931293  0.04618643  1
  N  N323  1  0.18926551  0.91123547  0.54472438  1
  N  N324  1  0.95367995  0.08021608  0.53748897  1
  N  N325  1  0.98252641  0.58815647  0.03865791  1
  N  N326  1  0.28360027  0.90943110  0.95767545  1
  N  N327  1  0.46531345  0.59384650  0.45624585  1
  N  N328  1  0.18936827  0.75565429  0.04528645  1
  N  N329  1  0.02917257  0.74223434  0.53713401  1
  N  N330  1  0.70831939  0.90653760  0.54017348  1
  N  N331  1  0.20276758  0.42200245  0.04235996  1
  N  N332  1  0.76408418  0.41959413  0.03492137  1
  N  N333  1  0.22080155  0.75625090  0.46276229  1
  N  N334  1  0.44061365  0.07754282  0.95658924  1
  N  N335  1  0.26682348  0.91342969  0.53871398  1
  N  N336  1  0.98336213  0.25677345  0.46625576  1
  N  N337  1  0.24319222  0.42483830  0.46364345  1
  N  N338  1  0.70908139  0.24535255  0.53899878  1
  N  N339  1  0.20872941  0.57870182  0.96364656  1
  N  N340  1  0.28523070  0.41506625  0.04610647  1
  N  N341  1  0.48884245  0.92460431  0.03505069  1
  N  N342  1  0.04297384  0.40574201  0.95952273  1
  N  N343  1  0.26072714  0.57793345  0.53801764  1
  N  N344  1  0.99491928  0.25431379  0.03644769  1
  N  N345  1  0.04288204  0.92271148  0.46142831  1
  N  N346  1  0.50720372  0.07712315  0.53426958  1
  N  N347  1  0.96671562  0.92226469  0.46155609  1
  N  N348  1  0.68952260  0.75896666  0.04554251  1
  N  N349  1  0.94891528  0.07231436  0.95403505  1
  N  N350  1  0.53902742  0.25555086  0.46170769  1
  N  N351  1  0.78437513  0.90590963  0.54082257  1
  N  N352  1  0.02469054  0.07417561  0.95957853  1
  N  N353  1  0.56503732  0.73818765  0.95434182  1
  N  N354  1  0.78533012  0.24572593  0.54003452  1
  N  N355  1  0.18410276  0.57442290  0.54847767  1
  N  N356  1  0.81042389  0.09370612  0.45627041  1
  N  N357  1  0.68721726  0.43122743  0.04208671  1
  N  N358  1  -0.01458216  0.42005099  0.51523981  1
  N  N359  1  0.30243059  0.09371032  0.04067374  1
  N  N360  1  0.05834586  0.05872415  0.59415362  1
  N  N361  1  0.02281409  0.39576594  0.56593530  1
  N  N362  1  0.05331320  0.72175862  0.59541491  1
  N  N363  1  0.54982756  0.05727019  0.58477808  1
  N  N364  1  0.55168410  0.38423325  0.59091561  1
  N  N365  1  0.55157882  0.72605501  0.58982809  1
  N  N366  1  0.44006867  0.27588224  0.10040154  1
  N  N367  1  0.44120328  0.60762812  0.08986783  1
  N  N368  1  0.44677420  0.94566149  0.08491607  1
  N  N369  1  0.95038587  0.27524567  0.08589827  1
  N  N370  1  0.94647723  0.61091182  0.09076049  1
  N  N371  1  0.93491687  0.94577276  0.10601054  1
  N  N372  1  0.42852534  0.05771886  0.89616674  1
  N  N373  1  0.44749072  0.39171542  0.91816575  1
  N  N374  1  0.45032204  0.72151624  0.90768813  1
  N  N375  1  0.93120231  0.05463818  0.89508399  1
  N  N376  1  0.94494192  0.39074409  0.89634577  1
  N  N377  1  0.95161620  0.72407985  0.91258926  1
  N  N378  1  0.07227469  0.27702431  0.39641947  1
  N  N379  1  0.06568791  0.60831886  0.40763522  1
  N  N380  1  0.06763190  0.94446701  0.40520975  1
  N  N381  1  0.56598431  0.27534778  0.40450648  1
  N  N382  1  0.56907992  0.61148047  0.40011772  1
  N  N383  1  0.57308242  0.94470169  0.39917739  1
  N  N384  1  0.30372516  0.22440035  0.58936924  1
  N  N385  1  0.30303149  0.55807306  0.58696241  1
  N  N386  1  0.30373995  0.89082194  0.58898096  1
  N  N387  1  0.80951226  0.22403751  0.59635109  1
  N  N388  1  0.82039982  0.55321446  0.60440058  1
  N  N389  1  0.80858052  0.88895856  0.59900249  1
  N  N390  1  0.19780755  0.10968627  0.09150059  1
  N  N391  1  0.18141302  0.45095464  0.09552538  1
  N  N392  1  0.17500605  0.77870887  0.10221610  1
  N  N393  1  0.69256452  0.10731435  0.08577022  1
  N  N394  1  0.67633961  0.44431442  0.10167646  1
  N  N395  1  0.67409942  0.77824746  0.10377043  1
  N  N396  1  0.18032918  0.22162840  0.90476132  1
  N  N397  1  0.18362129  0.55935170  0.90533177  1
  N  N398  1  0.18080678  0.89128111  0.90044058  1
  N  N399  1  0.67439152  0.22200310  0.89905025  1
  N  N400  1  0.67042284  0.55314322  0.89173562  1
  N  N401  1  0.67946745  0.89185161  0.89772880  1
  N  N402  1  0.32221152  0.11266234  0.40298520  1
  N  N403  1  0.32875827  0.44325223  0.39290654  1
  N  N404  1  0.31977807  0.77729023  0.40320071  1
  N  N405  1  0.82434246  0.11229979  0.39765690  1
  N  N406  1  0.85609126  0.44418235  0.41725863  1
  N  N407  1  0.82508502  0.78123401  0.39270146  1
  N  N408  1  0.43773745  0.27502188  0.40096405  1
  N  N409  1  0.44006237  0.61318519  0.39988400  1
  N  N410  1  0.44346637  0.94248791  0.40691409  1
  N  N411  1  0.94742423  0.27330946  0.41310249  1
  N  N412  1  0.93757022  0.61037666  0.40273995  1
  N  N413  1  0.94108671  0.94311584  0.40521646  1
  N  N414  1  0.05725613  0.05760299  0.90409047  1
  N  N415  1  0.07359521  0.38526151  0.90461791  1
  N  N416  1  0.07902010  0.71948317  0.89730741  1
  N  N417  1  0.55507512  0.06286210  0.91097857  1
  N  N418  1  0.57397667  0.38644137  0.89860743  1
  N  N419  1  0.57723977  0.72153852  0.89454098  1
  N  N420  1  0.07612602  0.27728377  0.10834241  1
  N  N421  1  0.07462932  0.60774540  0.10293108  1
  N  N422  1  0.06137799  0.94416921  0.09038034  1
  N  N423  1  0.56782733  0.27235822  0.09517045  1
  N  N424  1  0.57020092  0.61131237  0.10106735  1
  N  N425  1  0.57272573  0.94876673  0.10614927  1
  N  N426  1  0.42386473  0.05589334  0.60588125  1
  N  N427  1  0.42424637  0.38610454  0.60481050  1
  N  N428  1  0.42468120  0.72052870  0.61131761  1
  N  N429  1  0.93000833  0.05757681  0.59437715  1
  N  N430  1  0.89497928  0.39146781  0.58122263  1
  N  N431  1  0.92536473  0.72258524  0.59556623  1
  N  N432  1  0.19466150  0.10559581  0.41324466  1
  N  N433  1  0.20228605  0.44694093  0.41323443  1
  N  N434  1  0.19095404  0.77792912  0.40841260  1
  N  N435  1  0.69680325  0.11078174  0.40683616  1
  N  N436  1  0.72742292  0.43651831  0.42910338  1
  N  N437  1  0.69681853  0.77908724  0.40947344  1
  N  N438  1  0.31020246  0.22360030  0.90276865  1
  N  N439  1  0.31191236  0.55972129  0.90474616  1
  N  N440  1  0.30989572  0.88674451  0.90267402  1
  N  N441  1  0.80207670  0.21979941  0.91298902  1
  N  N442  1  0.79784617  0.55979926  0.91130963  1
  N  N443  1  0.80683764  0.89101445  0.90860445  1
  N  N444  1  0.32469136  0.11207364  0.09716495  1
  N  N445  1  0.30921961  0.44592507  0.09641721  1
  N  N446  1  0.30270266  0.77091648  0.09060587  1
  N  N447  1  0.82070926  0.11224669  0.10292180  1
  N  N448  1  0.80206165  0.44327050  0.08461931  1
  N  N449  1  0.80172214  0.77784088  0.09050718  1
  N  N450  1  0.17472839  0.21971263  0.60194525  1
  N  N451  1  0.17851314  0.55635489  0.60740461  1
  N  N452  1  0.17747270  0.89102451  0.60234722  1
  N  N453  1  0.68286211  0.22375974  0.59481029  1
  N  N454  1  0.69164023  0.55617641  0.59046066  1
  N  N455  1  0.68195411  0.88944753  0.59765640  1
  Cl  Cl456  1  0.24290776  0.05559234  0.61766405  1
  Cl  Cl457  1  0.21226488  0.39812675  0.60132858  1
  Cl  Cl458  1  0.23676203  0.72514260  0.61455976  1
  Cl  Cl459  1  0.73447976  0.05987960  0.61147813  1
  Cl  Cl460  1  0.72519063  0.39144310  0.62772103  1
  Cl  Cl461  1  0.73790083  0.72204709  0.61679030  1
  Cl  Cl462  1  0.25773209  0.27818353  0.11972252  1
  Cl  Cl463  1  0.25913941  0.61080247  0.12542815  1
  Cl  Cl464  1  0.25941388  0.93674168  0.10115614  1
  Cl  Cl465  1  0.76473128  0.27280980  0.10204341  1
  Cl  Cl466  1  0.76283823  0.61069751  0.11335566  1
  Cl  Cl467  1  0.75176684  0.95213184  0.12359172  1
  Cl  Cl468  1  0.24264944  0.05402733  0.88497825  1
  Cl  Cl469  1  0.26045617  0.40530737  0.90026114  1
  Cl  Cl470  1  0.26528535  0.72110719  0.88620824  1
  Cl  Cl471  1  0.74267027  0.05680044  0.88078369  1
  Cl  Cl472  1  0.76258035  0.39234588  0.89549016  1
  Cl  Cl473  1  0.76759297  0.72834825  0.88711423  1
  Cl  Cl474  1  0.25400059  0.28484218  0.38475349  1
  Cl  Cl475  1  0.25716293  0.60697874  0.39751170  1
  Cl  Cl476  1  0.25649557  0.94325761  0.38623035  1
  Cl  Cl477  1  0.75690908  0.27819267  0.37866548  1
  Cl  Cl478  1  0.75033062  0.60894570  0.38129330  1
  Cl  Cl479  1  0.75656841  0.94821329  0.38335918  1
  Cl  Cl480  1  -0.00809124  0.22064822  0.62701808  1
  Cl  Cl481  1  -0.00006559  0.53955724  0.63634245  1
  Cl  Cl482  1  -0.00639270  0.88156106  0.62590003  1
  Cl  Cl483  1  0.49384607  0.21862647  0.61356847  1
  Cl  Cl484  1  0.49088963  0.55883652  0.59633220  1
  Cl  Cl485  1  0.48993394  0.89269030  0.61478350  1
  Cl  Cl486  1  0.01413867  0.11745486  0.11783932  1
  Cl  Cl487  1  -0.00823592  0.43839528  0.10170439  1
  Cl  Cl488  1  -0.01369033  0.77158961  0.10310721  1
  Cl  Cl489  1  0.50705376  0.10692990  0.11935418  1
  Cl  Cl490  1  0.49067582  0.44355245  0.10956197  1
  Cl  Cl491  1  0.48716103  0.77591404  0.11307199  1
  Cl  Cl492  1  -0.01398939  0.22804057  0.89866836  1
  Cl  Cl493  1  -0.01345803  0.55858967  0.90240937  1
  Cl  Cl494  1  -0.00396030  0.88492749  0.89183125  1
  Cl  Cl495  1  0.49214391  0.22013913  0.87888127  1
  Cl  Cl496  1  0.48957201  0.54545543  0.86565390  1
  Cl  Cl497  1  0.49140930  0.89853958  0.89184756  1
  Cl  Cl498  1  0.01163686  0.11279347  0.38161906  1
  Cl  Cl499  1  0.02937339  0.43906323  0.37933845  1
  Cl  Cl500  1  0.01068350  0.77419692  0.37223421  1
  Cl  Cl501  1  0.51082296  0.10695672  0.39437532  1
  Cl  Cl502  1  0.53601086  0.43762419  0.39574316  1
  Cl  Cl503  1  0.50926712  0.78078609  0.38319016  1
  Cl  Cl504  1  0.35930098  0.14576077  0.75111001  1
  Cl  Cl505  1  0.35719956  0.47932409  0.74108288  1
  Cl  Cl506  1  0.36193909  0.81105482  0.74455889  1
  Cl  Cl507  1  0.85681324  0.14873607  0.75379598  1
  Cl  Cl508  1  0.85740741  0.48136295  0.75102806  1
  Cl  Cl509  1  0.85300113  0.81774427  0.74864997  1
  Cl  Cl510  1  0.14600390  0.18579128  0.25253666  1
  Cl  Cl511  1  0.14158352  0.51948349  0.24915430  1
  Cl  Cl512  1  0.13875624  0.85242082  0.24200691  1
  Cl  Cl513  1  0.64057432  0.18654111  0.24482058  1
  Cl  Cl514  1  0.63786876  0.51983680  0.24013113  1
  Cl  Cl515  1  0.64037080  0.85527933  0.24695565  1
  Cl  Cl516  1  0.13921512  0.14885755  0.74911668  1
  Cl  Cl517  1  0.13541140  0.47936288  0.76351579  1
  Cl  Cl518  1  0.14192891  0.81312149  0.75348594  1
  Cl  Cl519  1  0.63606144  0.15110608  0.75254439  1
  Cl  Cl520  1  0.63741562  0.47843910  0.75541362  1
  Cl  Cl521  1  0.63126797  0.81122352  0.76189900  1
  Cl  Cl522  1  0.36173632  0.18643293  0.25839234  1
  Cl  Cl523  1  0.36569326  0.52045724  0.26037391  1
  Cl  Cl524  1  0.35761437  0.84633039  0.25212002  1
  Cl  Cl525  1  0.86059183  0.18586806  0.24356059  1
  Cl  Cl526  1  0.85815148  0.51159298  0.25254188  1
  Cl  Cl527  1  0.86054073  0.84933933  0.24811660  1
  Cl  Cl528  1  0.11433952  0.31102990  0.74815868  1
  Cl  Cl529  1  0.10960725  0.64568755  0.75506230  1
  Cl  Cl530  1  0.10846084  0.97849592  0.75016720  1
  Cl  Cl531  1  0.60661282  0.31565938  0.75872731  1
  Cl  Cl532  1  0.61075075  0.64423903  0.75491280  1
  Cl  Cl533  1  0.60410542  0.98310221  0.74926404  1
  Cl  Cl534  1  0.38932776  0.01926320  0.25027105  1
  Cl  Cl535  1  0.39047257  0.35601810  0.25112875  1
  Cl  Cl536  1  0.39429487  0.68385710  0.25484618  1
  Cl  Cl537  1  0.89452001  0.01989328  0.24545751  1
  Cl  Cl538  1  0.89528685  0.35068280  0.25404126  1
  Cl  Cl539  1  0.89493868  0.68151875  0.25228493  1
  Cl  Cl540  1  0.38262188  0.31626092  0.74709966  1
  Cl  Cl541  1  0.38949050  0.64512555  0.74343693  1
  Cl  Cl542  1  0.38335977  0.97816545  0.75395635  1
  Cl  Cl543  1  0.89534786  0.31855635  0.75069000  1
  Cl  Cl544  1  0.89013200  0.64999360  0.75187410  1
  Cl  Cl545  1  0.88833162  0.98340422  0.75035272  1
  Cl  Cl546  1  0.11861749  0.01825292  0.24968040  1
  Cl  Cl547  1  0.11440187  0.35440977  0.24142313  1
  Cl  Cl548  1  0.11614507  0.68609656  0.24050710  1
  Cl  Cl549  1  0.61067433  0.01845740  0.25316706  1
  Cl  Cl550  1  0.61176626  0.35342732  0.24260434  1
  Cl  Cl551  1  0.61664407  0.68700747  0.24004098  1
