# generated using pymatgen
data_H8PbC4(N3Cl2)2
_symmetry_space_group_name_H-M   'P 1'
_cell_length_a   16.62282378
_cell_length_b   22.50122534
_cell_length_c   21.58675833
_cell_angle_alpha   90.00022424
_cell_angle_beta   90.00602855
_cell_angle_gamma   90.00301414
_symmetry_Int_Tables_number   1
_chemical_formula_structural   H8PbC4(N3Cl2)2
_chemical_formula_sum   'H192 Pb24 C96 N144 Cl96'
_cell_volume   8074.17943275
_cell_formula_units_Z   24
loop_
 _symmetry_equiv_pos_site_id
 _symmetry_equiv_pos_as_xyz
  1  'x, y, z'
loop_
 _atom_site_type_symbol
 _atom_site_label
 _atom_site_symmetry_multiplicity
 _atom_site_fract_x
 _atom_site_fract_y
 _atom_site_fract_z
 _atom_site_occupancy
  H  H0  1  -0.00084340  0.03179368  0.67829046  1
  H  H1  1  -0.00046978  0.36601892  0.67912563  1
  H  H2  1  -0.00953619  0.69898335  0.67972669  1
  H  H3  1  0.50287217  0.03115830  0.68090182  1
  H  H4  1  0.50388236  0.36590369  0.68116891  1
  H  H5  1  0.50329124  0.69877870  0.68359410  1
  H  H6  1  0.00631811  0.30186777  0.17911903  1
  H  H7  1  -0.00204666  0.63575808  0.17866414  1
  H  H8  1  0.00027964  0.96570395  0.17733442  1
  H  H9  1  0.48905723  0.30094876  0.17687581  1
  H  H10  1  0.50050626  0.62804573  0.18133211  1
  H  H11  1  0.50373725  0.96792922  0.17978919  1
  H  H12  1  0.00233505  0.03161515  0.82202160  1
  H  H13  1  -0.00324019  0.36604866  0.82100000  1
  H  H14  1  -0.00042262  0.70026460  0.82318866  1
  H  H15  1  0.49428525  0.03023930  0.82206601  1
  H  H16  1  0.50108149  0.36579181  0.82367344  1
  H  H17  1  0.49909395  0.69909138  0.81719778  1
  H  H18  1  0.01195138  0.30227651  0.31916736  1
  H  H19  1  0.00130944  0.63280881  0.31798581  1
  H  H20  1  0.00067518  0.96780807  0.31760292  1
  H  H21  1  0.49215797  0.30135823  0.32116283  1
  H  H22  1  0.49945591  0.63420622  0.31914831  1
  H  H23  1  0.50419650  0.96901604  0.31996447  1
  H  H24  1  0.25179622  0.19788938  0.68225292  1
  H  H25  1  0.24707973  0.53095523  0.68112040  1
  H  H26  1  0.25545861  0.86697639  0.68069475  1
  H  H27  1  0.74858563  0.19941882  0.68095723  1
  H  H28  1  0.75277091  0.53199030  0.68249037  1
  H  H29  1  0.74576675  0.86699450  0.68160515  1
  H  H30  1  0.25606066  0.13413971  0.18135639  1
  H  H31  1  0.25001684  0.46763117  0.17888907  1
  H  H32  1  0.25565611  0.80197193  0.17863050  1
  H  H33  1  0.74865624  0.13361853  0.17818545  1
  H  H34  1  0.75347340  0.46790892  0.17822074  1
  H  H35  1  0.74399506  0.80392416  0.17895300  1
  H  H36  1  0.24432072  0.19996283  0.81983819  1
  H  H37  1  0.25532773  0.53279362  0.81915516  1
  H  H38  1  0.24669058  0.86507798  0.81991421  1
  H  H39  1  0.75416038  0.19949691  0.82058903  1
  H  H40  1  0.74190266  0.53160220  0.82100256  1
  H  H41  1  0.75295317  0.86489746  0.82174620  1
  H  H42  1  0.25256877  0.13439267  0.31995533  1
  H  H43  1  0.25691944  0.46831136  0.32092987  1
  H  H44  1  0.25590293  0.80066786  0.31967896  1
  H  H45  1  0.74706007  0.13517474  0.31812513  1
  H  H46  1  0.74361157  0.46610711  0.32028348  1
  H  H47  1  0.74509678  0.79955715  0.31798988  1
  H  H48  1  0.12693915  0.05293370  0.61164173  1
  H  H49  1  0.11619778  0.39047175  0.60122583  1
  H  H50  1  0.12875436  0.71759830  0.62359279  1
  H  H51  1  0.62631209  0.05612570  0.61103482  1
  H  H52  1  0.62058134  0.38868740  0.60256514  1
  H  H53  1  0.62597668  0.72059412  0.61261590  1
  H  H54  1  0.37866689  0.27757796  0.09518245  1
  H  H55  1  0.37437225  0.61332491  0.10992477  1
  H  H56  1  0.37382410  0.94570082  0.11524293  1
  H  H57  1  0.87070691  0.28115413  0.12063779  1
  H  H58  1  0.87492849  0.61259551  0.10651522  1
  H  H59  1  0.87370719  0.94816517  0.10979218  1
  H  H60  1  0.38331564  0.05968164  0.90127941  1
  H  H61  1  0.37776601  0.38667289  0.89252166  1
  H  H62  1  0.37501091  0.72008624  0.88710326  1
  H  H63  1  0.87743126  0.05288480  0.89186391  1
  H  H64  1  0.88105098  0.39137434  0.89916089  1
  H  H65  1  0.87633332  0.72075295  0.89300660  1
  H  H66  1  0.11994230  0.27608444  0.40373578  1
  H  H67  1  0.12451707  0.61277090  0.38795357  1
  H  H68  1  0.11935610  0.94487029  0.39466067  1
  H  H69  1  0.62687939  0.28018638  0.38100933  1
  H  H70  1  0.62647199  0.61280767  0.38812439  1
  H  H71  1  0.61883633  0.94352317  0.39951074  1
  H  H72  1  0.37624491  0.21969685  0.61187988  1
  H  H73  1  0.37282664  0.55366977  0.61060226  1
  H  H74  1  0.37786332  0.88883121  0.60782173  1
  H  H75  1  0.87276048  0.21990827  0.61195469  1
  H  H76  1  0.87326708  0.55428096  0.60802779  1
  H  H77  1  0.88054453  0.88557901  0.61930351  1
  H  H78  1  0.11954525  0.11390694  0.12174748  1
  H  H79  1  0.12449287  0.44680013  0.10697286  1
  H  H80  1  0.12133172  0.78168402  0.11783481  1
  H  H81  1  0.62170334  0.11318618  0.10969210  1
  H  H82  1  0.61934350  0.44653597  0.11773286  1
  H  H83  1  0.62979055  0.77812792  0.09920306  1
  H  H84  1  0.12999977  0.22450717  0.90049477  1
  H  H85  1  0.12199417  0.55164938  0.88126460  1
  H  H86  1  0.12686549  0.88707347  0.89715472  1
  H  H87  1  0.62292012  0.22017091  0.88412453  1
  H  H88  1  0.62945347  0.55544332  0.90246420  1
  H  H89  1  0.62641019  0.88827182  0.89044656  1
  H  H90  1  0.37259121  0.11165207  0.39359932  1
  H  H91  1  0.37647359  0.44385038  0.39533260  1
  H  H92  1  0.36798652  0.77806720  0.39940338  1
  H  H93  1  0.87373987  0.11289325  0.38828572  1
  H  H94  1  0.88401129  0.45096740  0.37295711  1
  H  H95  1  0.87231347  0.78057046  0.38693680  1
  H  H96  1  0.37919513  0.27626436  0.40145950  1
  H  H97  1  0.37666080  0.61170440  0.39060796  1
  H  H98  1  0.37164648  0.94728321  0.38380142  1
  H  H99  1  0.87459087  0.28341771  0.37677006  1
  H  H100  1  0.87519551  0.61256504  0.38671027  1
  H  H101  1  0.87120849  0.94588680  0.38622332  1
  H  H102  1  0.12648597  0.05470587  0.89349416  1
  H  H103  1  0.12968778  0.38725037  0.88281360  1
  H  H104  1  0.12498898  0.71916355  0.89146261  1
  H  H105  1  0.62975144  0.04848625  0.88215180  1
  H  H106  1  0.62623310  0.38772401  0.89114551  1
  H  H107  1  0.62511384  0.72055054  0.88491428  1
  H  H108  1  0.11835218  0.27691839  0.09782673  1
  H  H109  1  0.12386868  0.61375173  0.10779987  1
  H  H110  1  0.12275507  0.94500551  0.10687555  1
  H  H111  1  0.62514726  0.28257296  0.11783575  1
  H  H112  1  0.62325730  0.61122864  0.10783212  1
  H  H113  1  0.62246703  0.94459459  0.10327422  1
  H  H114  1  0.37762640  0.05306021  0.60962219  1
  H  H115  1  0.37303914  0.38741402  0.61549813  1
  H  H116  1  0.37644024  0.71983246  0.61656627  1
  H  H117  1  0.87813093  0.05627325  0.60523111  1
  H  H118  1  0.86864489  0.38635959  0.61348780  1
  H  H119  1  0.88408146  0.72539053  0.59398633  1
  H  H120  1  0.12305747  0.11244076  0.38665499  1
  H  H121  1  0.12765832  0.44701053  0.38715802  1
  H  H122  1  0.12025598  0.78081998  0.38033535  1
  H  H123  1  0.62465504  0.11351240  0.39065227  1
  H  H124  1  0.63808358  0.44174367  0.40375479  1
  H  H125  1  0.62410037  0.77742654  0.39144532  1
  H  H126  1  0.37775437  0.21987027  0.88288091  1
  H  H127  1  0.37061691  0.55238783  0.89644096  1
  H  H128  1  0.37588099  0.88730218  0.88570120  1
  H  H129  1  0.87164827  0.22181308  0.89511620  1
  H  H130  1  0.87730349  0.55353574  0.87955108  1
  H  H131  1  0.87546305  0.88706399  0.89462133  1
  H  H132  1  0.36667727  0.11032523  0.09986541  1
  H  H133  1  0.37339634  0.44500909  0.10784282  1
  H  H134  1  0.36941067  0.77604222  0.09934201  1
  H  H135  1  0.87072557  0.11026262  0.10525625  1
  H  H136  1  0.86773750  0.44301958  0.09879294  1
  H  H137  1  0.87707194  0.78147204  0.11648626  1
  H  H138  1  0.12601426  0.22171891  0.61185755  1
  H  H139  1  0.12401156  0.55428562  0.61018649  1
  H  H140  1  0.12864403  0.88659048  0.61420153  1
  H  H141  1  0.62351988  0.22056284  0.61023104  1
  H  H142  1  0.62419622  0.55360292  0.61429604  1
  H  H143  1  0.63154853  0.89091123  0.60344148  1
  H  H144  1  0.80137050  0.41555370  -0.00379378  1
  H  H145  1  0.59973409  0.25375211  0.00917348  1
  H  H146  1  0.82054900  0.24984808  1.00438048  1
  H  H147  1  0.70898887  0.41437726  0.50894282  1
  H  H148  1  0.82276043  0.73825303  0.48599650  1
  H  H149  1  0.45354946  0.07370383  1.00417347  1
  H  H150  1  0.04346566  0.25426951  0.50451223  1
  H  H151  1  0.94556974  0.41984216  1.00194850  1
  H  H152  1  0.69888567  0.58274040  1.00414838  1
  H  H153  1  0.17034968  0.41915483  0.49430507  1
  H  H154  1  0.55599984  0.41341764  0.49907609  1
  H  H155  1  0.42421468  0.58349260  0.50031003  1
  H  H156  1  0.82853913  0.24888038  0.49987077  1
  H  H157  1  0.44745336  0.25081184  0.50444630  1
  H  H158  1  0.56217646  0.57572580  0.00691270  1
  H  H159  1  0.90232508  0.41574578  0.50580106  1
  H  H160  1  0.42192337  0.74673895  0.99957238  1
  H  H161  1  0.16140559  0.08373137  0.49245044  1
  H  H162  1  0.32841555  0.24698534  0.50039212  1
  H  H163  1  0.57704068  0.73971947  0.49893923  1
  H  H164  1  0.30339301  0.75482150  0.50846413  1
  H  H165  1  0.29872383  0.08415024  -0.00559109  1
  H  H166  1  0.60292446  0.08383677  0.98731190  1
  H  H167  1  0.04915429  0.24999768  -0.00377746  1
  H  H168  1  0.16909677  0.91584078  0.50129649  1
  H  H169  1  0.55150270  0.91985197  0.50232200  1
  H  H170  1  0.17578262  0.24377123  0.50451054  1
  H  H171  1  0.58065004  0.74760373  0.99821150  1
  H  H172  1  0.82054269  0.58109478  0.50006425  1
  H  H173  1  0.33683676  0.91565447  0.99654202  1
  H  H174  1  0.19867455  0.25245501  1.00160721  1
  H  H175  1  0.81979515  0.08151817  0.00142679  1
  H  H176  1  0.41843430  0.74574029  0.50314561  1
  H  H177  1  0.14982551  0.75270327  0.48827259  1
  H  H178  1  0.68369888  0.77272779  0.49831221  1
  H  H179  1  0.84819037  0.91507955  0.51237276  1
  H  H180  1  0.07992016  0.58414402  0.49971536  1
  H  H181  1  0.96130233  0.74757206  0.49401660  1
  H  H182  1  0.69235102  0.91777183  0.49547718  1
  H  H183  1  0.43372216  0.57214616  0.01053055  1
  H  H184  1  0.31123456  0.57988944  1.00651247  1
  H  H185  1  0.93108674  0.08429819  0.50132750  1
  H  H186  1  0.32077595  0.08060351  0.50204281  1
  H  H187  1  0.69897676  0.75803847  -0.00430908  1
  H  H188  1  0.58299475  0.58267314  0.49288987  1
  H  H189  1  0.67488331  0.08686655  0.49986418  1
  H  H190  1  0.30200627  0.75068289  -0.00420279  1
  H  H191  1  0.07842693  0.08079862  0.99857486  1
  Pb  Pb192  1  0.25094957  0.04528116  0.75070846  1
  Pb  Pb193  1  0.25002695  0.37984081  0.74442871  1
  Pb  Pb194  1  0.24833240  0.71395355  0.75225379  1
  Pb  Pb195  1  0.75204940  0.04651040  0.75055496  1
  Pb  Pb196  1  0.74879059  0.38020990  0.75419389  1
  Pb  Pb197  1  0.75539399  0.71556476  0.74551410  1
  Pb  Pb198  1  0.24988517  0.28222452  0.24825446  1
  Pb  Pb199  1  0.24870194  0.62093920  0.24876616  1
  Pb  Pb200  1  0.24788841  0.95441119  0.24968563  1
  Pb  Pb201  1  0.74915394  0.28883859  0.24935497  1
  Pb  Pb202  1  0.75060406  0.61795868  0.24634704  1
  Pb  Pb203  1  0.74542178  0.95105179  0.25335931  1
  Pb  Pb204  1  0.00165760  0.21423690  0.75289840  1
  Pb  Pb205  1  0.00032387  0.54576601  0.74607321  1
  Pb  Pb206  1  0.00228728  0.87966676  0.75285980  1
  Pb  Pb207  1  0.49937177  0.21307689  0.74650470  1
  Pb  Pb208  1  0.50042993  0.54861160  0.75497430  1
  Pb  Pb209  1  0.50180906  0.88019081  0.74544629  1
  Pb  Pb210  1  -0.00679620  0.11871771  0.24927024  1
  Pb  Pb211  1  0.00446034  0.45257392  0.24150137  1
  Pb  Pb212  1  -0.00097652  0.78745091  0.25611078  1
  Pb  Pb213  1  0.50181953  0.11876323  0.24499412  1
  Pb  Pb214  1  0.49810746  0.45280145  0.25736337  1
  Pb  Pb215  1  0.49492498  0.78479062  0.24738616  1
  C  C216  1  0.00101445  0.04695774  0.63069701  1
  C  C217  1  -0.00560550  0.38078910  0.63143613  1
  C  C218  1  0.00078423  0.71296061  0.63220397  1
  C  C219  1  0.50195118  0.04655785  0.63355442  1
  C  C220  1  0.49929254  0.38033537  0.63336484  1
  C  C221  1  0.50197791  0.71343571  0.63565052  1
  C  C222  1  -0.00123228  0.28706166  0.13168179  1
  C  C223  1  -0.00085094  0.62076272  0.13110040  1
  C  C224  1  -0.00111666  0.95258587  0.12882236  1
  C  C225  1  0.49809245  0.28666845  0.12939213  1
  C  C226  1  0.49925879  0.61618843  0.13251341  1
  C  C227  1  0.50017938  0.95280699  0.13236301  1
  C  C228  1  0.00259008  0.04625677  0.86982368  1
  C  C229  1  0.00220880  0.38069878  0.86855275  1
  C  C230  1  0.00031327  0.71370685  0.87135924  1
  C  C231  1  0.50262443  0.04578602  0.86937048  1
  C  C232  1  0.50176239  0.38041768  0.87157467  1
  C  C233  1  0.49977977  0.71348010  0.86522034  1
  C  C234  1  0.00261616  0.28791732  0.36661716  1
  C  C235  1  0.00081386  0.61916696  0.36608032  1
  C  C236  1  -0.00317776  0.95328870  0.36549303  1
  C  C237  1  0.49901974  0.28678753  0.36867597  1
  C  C238  1  0.50130300  0.61881898  0.36690735  1
  C  C239  1  0.49845654  0.95386559  0.36747586  1
  C  C240  1  0.25081127  0.21244603  0.63421637  1
  C  C241  1  0.24833862  0.54607723  0.63368523  1
  C  C242  1  0.25344516  0.88088122  0.63273399  1
  C  C243  1  0.74874036  0.21328500  0.63295231  1
  C  C244  1  0.74982406  0.54687240  0.63473674  1
  C  C245  1  0.75327656  0.88147225  0.63388448  1
  C  C246  1  0.24707233  0.11962314  0.13389654  1
  C  C247  1  0.24884877  0.45309770  0.13115747  1
  C  C248  1  0.24919229  0.78730639  0.13110588  1
  C  C249  1  0.74737094  0.11892240  0.13032124  1
  C  C250  1  0.74713009  0.45311879  0.13074092  1
  C  C251  1  0.74973483  0.78829165  0.13158738  1
  C  C252  1  0.25037752  0.21459799  0.86748531  1
  C  C253  1  0.24956301  0.54618249  0.86709922  1
  C  C254  1  0.24961990  0.88008883  0.86756980  1
  C  C255  1  0.74992857  0.21385223  0.86837205  1
  C  C256  1  0.74930075  0.54646563  0.86837341  1
  C  C257  1  0.75137636  0.88006897  0.86920823  1
  C  C258  1  0.24892075  0.11934135  0.36781998  1
  C  C259  1  0.25332957  0.45336624  0.36849908  1
  C  C260  1  0.24733709  0.78619391  0.36731932  1
  C  C261  1  0.74872029  0.12014833  0.36583215  1
  C  C262  1  0.75515604  0.45313324  0.36782576  1
  C  C263  1  0.74724536  0.78557819  0.36625290  1
  C  C264  1  0.46275963  0.59331497  0.46091552  1
  C  C265  1  0.47367979  0.26017440  0.03173953  1
  C  C266  1  0.81955137  0.43023263  0.45405092  1
  C  C267  1  0.55545748  0.25791366  0.45717181  1
  C  C268  1  0.96144468  0.73762177  0.96462905  1
  C  C269  1  0.05573202  0.40935767  0.95802804  1
  C  C270  1  0.54014731  0.73556215  0.54021718  1
  C  C271  1  0.96326257  0.59368697  0.03780896  1
  C  C272  1  0.70184988  0.09436735  0.03673774  1
  C  C273  1  0.28392945  0.09237622  0.46223353  1
  C  C274  1  0.73939275  0.42661050  0.46607241  1
  C  C275  1  0.04799114  0.07406193  0.53850705  1
  C  C276  1  0.78233035  0.57149446  0.54019587  1
  C  C277  1  0.29331041  0.90610376  0.95895299  1
  C  C278  1  0.03924326  0.59407043  0.46104635  1
  C  C279  1  0.45989901  0.73781077  0.95958260  1
  C  C280  1  0.21032771  0.90588616  0.53893928  1
  C  C281  1  0.28556667  0.42513010  0.03840185  1
  C  C282  1  0.94073723  0.25859826  0.04362189  1
  C  C283  1  0.27764816  0.57015588  0.96449983  1
  C  C284  1  0.69942059  0.23904306  0.95949879  1
  C  C285  1  0.71378383  0.09573974  0.45994232  1
  C  C286  1  0.04221926  0.73718917  0.96403066  1
  C  C287  1  0.19677947  0.56967332  0.95726088  1
  C  C288  1  0.54335095  0.40694583  0.96339894  1
  C  C289  1  0.69194422  0.42408556  0.04185726  1
  C  C290  1  0.54207807  0.73805748  0.95878910  1
  C  C291  1  0.26778728  0.09402410  0.03768663  1
  C  C292  1  0.72499352  0.90710451  0.53780747  1
  C  C293  1  0.95749301  0.59426924  0.45925006  1
  C  C294  1  0.95618086  0.92996573  0.03671381  1
  C  C295  1  0.28955815  0.42469650  0.46307209  1
  C  C296  1  0.27326504  0.76214165  0.46436204  1
  C  C297  1  0.21119763  0.57526826  0.54113588  1
  C  C298  1  0.53945957  0.07599459  0.54121570  1
  C  C299  1  0.78626461  0.90849199  0.96202846  1
  C  C300  1  0.19344139  0.75928500  0.04205992  1
  C  C301  1  0.29193798  0.90594474  0.53838420  1
  C  C302  1  0.45479122  0.92529461  0.04164855  1
  C  C303  1  0.95964523  0.07232775  0.96373085  1
  C  C304  1  0.45821885  0.73649499  0.54193115  1
  C  C305  1  0.29168896  0.23896147  0.54126646  1
  C  C306  1  0.46239090  0.40656095  0.96397209  1
  C  C307  1  0.80660215  0.57608377  0.95620995  1
  C  C308  1  0.03634192  0.92883293  0.03576219  1
  C  C309  1  0.70683295  0.23839131  0.53933865  1
  C  C310  1  0.78119988  0.23994576  0.96473589  1
  C  C311  1  0.78846827  0.23855473  0.53821197  1
  N  N312  1  0.70290926  0.57105469  0.54137971  1
  N  N313  1  0.45648016  0.60631563  0.03717448  1
  N  N314  1  0.44492602  0.92745232  0.45677212  1
  N  N315  1  0.27208253  0.75850559  0.03654475  1
  N  N316  1  0.21070558  0.42640398  0.45951577  1
  N  N317  1  0.02901430  0.92684555  0.46073275  1
  N  N318  1  0.72632398  0.75927145  0.03821928  1
  N  N319  1  0.47691151  0.25797166  0.46333555  1
  N  N320  1  0.20834058  0.42575738  0.03690949  1
  N  N321  1  0.80417868  0.90479654  0.54431828  1
  N  N322  1  0.79121757  0.76773731  0.45915758  1
  N  N323  1  0.98599300  0.74056559  0.53734593  1
  N  N324  1  0.70880718  0.90878160  0.96220771  1
  N  N325  1  0.01888090  0.25968701  0.46105993  1
  N  N326  1  0.06306296  0.73655841  0.54556516  1
  N  N327  1  0.55182594  0.26173058  0.04081485  1
  N  N328  1  0.30508677  0.23760232  0.95744576  1
  N  N329  1  0.03891436  0.07277878  0.96282943  1
  N  N330  1  0.96860552  0.07513680  0.53757095  1
  N  N331  1  0.52255173  0.92614423  0.46097002  1
  N  N332  1  0.28905378  0.57504206  0.54002588  1
  N  N333  1  0.77063316  0.42389481  0.03653178  1
  N  N334  1  0.46170463  0.07478628  0.53953004  1
  N  N335  1  0.79323032  0.09531396  0.45962011  1
  N  N336  1  0.19447102  0.76260203  0.45622634  1
  N  N337  1  0.55740909  0.06793621  0.95733495  1
  N  N338  1  0.18897534  0.09478031  0.04475237  1
  N  N339  1  0.72815877  0.57556729  0.96294430  1
  N  N340  1  0.20422906  0.09394702  0.45888246  1
  N  N341  1  0.52574285  0.40593872  0.53964361  1
  N  N342  1  0.47958904  0.08062265  0.96157212  1
  N  N343  1  0.44791231  0.40492775  0.54272607  1
  N  N344  1  0.53860216  0.60743077  0.03634837  1
  N  N345  1  0.78120988  0.09325012  0.03652120  1
  N  N346  1  0.71094481  0.75760124  0.45862158  1
  N  N347  1  0.22743229  0.23938375  0.96191176  1
  N  N348  1  0.01940368  0.25776204  0.03708164  1
  N  N349  1  0.04044933  0.59354889  0.03710040  1
  N  N350  1  0.80402339  0.76005485  0.04334484  1
  N  N351  1  0.21208699  0.24091289  0.54261217  1
  N  N352  1  0.54251222  0.59463449  0.45920234  1
  N  N353  1  0.94838811  0.40568978  0.54151574  1
  N  N354  1  0.02657572  0.40691605  0.53625195  1
  N  N355  1  0.21403371  0.90646984  0.96301940  1
  N  N356  1  0.95236106  0.92767126  0.45808534  1
  N  N357  1  0.97721921  0.40979836  0.96253804  1
  N  N358  1  0.53234362  0.92476267  0.03647370  1
  N  N359  1  0.94154069  0.26358602  0.45357702  1
  N  N360  1  0.06801571  0.05701260  0.59627702  1
  N  N361  1  0.05443436  0.39184036  0.59240560  1
  N  N362  1  0.07169517  0.72136014  0.60512565  1
  N  N363  1  0.56638067  0.05910804  0.59797426  1
  N  N364  1  0.55886192  0.38951052  0.59387641  1
  N  N365  1  0.56628891  0.72163922  0.59907994  1
  N  N366  1  0.43991025  0.27536387  0.08659088  1
  N  N367  1  0.43477170  0.60856694  0.09759211  1
  N  N368  1  0.43267509  0.94205385  0.09967856  1
  N  N369  1  0.92798371  0.27598598  0.10243980  1
  N  N370  1  0.93498999  0.60985873  0.09452298  1
  N  N371  1  0.93244955  0.94424960  0.09363538  1
  N  N372  1  0.44493997  0.05671731  0.91017832  1
  N  N373  1  0.43698306  0.39066964  0.90788024  1
  N  N374  1  0.43497658  0.72250887  0.90105296  1
  N  N375  1  0.93720457  0.05649490  0.90592762  1
  N  N376  1  0.94288377  0.39075157  0.90799400  1
  N  N377  1  0.93566944  0.72363578  0.90806161  1
  N  N378  1  0.05776608  0.27753326  0.40935983  1
  N  N379  1  0.06489680  0.60967459  0.40189962  1
  N  N380  1  0.05766159  0.94258246  0.40360773  1
  N  N381  1  0.56921580  0.27540677  0.39856903  1
  N  N382  1  0.56605325  0.60911193  0.40091717  1
  N  N383  1  0.55709819  0.94405392  0.40764688  1
  N  N384  1  0.31604104  0.22258540  0.59841972  1
  N  N385  1  0.31217334  0.55639285  0.59896793  1
  N  N386  1  0.31771982  0.89092738  0.59504625  1
  N  N387  1  0.81340822  0.22274546  0.59765127  1
  N  N388  1  0.81239423  0.55706232  0.59705748  1
  N  N389  1  0.82132000  0.89006265  0.60373609  1
  N  N390  1  0.17798504  0.11068847  0.10505991  1
  N  N391  1  0.18508936  0.44359352  0.09606052  1
  N  N392  1  0.17922266  0.77676963  0.10058755  1
  N  N393  1  0.68092249  0.11013922  0.09506240  1
  N  N394  1  0.67722408  0.44170763  0.10030937  1
  N  N395  1  0.69136361  0.77893520  0.09104636  1
  N  N396  1  0.19218740  0.22588457  0.90752313  1
  N  N397  1  0.18025556  0.55555188  0.89856319  1
  N  N398  1  0.18868075  0.89013052  0.90577778  1
  N  N399  1  0.68157446  0.22341371  0.90091764  1
  N  N400  1  0.69163318  0.55576722  0.90948346  1
  N  N401  1  0.68683889  0.89092652  0.90304926  1
  N  N402  1  0.31198650  0.10849529  0.40570933  1
  N  N403  1  0.31633068  0.44112329  0.40683570  1
  N  N404  1  0.30667689  0.77655092  0.40913415  1
  N  N405  1  0.81310373  0.11061063  0.40047379  1
  N  N406  1  0.82835023  0.44620363  0.39439988  1
  N  N407  1  0.81244342  0.77329454  0.39893106  1
  N  N408  1  0.44081018  0.27755526  0.40936057  1
  N  N409  1  0.43703995  0.60864723  0.40361035  1
  N  N410  1  0.43043844  0.94327968  0.39809688  1
  N  N411  1  0.93219813  0.27875308  0.39415820  1
  N  N412  1  0.93467340  0.60924608  0.40176317  1
  N  N413  1  0.93122108  0.94405125  0.39891111  1
  N  N414  1  0.06599737  0.05615075  0.90513486  1
  N  N415  1  0.07159377  0.39155415  0.89989124  1
  N  N416  1  0.06603465  0.72266626  0.90706971  1
  N  N417  1  0.57173486  0.05555606  0.89789356  1
  N  N418  1  0.56749066  0.39115099  0.90682768  1
  N  N419  1  0.56557276  0.72289769  0.89988640  1
  N  N420  1  0.05615725  0.27698343  0.09070579  1
  N  N421  1  0.06320185  0.61073121  0.09642741  1
  N  N422  1  0.06334259  0.94241772  0.09192706  1
  N  N423  1  0.56712665  0.27763127  0.10103424  1
  N  N424  1  0.56245321  0.60819928  0.09625117  1
  N  N425  1  0.56070250  0.94221106  0.09437384  1
  N  N426  1  0.43832015  0.05595852  0.59828132  1
  N  N427  1  0.43197286  0.39030674  0.60158583  1
  N  N428  1  0.43582004  0.72276497  0.60147942  1
  N  N429  1  0.93907256  0.05808581  0.59445157  1
  N  N430  1  0.92793942  0.38943955  0.59910124  1
  N  N431  1  0.94642345  0.72330701  0.58882527  1
  N  N432  1  0.18303468  0.11030592  0.40064826  1
  N  N433  1  0.18754682  0.44459934  0.40137034  1
  N  N434  1  0.17873340  0.77703653  0.39647951  1
  N  N435  1  0.68512673  0.11022584  0.40260434  1
  N  N436  1  0.70013885  0.44148790  0.41098116  1
  N  N437  1  0.68471054  0.78008414  0.40377946  1
  N  N438  1  0.31888542  0.22241010  0.89842075  1
  N  N439  1  0.30988854  0.55541315  0.90686024  1
  N  N440  1  0.31649289  0.89040388  0.90050185  1
  N  N441  1  0.81128152  0.22410013  0.90662415  1
  N  N442  1  0.81979233  0.55850806  0.89756841  1
  N  N443  1  0.81518654  0.89102806  0.90613219  1
  N  N444  1  0.30482166  0.10899642  0.09196193  1
  N  N445  1  0.31332211  0.44155826  0.09506675  1
  N  N446  1  0.30784798  0.77746278  0.09091507  1
  N  N447  1  0.80961478  0.10816818  0.09422003  1
  N  N448  1  0.80577100  0.44343768  0.09058308  1
  N  N449  1  0.81794377  0.77637020  0.10180514  1
  N  N450  1  0.18690335  0.22167528  0.59915994  1
  N  N451  1  0.18408611  0.55780350  0.59760092  1
  N  N452  1  0.18763152  0.89020699  0.59879792  1
  N  N453  1  0.68336110  0.22328859  0.59669049  1
  N  N454  1  0.68448320  0.55577484  0.60105840  1
  N  N455  1  0.69312276  0.89225609  0.59330943  1
  Cl  Cl456  1  0.25143854  0.05483998  0.61464153  1
  Cl  Cl457  1  0.24061451  0.38827391  0.60758945  1
  Cl  Cl458  1  0.25315017  0.72174930  0.61731174  1
  Cl  Cl459  1  0.75153461  0.05279722  0.61754607  1
  Cl  Cl460  1  0.74271739  0.38684215  0.61840457  1
  Cl  Cl461  1  0.75955785  0.72793515  0.60183330  1
  Cl  Cl462  1  0.24281634  0.27678455  0.10840367  1
  Cl  Cl463  1  0.25229257  0.61580392  0.11302054  1
  Cl  Cl464  1  0.25061748  0.94649517  0.11920889  1
  Cl  Cl465  1  0.74824772  0.28364752  0.11596024  1
  Cl  Cl466  1  0.74458256  0.60833578  0.10610348  1
  Cl  Cl467  1  0.74576894  0.95142682  0.12243077  1
  Cl  Cl468  1  0.25797186  0.05795568  0.88670296  1
  Cl  Cl469  1  0.25288117  0.38329156  0.87471938  1
  Cl  Cl470  1  0.25282084  0.72171737  0.88783964  1
  Cl  Cl471  1  0.75470327  0.05448177  0.88786183  1
  Cl  Cl472  1  0.75930453  0.39259962  0.89238096  1
  Cl  Cl473  1  0.74841548  0.72084609  0.88143722  1
  Cl  Cl474  1  0.24640024  0.27481517  0.39831953  1
  Cl  Cl475  1  0.25263724  0.61615439  0.37904364  1
  Cl  Cl476  1  0.24341178  0.94782703  0.38524651  1
  Cl  Cl477  1  0.75048159  0.28215536  0.38026200  1
  Cl  Cl478  1  0.75012848  0.61647025  0.37997326  1
  Cl  Cl479  1  0.74288106  0.94145263  0.39263203  1
  Cl  Cl480  1  0.00518705  0.22259180  0.61011996  1
  Cl  Cl481  1  -0.00141442  0.55325906  0.61282462  1
  Cl  Cl482  1  0.00219425  0.88390419  0.62050923  1
  Cl  Cl483  1  0.49668266  0.22366568  0.60893072  1
  Cl  Cl484  1  0.49958355  0.55427810  0.61677285  1
  Cl  Cl485  1  0.50898128  0.89175622  0.60817294  1
  Cl  Cl486  1  -0.00617421  0.11368296  0.11399647  1
  Cl  Cl487  1  -0.00913423  0.44173707  0.10400052  1
  Cl  Cl488  1  -0.00143786  0.78510796  0.12625358  1
  Cl  Cl489  1  0.49318803  0.10932534  0.10519385  1
  Cl  Cl490  1  0.49592406  0.45330480  0.12522535  1
  Cl  Cl491  1  0.50011779  0.77467594  0.11053267  1
  Cl  Cl492  1  0.00805763  0.22335544  0.89379042  1
  Cl  Cl493  1  -0.00116897  0.54781485  0.87669927  1
  Cl  Cl494  1  0.00231525  0.88428593  0.88469988  1
  Cl  Cl495  1  0.50073279  0.21949421  0.87967792  1
  Cl  Cl496  1  0.50494454  0.55507855  0.90044172  1
  Cl  Cl497  1  0.50031714  0.88617572  0.87582159  1
  Cl  Cl498  1  -0.00143135  0.11225844  0.38708914  1
  Cl  Cl499  1  0.00780534  0.44812490  0.37416604  1
  Cl  Cl500  1  -0.00681766  0.77429544  0.39640933  1
  Cl  Cl501  1  0.49865444  0.11800015  0.37677606  1
  Cl  Cl502  1  0.51064035  0.44262633  0.39443154  1
  Cl  Cl503  1  0.49846135  0.77689871  0.38437510  1
  Cl  Cl504  1  0.36279638  0.14618787  0.75177017  1
  Cl  Cl505  1  0.36352668  0.47806361  0.74573352  1
  Cl  Cl506  1  0.36431282  0.81094410  0.74901918  1
  Cl  Cl507  1  0.86421226  0.14563135  0.75029000  1
  Cl  Cl508  1  0.86338290  0.47788741  0.75075914  1
  Cl  Cl509  1  0.86024627  0.81010286  0.74620169  1
  Cl  Cl510  1  0.13991062  0.19064710  0.25066278  1
  Cl  Cl511  1  0.13825054  0.52140297  0.24931905  1
  Cl  Cl512  1  0.13608471  0.85439096  0.25344180  1
  Cl  Cl513  1  0.63728679  0.18815454  0.24574841  1
  Cl  Cl514  1  0.63609491  0.52269833  0.24709092  1
  Cl  Cl515  1  0.64171148  0.85653297  0.25335131  1
  Cl  Cl516  1  0.13724819  0.14504984  0.74756233  1
  Cl  Cl517  1  0.13630378  0.47765028  0.75110192  1
  Cl  Cl518  1  0.13936835  0.81021385  0.74739817  1
  Cl  Cl519  1  0.63678042  0.14487421  0.75193415  1
  Cl  Cl520  1  0.63980790  0.47740224  0.74900880  1
  Cl  Cl521  1  0.63801099  0.81084819  0.74906359  1
  Cl  Cl522  1  0.35623947  0.19033589  0.25049913  1
  Cl  Cl523  1  0.36345754  0.52232201  0.25068787  1
  Cl  Cl524  1  0.36035680  0.85400254  0.25226674  1
  Cl  Cl525  1  0.86146256  0.18886577  0.24983429  1
  Cl  Cl526  1  0.85878151  0.52347573  0.25294603  1
  Cl  Cl527  1  0.86059539  0.85523798  0.25353746  1
  Cl  Cl528  1  0.11169187  0.31038746  0.74834742  1
  Cl  Cl529  1  0.11224070  0.64571291  0.74844233  1
  Cl  Cl530  1  0.11261350  0.97896386  0.74940721  1
  Cl  Cl531  1  0.61355186  0.31182124  0.75305753  1
  Cl  Cl532  1  0.61032781  0.64305610  0.74782146  1
  Cl  Cl533  1  0.61511601  0.97801311  0.75280226  1
  Cl  Cl534  1  0.38632406  0.02176266  0.25153666  1
  Cl  Cl535  1  0.38976083  0.35400957  0.25124008  1
  Cl  Cl536  1  0.38988560  0.68852636  0.24823730  1
  Cl  Cl537  1  0.89054105  0.02372100  0.25150962  1
  Cl  Cl538  1  0.88607964  0.35548069  0.25120521  1
  Cl  Cl539  1  0.88590438  0.68887867  0.25207428  1
  Cl  Cl540  1  0.38842648  0.31218543  0.74694301  1
  Cl  Cl541  1  0.39113549  0.64256901  0.75002296  1
  Cl  Cl542  1  0.38917298  0.97854155  0.74838961  1
  Cl  Cl543  1  0.88946886  0.31068290  0.74806705  1
  Cl  Cl544  1  0.88794899  0.64549449  0.75068013  1
  Cl  Cl545  1  0.88815662  0.97836993  0.74870812  1
  Cl  Cl546  1  0.11379942  0.02337268  0.24728029  1
  Cl  Cl547  1  0.10732028  0.35620546  0.24896359  1
  Cl  Cl548  1  0.11261015  0.68989786  0.25079346  1
  Cl  Cl549  1  0.60917687  0.02406907  0.24979276  1
  Cl  Cl550  1  0.61277671  0.35506418  0.24920560  1
  Cl  Cl551  1  0.61246481  0.68748668  0.25063634  1
