# generated using pymatgen
data_H8PbC4(N3Cl2)2
_symmetry_space_group_name_H-M   'P 1'
_cell_length_a   16.62322403
_cell_length_b   22.50313591
_cell_length_c   21.58995942
_cell_angle_alpha   90.00079899
_cell_angle_beta   89.99126922
_cell_angle_gamma   89.99996616
_symmetry_Int_Tables_number   1
_chemical_formula_structural   H8PbC4(N3Cl2)2
_chemical_formula_sum   'H192 Pb24 C96 N144 Cl96'
_cell_volume   8076.25684317
_cell_formula_units_Z   24
loop_
 _symmetry_equiv_pos_site_id
 _symmetry_equiv_pos_as_xyz
  1  'x, y, z'
loop_
 _atom_site_type_symbol
 _atom_site_label
 _atom_site_symmetry_multiplicity
 _atom_site_fract_x
 _atom_site_fract_y
 _atom_site_fract_z
 _atom_site_occupancy
  H  H0  1  -0.00741263  0.03114933  0.68203107  1
  H  H1  1  0.00311440  0.36479041  0.68138072  1
  H  H2  1  -0.00208086  0.69780922  0.67913114  1
  H  H3  1  0.50491775  0.03317177  0.68058487  1
  H  H4  1  0.49756386  0.36466508  0.68255407  1
  H  H5  1  0.49857064  0.69897890  0.68369559  1
  H  H6  1  -0.00690466  0.30006616  0.17881016  1
  H  H7  1  0.00119454  0.63394322  0.18269620  1
  H  H8  1  -0.00459427  0.96903860  0.17886239  1
  H  H9  1  0.50039800  0.30216635  0.17691528  1
  H  H10  1  0.50022246  0.63580425  0.18147101  1
  H  H11  1  0.49665629  0.96985393  0.18056414  1
  H  H12  1  -0.00797104  0.03106970  0.82266991  1
  H  H13  1  -0.00306123  0.36534764  0.81762701  1
  H  H14  1  -0.00018774  0.70016627  0.81727186  1
  H  H15  1  0.49602078  0.03028687  0.81901806  1
  H  H16  1  0.50688529  0.36398132  0.82098615  1
  H  H17  1  0.50217729  0.69786248  0.81911440  1
  H  H18  1  0.01098012  0.29920016  0.32455294  1
  H  H19  1  0.00041352  0.63714637  0.32114513  1
  H  H20  1  0.00755071  0.96853168  0.31759798  1
  H  H21  1  0.49399253  0.30134138  0.31943418  1
  H  H22  1  0.50455058  0.63360679  0.31804575  1
  H  H23  1  0.49613420  0.97040529  0.31785111  1
  H  H24  1  0.24223869  0.19858600  0.67972079  1
  H  H25  1  0.25425815  0.53012839  0.67953613  1
  H  H26  1  0.25402607  0.86553573  0.68347620  1
  H  H27  1  0.74846073  0.19884604  0.67782013  1
  H  H28  1  0.74561633  0.53226901  0.68076157  1
  H  H29  1  0.74258521  0.86484573  0.68012211  1
  H  H30  1  0.25350308  0.13531789  0.17655812  1
  H  H31  1  0.25185081  0.46753198  0.18209300  1
  H  H32  1  0.23916344  0.80021999  0.18143842  1
  H  H33  1  0.75020585  0.13461514  0.18161138  1
  H  H34  1  0.74703589  0.46855261  0.17979402  1
  H  H35  1  0.76245762  0.80170131  0.18266089  1
  H  H36  1  0.25217414  0.19903535  0.82169851  1
  H  H37  1  0.24136192  0.53163722  0.81781642  1
  H  H38  1  0.24966800  0.86428810  0.82062742  1
  H  H39  1  0.75695500  0.19828823  0.82035942  1
  H  H40  1  0.76136972  0.53003171  0.81946134  1
  H  H41  1  0.75169616  0.86714408  0.81869221  1
  H  H42  1  0.25475830  0.13499171  0.32015223  1
  H  H43  1  0.24850129  0.46886059  0.31738990  1
  H  H44  1  0.25814971  0.80070822  0.32023865  1
  H  H45  1  0.74776132  0.13508037  0.31817340  1
  H  H46  1  0.75220410  0.46744578  0.31759220  1
  H  H47  1  0.74125422  0.80216987  0.32009748  1
  H  H48  1  0.12308560  0.05378335  0.61531369  1
  H  H49  1  0.12360072  0.38545724  0.60903917  1
  H  H50  1  0.12464703  0.72018288  0.60960696  1
  H  H51  1  0.61975638  0.05740963  0.60086939  1
  H  H52  1  0.62464941  0.38514354  0.61538262  1
  H  H53  1  0.62453810  0.72003487  0.61556197  1
  H  H54  1  0.38084224  0.27667589  0.10364527  1
  H  H55  1  0.37539368  0.61326704  0.10901881  1
  H  H56  1  0.37200609  0.94620521  0.10901743  1
  H  H57  1  0.88691124  0.27446643  0.09409177  1
  H  H58  1  0.87539147  0.61150337  0.11384602  1
  H  H59  1  0.87817152  0.94496148  0.10164138  1
  H  H60  1  0.37733338  0.05567856  0.89625033  1
  H  H61  1  0.37416906  0.38486152  0.88486205  1
  H  H62  1  0.37301953  0.71916497  0.88332767  1
  H  H63  1  0.88029026  0.05734929  0.90273876  1
  H  H64  1  0.87264917  0.38741739  0.88851854  1
  H  H65  1  0.87477921  0.72154045  0.88892478  1
  H  H66  1  0.11529326  0.27498810  0.40778347  1
  H  H67  1  0.12189919  0.61292549  0.39523768  1
  H  H68  1  0.11982821  0.94459073  0.39811280  1
  H  H69  1  0.62421342  0.28024050  0.38546288  1
  H  H70  1  0.61864306  0.61013667  0.39570438  1
  H  H71  1  0.62310113  0.94543196  0.38420798  1
  H  H72  1  0.37445240  0.21835747  0.61483037  1
  H  H73  1  0.37796707  0.55441976  0.60925652  1
  H  H74  1  0.37523653  0.88790080  0.61149885  1
  H  H75  1  0.87879526  0.22084948  0.61299793  1
  H  H76  1  0.88069208  0.55231717  0.61938768  1
  H  H77  1  0.87732491  0.88400924  0.61849243  1
  H  H78  1  0.12232710  0.11362499  0.11231205  1
  H  H79  1  0.12770546  0.44610572  0.11245058  1
  H  H80  1  0.13343120  0.77756474  0.09773081  1
  H  H81  1  0.62434368  0.11365365  0.11167701  1
  H  H82  1  0.62809160  0.44364993  0.10362007  1
  H  H83  1  0.62506080  0.78216911  0.12408301  1
  H  H84  1  0.11977553  0.21963416  0.88688097  1
  H  H85  1  0.12864574  0.55637568  0.89826906  1
  H  H86  1  0.12464605  0.88794492  0.88967816  1
  H  H87  1  0.61973456  0.21907507  0.87739888  1
  H  H88  1  0.62487198  0.55017214  0.87833814  1
  H  H89  1  0.62674471  0.88720392  0.88701299  1
  H  H90  1  0.37664313  0.11224365  0.39303442  1
  H  H91  1  0.37423457  0.44588317  0.38899460  1
  H  H92  1  0.37030826  0.77541491  0.40116906  1
  H  H93  1  0.87981368  0.11642195  0.38402112  1
  H  H94  1  0.87369987  0.44481749  0.38857698  1
  H  H95  1  0.87659543  0.78158838  0.38018077  1
  H  H96  1  0.37447141  0.27690341  0.39354318  1
  H  H97  1  0.37026910  0.61612015  0.37814027  1
  H  H98  1  0.37355999  0.94615879  0.39126289  1
  H  H99  1  0.87071175  0.28466515  0.37633252  1
  H  H100  1  0.87388958  0.61310882  0.38922503  1
  H  H101  1  0.87225221  0.94771432  0.37909219  1
  H  H102  1  0.12761428  0.05176605  0.88239157  1
  H  H103  1  0.12188673  0.38729817  0.88960116  1
  H  H104  1  0.12496933  0.72124979  0.88666746  1
  H  H105  1  0.62582187  0.05252194  0.88662350  1
  H  H106  1  0.62247438  0.39003250  0.89783225  1
  H  H107  1  0.62166610  0.72154690  0.89202174  1
  H  H108  1  0.13272966  0.28116142  0.12527285  1
  H  H109  1  0.12558666  0.61220165  0.11036258  1
  H  H110  1  0.12621020  0.94741583  0.11301790  1
  H  H111  1  0.62942554  0.28022869  0.11016847  1
  H  H112  1  0.62451806  0.61079972  0.11124277  1
  H  H113  1  0.62049524  0.94649397  0.10898619  1
  H  H114  1  0.37166630  0.05347851  0.61654528  1
  H  H115  1  0.37510520  0.38592620  0.61125661  1
  H  H116  1  0.37454460  0.71973326  0.61317788  1
  H  H117  1  0.87512644  0.05625709  0.60381924  1
  H  H118  1  0.87391982  0.38373498  0.61429962  1
  H  H119  1  0.87585258  0.72244370  0.60720206  1
  H  H120  1  0.12749099  0.11675604  0.38646504  1
  H  H121  1  0.12546436  0.44491261  0.39070280  1
  H  H122  1  0.12275689  0.78124073  0.37957517  1
  H  H123  1  0.63093112  0.11083595  0.39507012  1
  H  H124  1  0.62423436  0.44688460  0.38534894  1
  H  H125  1  0.62990441  0.77609817  0.40223532  1
  H  H126  1  0.36746766  0.22376045  0.90058059  1
  H  H127  1  0.37682936  0.55109085  0.87996963  1
  H  H128  1  0.37357502  0.88812601  0.89226405  1
  H  H129  1  0.86516971  0.22428650  0.90499646  1
  H  H130  1  0.87085841  0.55722205  0.90230873  1
  H  H131  1  0.87607534  0.88760547  0.88992888  1
  H  H132  1  0.37089058  0.11103942  0.10126310  1
  H  H133  1  0.37727232  0.44628839  0.11326230  1
  H  H134  1  0.37927002  0.78411141  0.12817371  1
  H  H135  1  0.87378707  0.11299422  0.10846736  1
  H  H136  1  0.87677536  0.44611103  0.11537798  1
  H  H137  1  0.87200243  0.77816333  0.09942051  1
  H  H138  1  0.12622076  0.22353699  0.60283418  1
  H  H139  1  0.12927414  0.55454248  0.60940661  1
  H  H140  1  0.12571606  0.88428678  0.61715509  1
  H  H141  1  0.63010764  0.22348350  0.60320904  1
  H  H142  1  0.63213706  0.55526867  0.60182930  1
  H  H143  1  0.63027851  0.89204085  0.59893848  1
  H  H144  1  0.05123358  0.91908065  0.50486515  1
  H  H145  1  0.84537295  0.25058771  0.50572792  1
  H  H146  1  0.92079173  0.58539355  0.00173622  1
  H  H147  1  0.42290963  0.91932586  0.00461685  1
  H  H148  1  0.19662148  0.58187320  1.00476363  1
  H  H149  1  0.16563049  0.91124283  0.50380403  1
  H  H150  1  0.58838962  0.25073813  0.00393544  1
  H  H151  1  0.33564442  0.41848358  0.00241425  1
  H  H152  1  0.16682514  0.08676156  0.49930264  1
  H  H153  1  0.79086030  0.24961838  1.00474237  1
  H  H154  1  0.20478259  0.75247534  -0.00859272  1
  H  H155  1  0.40465714  0.74914733  0.99554490  1
  H  H156  1  0.69234084  0.08320550  0.50257138  1
  H  H157  1  0.07365503  0.41237583  0.49784687  1
  H  H158  1  0.70209534  0.75340438  0.50395844  1
  H  H159  1  0.91994382  0.41567891  0.99785355  1
  H  H160  1  0.42119635  0.41600842  0.50181934  1
  H  H161  1  0.58030214  0.91949729  0.49681062  1
  H  H162  1  0.67180322  0.08361090  0.00249176  1
  H  H163  1  0.32444960  0.90635575  0.49796728  1
  H  H164  1  0.15515451  0.24724101  0.99422931  1
  H  H165  1  0.92527242  0.75414163  0.99267941  1
  H  H166  1  0.69414088  0.57967170  0.49326724  1
  H  H167  1  0.07500292  0.58510706  0.00499117  1
  H  H168  1  0.58530714  0.25371664  0.49204792  1
  H  H169  1  0.96077929  0.24725238  -0.00529010  1
  H  H170  1  0.82704304  0.41479511  0.49904702  1
  H  H171  1  0.79702711  0.57836562  1.00370769  1
  H  H172  1  0.55869004  0.58392680  0.50454811  1
  H  H173  1  0.43119745  0.93933075  0.49903941  1
  H  H174  1  0.42668876  0.24933336  0.50210901  1
  H  H175  1  0.17163132  0.41776525  0.00192453  1
  H  H176  1  0.16006950  0.08342075  0.00573677  1
  H  H177  1  0.39631463  0.58657200  0.49138169  1
  H  H178  1  0.30124977  0.74848051  0.50337215  1
  H  H179  1  0.06615070  0.58547020  0.49864310  1
  H  H180  1  0.07891673  0.74644795  0.99897308  1
  H  H181  1  0.57577994  0.58203986  0.00254471  1
  H  H182  1  0.80040971  0.75473598  -0.00627259  1
  H  H183  1  0.70115996  0.91473674  0.49704146  1
  H  H184  1  0.67012862  0.91444582  0.99988003  1
  H  H185  1  0.55247299  0.08528805  0.49922314  1
  H  H186  1  0.08594486  0.91993730  0.00701535  1
  H  H187  1  0.42135585  0.74277308  0.50049796  1
  H  H188  1  0.57197746  0.75026335  1.00107253  1
  H  H189  1  0.84910461  0.57969737  0.51178004  1
  H  H190  1  0.58742334  0.41489541  0.50455027  1
  H  H191  1  0.58102389  0.74354241  0.50207797  1
  Pb  Pb192  1  0.24906114  0.04682246  0.75354228  1
  Pb  Pb193  1  0.25043295  0.37856415  0.75069870  1
  Pb  Pb194  1  0.25359361  0.71411036  0.74496711  1
  Pb  Pb195  1  0.75399803  0.04833411  0.74917723  1
  Pb  Pb196  1  0.74949323  0.37984512  0.75135957  1
  Pb  Pb197  1  0.75095499  0.71316559  0.74883627  1
  Pb  Pb198  1  0.25341610  0.28521115  0.25239907  1
  Pb  Pb199  1  0.24820247  0.62187504  0.24681216  1
  Pb  Pb200  1  0.24793788  0.95367090  0.25357659  1
  Pb  Pb201  1  0.74829427  0.28718447  0.24398203  1
  Pb  Pb202  1  0.74962771  0.61771917  0.25003832  1
  Pb  Pb203  1  0.75094749  0.95474005  0.24992602  1
  Pb  Pb204  1  -0.00068597  0.21403115  0.75514898  1
  Pb  Pb205  1  0.00391755  0.54759017  0.75480554  1
  Pb  Pb206  1  0.00161880  0.87918501  0.75299405  1
  Pb  Pb207  1  0.49929153  0.21210875  0.74884981  1
  Pb  Pb208  1  0.50064919  0.54490772  0.74609372  1
  Pb  Pb209  1  0.50318842  0.88306092  0.74721977  1
  Pb  Pb210  1  0.00012883  0.12216759  0.24739782  1
  Pb  Pb211  1  0.00236224  0.45041059  0.24979234  1
  Pb  Pb212  1  -0.00188741  0.78787506  0.23912650  1
  Pb  Pb213  1  0.50106748  0.11898900  0.25371923  1
  Pb  Pb214  1  0.49843166  0.45356915  0.24963910  1
  Pb  Pb215  1  0.50081442  0.78728105  0.25901988  1
  C  C216  1  -0.00323147  0.04642651  0.63444895  1
  C  C217  1  0.00063776  0.37849419  0.63334136  1
  C  C218  1  -0.00023959  0.71310716  0.63174254  1
  C  C219  1  0.49892837  0.04810255  0.63299506  1
  C  C220  1  0.49917182  0.37940069  0.63464632  1
  C  C221  1  0.49924972  0.71366641  0.63578928  1
  C  C222  1  0.00413680  0.28603720  0.13144413  1
  C  C223  1  0.00113966  0.61942762  0.13458697  1
  C  C224  1  0.00026542  0.95373642  0.13135860  1
  C  C225  1  0.50408638  0.28678593  0.12952243  1
  C  C226  1  0.49989411  0.62024444  0.13398683  1
  C  C227  1  0.49602051  0.95438822  0.13304338  1
  C  C228  1  0.00032879  0.04644663  0.86963431  1
  C  C229  1  -0.00266688  0.38049687  0.86534182  1
  C  C230  1  -0.00066654  0.71491848  0.86526356  1
  C  C231  1  0.49963866  0.04563555  0.86660955  1
  C  C232  1  0.50084374  0.37939589  0.86813719  1
  C  C233  1  0.49880195  0.71305728  0.86678870  1
  C  C234  1  -0.00135249  0.28619846  0.37192384  1
  C  C235  1  -0.00098476  0.62099098  0.36843784  1
  C  C236  1  -0.00030769  0.95390514  0.36505941  1
  C  C237  1  0.49799536  0.28627155  0.36725193  1
  C  C238  1  0.49741982  0.61941742  0.36583984  1
  C  C239  1  0.49685154  0.95461627  0.36545255  1
  C  C240  1  0.24804244  0.21303365  0.63219627  1
  C  C241  1  0.25361056  0.54596730  0.63236745  1
  C  C242  1  0.25161383  0.87970881  0.63541915  1
  C  C243  1  0.75288220  0.21406615  0.63033104  1
  C  C244  1  0.75344205  0.54687034  0.63307997  1
  C  C245  1  0.74960131  0.87947671  0.63257738  1
  C  C246  1  0.24851816  0.11965366  0.12927459  1
  C  C247  1  0.25229052  0.45298085  0.13412405  1
  C  C248  1  0.25044854  0.78717510  0.13386903  1
  C  C249  1  0.74945190  0.12003857  0.13376323  1
  C  C250  1  0.75043589  0.45296464  0.13253856  1
  C  C251  1  0.75300927  0.78721178  0.13522654  1
  C  C252  1  0.24585781  0.21348848  0.86937872  1
  C  C253  1  0.24900664  0.54628914  0.86531446  1
  C  C254  1  0.24952063  0.87986328  0.86792956  1
  C  C255  1  0.74756496  0.21305287  0.86769555  1
  C  C256  1  0.75285043  0.54504349  0.86674779  1
  C  C257  1  0.75098235  0.88065614  0.86680117  1
  C  C258  1  0.25240045  0.12075358  0.36799868  1
  C  C259  1  0.24947995  0.45389473  0.36514103  1
  C  C260  1  0.25078530  0.78638949  0.36775424  1
  C  C261  1  0.75303682  0.12059925  0.36589318  1
  C  C262  1  0.75046898  0.45317695  0.36550237  1
  C  C263  1  0.74870211  0.78723864  0.36750106  1
  C  C264  1  0.20859589  0.09595078  0.46168850  1
  C  C265  1  0.04112589  0.73772313  0.95892690  1
  C  C266  1  0.78669797  0.42636641  0.46051932  1
  C  C267  1  0.23445953  0.76243344  0.03501501  1
  C  C268  1  0.54156167  0.92785949  0.45710298  1
  C  C269  1  0.29436072  0.42821403  0.04027093  1
  C  C270  1  0.46354429  0.25983035  0.46191030  1
  C  C271  1  0.22685628  0.57209534  0.96121403  1
  C  C272  1  0.72580978  0.09448229  0.46080274  1
  C  C273  1  0.28825724  0.90171997  0.53961394  1
  C  C274  1  0.54159318  0.73584080  0.54145750  1
  C  C275  1  0.93547888  0.26361081  0.45788250  1
  C  C276  1  0.19352394  0.75971798  0.45662597  1
  C  C277  1  0.02152980  0.92818834  0.46108681  1
  C  C278  1  0.44327923  0.59579652  0.45631345  1
  C  C279  1  0.46807169  0.25714477  0.03532991  1
  C  C280  1  0.72600351  0.57117769  0.53647516  1
  C  C281  1  0.96016523  0.40601598  0.95858603  1
  C  C282  1  0.31445601  0.76485652  0.04718764  1
  C  C283  1  0.45961542  0.73560798  0.54070348  1
  C  C284  1  0.79573567  0.42447697  0.04216421  1
  C  C285  1  0.52822354  0.41005740  0.96186260  1
  C  C286  1  0.54346365  0.40490706  0.54153852  1
  C  C287  1  0.79181755  0.90447733  0.96076599  1
  C  C288  1  0.77160908  0.76313391  0.03824545  1
  C  C289  1  0.52499240  0.59423927  0.46268949  1
  C  C290  1  0.95872585  0.59443224  0.04166062  1
  C  C291  1  0.53310971  0.73964540  0.96198187  1
  C  C292  1  0.21000880  0.90791091  0.96036894  1
  C  C293  1  0.45105315  0.73880914  0.95896612  1
  C  C294  1  0.97770443  0.07677883  0.96447337  1
  C  C295  1  0.20623843  0.90216278  0.54207437  1
  C  C296  1  0.03557717  0.40317502  0.53755280  1
  C  C297  1  0.01458439  0.26030591  0.46833860  1
  C  C298  1  0.06718403  0.26038460  0.04514865  1
  C  C299  1  0.21213972  0.42794820  0.03994178  1
  C  C300  1  0.70509740  0.42770810  0.45784388  1
  C  C301  1  0.71122133  0.09419683  0.04113717  1
  C  C302  1  0.46123207  0.40529434  0.54003749  1
  C  C303  1  0.71026242  0.90469151  0.96153244  1
  C  C304  1  0.29016257  0.09472513  0.46219783  1
  C  C305  1  0.22018306  0.24121713  0.53763025  1
  C  C306  1  0.95415478  0.40230201  0.54107908  1
  C  C307  1  0.96486572  0.74258503  0.53921303  1
  C  C308  1  0.53679874  0.59315565  0.04129345  1
  C  C309  1  0.29119260  0.57484662  0.53971376  1
  C  C310  1  0.28172566  0.08971288  0.03455491  1
  C  C311  1  0.71930413  0.24291476  0.53512069  1
  N  N312  1  0.52314675  0.07123845  0.53830905  1
  N  N313  1  0.68697335  0.23848219  0.95457542  1
  N  N314  1  0.69307503  0.76350746  0.04660623  1
  N  N315  1  0.21340108  0.57512531  0.53853407  1
  N  N316  1  0.96145768  0.73663399  0.95898629  1
  N  N317  1  0.27194865  0.75859702  0.46291038  1
  N  N318  1  0.21252063  0.42691180  0.45901788  1
  N  N319  1  0.04460247  0.92752255  0.04193359  1
  N  N320  1  0.04233136  0.74178366  0.53854381  1
  N  N321  1  0.95268077  0.59406693  0.46016984  1
  N  N322  1  0.77110098  0.57434425  0.96069173  1
  N  N323  1  0.54312460  0.26145706  0.45814151  1
  N  N324  1  0.80505811  0.57039791  0.54387532  1
  N  N325  1  0.28924477  0.42720429  0.45837472  1
  N  N326  1  0.45086669  0.40804235  0.95913815  1
  N  N327  1  0.29760316  0.23958192  0.54027797  1
  N  N328  1  0.79815320  0.24108327  0.53989840  1
  N  N329  1  0.46837370  0.07418510  0.96116366  1
  N  N330  1  0.53838834  0.92808784  0.04002135  1
  N  N331  1  0.28794807  0.90788406  0.96249817  1
  N  N332  1  0.27676729  0.23995620  0.96474308  1
  N  N333  1  0.72866791  0.75974831  0.46150369  1
  N  N334  1  0.30550735  0.57130499  0.95477261  1
  N  N335  1  0.72868901  0.90620037  0.53846684  1
  N  N336  1  0.79057048  0.09404644  0.03961636  1
  N  N337  1  0.03977335  0.40604845  0.95925859  1
  N  N338  1  0.19889867  0.23843702  0.95878396  1
  N  N339  1  0.98914864  0.25838182  0.03554355  1
  N  N340  1  0.03109731  0.59325401  0.46048111  1
  N  N341  1  0.80625792  0.90342905  0.54363786  1
  N  N342  1  0.54706304  0.25897716  0.03865436  1
  N  N343  1  0.45997921  0.92747547  0.04166889  1
  N  N344  1  0.44545956  0.06988722  0.54243526  1
  N  N345  1  0.76443858  0.24103681  0.96220518  1
  N  N346  1  0.71826084  0.42380679  0.03710006  1
  N  N347  1  0.80484557  0.09653685  0.45746283  1
  N  N348  1  0.96664480  0.92697009  0.03641140  1
  N  N349  1  0.05490362  0.07463661  0.95903515  1
  N  N350  1  0.45753636  0.59412589  0.04019797  1
  N  N351  1  0.20275384  0.09115940  0.03958284  1
  N  N352  1  0.54481769  0.07299393  0.95820308  1
  N  N353  1  0.94295581  0.92817529  0.45441069  1
  N  N354  1  0.03825302  0.59457806  0.04159217  1
  N  N355  1  0.80620701  0.76173903  0.45562631  1
  N  N356  1  0.69350121  0.57084239  0.95394447  1
  N  N357  1  0.96677517  0.07506566  0.53948073  1
  N  N358  1  0.04292273  0.07404212  0.54316369  1
  N  N359  1  0.46143598  0.92836967  0.45926081  1
  N  N360  1  0.06290186  0.05638448  0.60192817  1
  N  N361  1  0.06343208  0.38840771  0.59624844  1
  N  N362  1  0.06421087  0.72311292  0.59759906  1
  N  N363  1  0.55767188  0.05934196  0.59331217  1
  N  N364  1  0.56530193  0.38897599  0.60075674  1
  N  N365  1  0.56494592  0.72250564  0.60099020  1
  N  N366  1  0.44133414  0.27427318  0.09131196  1
  N  N367  1  0.43631936  0.61081249  0.09822485  1
  N  N368  1  0.43277994  0.94414348  0.09756731  1
  N  N369  1  0.94937244  0.27558801  0.08856151  1
  N  N370  1  0.93526543  0.60977424  0.09939453  1
  N  N371  1  0.93946034  0.94284555  0.09265055  1
  N  N372  1  0.43906552  0.05735649  0.90459491  1
  N  N373  1  0.43365494  0.38858082  0.89925479  1
  N  N374  1  0.43162427  0.72238257  0.89945081  1
  N  N375  1  0.94175953  0.05960790  0.91096238  1
  N  N376  1  0.93295244  0.39072997  0.90111032  1
  N  N377  1  0.93583426  0.72535928  0.90035515  1
  N  N378  1  0.05364295  0.27408833  0.41615085  1
  N  N379  1  0.06066471  0.61029253  0.40528647  1
  N  N380  1  0.05826369  0.94340493  0.40649923  1
  N  N381  1  0.56408868  0.27819983  0.40009248  1
  N  N382  1  0.55745195  0.60889748  0.40597046  1
  N  N383  1  0.56329968  0.94190391  0.39888783  1
  N  N384  1  0.31502652  0.22155076  0.60061025  1
  N  N385  1  0.31810660  0.55753198  0.59653332  1
  N  N386  1  0.31535090  0.88810748  0.59815618  1
  N  N387  1  0.81918535  0.22321121  0.59824702  1
  N  N388  1  0.82174990  0.55570601  0.60332479  1
  N  N389  1  0.81880520  0.88805611  0.60279363  1
  N  N390  1  0.18177242  0.10950672  0.09803698  1
  N  N391  1  0.18746367  0.44319762  0.09866117  1
  N  N392  1  0.19514088  0.77657210  0.09056372  1
  N  N393  1  0.68437080  0.11004137  0.09862784  1
  N  N394  1  0.68990594  0.44186942  0.09469001  1
  N  N395  1  0.68348628  0.77837751  0.10692178  1
  N  N396  1  0.17890104  0.22214634  0.90100886  1
  N  N397  1  0.19022132  0.55726728  0.90647583  1
  N  N398  1  0.18451825  0.89116124  0.90317190  1
  N  N399  1  0.67725202  0.22255936  0.89522761  1
  N  N400  1  0.68300020  0.55504852  0.89486017  1
  N  N401  1  0.68598314  0.88966217  0.90183381  1
  N  N402  1  0.31647535  0.10953043  0.40560730  1
  N  N403  1  0.31331998  0.44412639  0.40044294  1
  N  N404  1  0.30861409  0.77593280  0.40846512  1
  N  N405  1  0.81997232  0.11259760  0.39818655  1
  N  N406  1  0.81374053  0.44242817  0.40175662  1
  N  N407  1  0.81813601  0.77744491  0.39651715  1
  N  N408  1  0.43532452  0.27492303  0.40523601  1
  N  N409  1  0.42788345  0.61132857  0.39583749  1
  N  N410  1  0.43450122  0.94889186  0.40297946  1
  N  N411  1  0.92580377  0.27952284  0.39814736  1
  N  N412  1  0.93369559  0.61041373  0.40219877  1
  N  N413  1  0.93100930  0.94432437  0.39469832  1
  N  N414  1  0.06901631  0.05566241  0.89855663  1
  N  N415  1  0.06087182  0.39033558  0.90086440  1
  N  N416  1  0.06495711  0.72324981  0.90111424  1
  N  N417  1  0.56553709  0.05532168  0.89956301  1
  N  N418  1  0.56141542  0.39269922  0.90749923  1
  N  N419  1  0.56141709  0.72377120  0.90423085  1
  N  N420  1  0.07671947  0.27706796  0.10466082  1
  N  N421  1  0.06445407  0.61023437  0.09880759  1
  N  N422  1  0.06649048  0.94393525  0.09913237  1
  N  N423  1  0.56991633  0.27778616  0.09671985  1
  N  N424  1  0.56440890  0.60900913  0.09856246  1
  N  N425  1  0.55994635  0.94402769  0.09747982  1
  N  N426  1  0.43083397  0.05555146  0.60144612  1
  N  N427  1  0.43527103  0.38945183  0.59832816  1
  N  N428  1  0.43461342  0.72222786  0.59975604  1
  N  N429  1  0.93658290  0.05786002  0.59594382  1
  N  N430  1  0.93337436  0.38756474  0.59908758  1
  N  N431  1  0.93593443  0.72516171  0.59513319  1
  N  N432  1  0.18642440  0.11210956  0.40185659  1
  N  N433  1  0.18670591  0.44322527  0.40129567  1
  N  N434  1  0.18021971  0.77678814  0.39785989  1
  N  N435  1  0.69232164  0.10906815  0.40500856  1
  N  N436  1  0.68361041  0.44374933  0.40036165  1
  N  N437  1  0.69174388  0.77701680  0.40887295  1
  N  N438  1  0.30568912  0.22443527  0.90900214  1
  N  N439  1  0.31757622  0.55524420  0.89520761  1
  N  N440  1  0.31249030  0.88992863  0.90364577  1
  N  N441  1  0.80274920  0.22348798  0.91037522  1
  N  N442  1  0.80895988  0.55558518  0.90881670  1
  N  N443  1  0.81610703  0.89024273  0.90357298  1
  N  N444  1  0.31031501  0.10736027  0.08987746  1
  N  N445  1  0.31770930  0.44360725  0.09905433  1
  N  N446  1  0.32349214  0.77965060  0.10691846  1
  N  N447  1  0.81255741  0.10986739  0.09773781  1
  N  N448  1  0.81793220  0.44189802  0.09993025  1
  N  N449  1  0.81001429  0.77700225  0.09245446  1
  N  N450  1  0.18728508  0.22521687  0.59261761  1
  N  N451  1  0.19007253  0.55656457  0.59756573  1
  N  N452  1  0.18485805  0.88849048  0.60179614  1
  N  N453  1  0.69091289  0.22605546  0.59138435  1
  N  N454  1  0.69359378  0.55686010  0.59200730  1
  N  N455  1  0.69219337  0.89003867  0.59166959  1
  Cl  Cl456  1  0.24674873  0.05402376  0.62105810  1
  Cl  Cl457  1  0.25046432  0.38227802  0.62303225  1
  Cl  Cl458  1  0.25218576  0.72240801  0.60805675  1
  Cl  Cl459  1  0.74283450  0.05595659  0.61186186  1
  Cl  Cl460  1  0.75013525  0.38298525  0.61836986  1
  Cl  Cl461  1  0.74793181  0.72178761  0.61081660  1
  Cl  Cl462  1  0.25740167  0.27699164  0.11963146  1
  Cl  Cl463  1  0.24718170  0.61262877  0.11108075  1
  Cl  Cl464  1  0.24936387  0.94920155  0.12008882  1
  Cl  Cl465  1  0.76281741  0.27500427  0.10319514  1
  Cl  Cl466  1  0.75298233  0.60800044  0.11187872  1
  Cl  Cl467  1  0.74926965  0.94616689  0.11701290  1
  Cl  Cl468  1  0.25353444  0.05479808  0.88905101  1
  Cl  Cl469  1  0.24671275  0.38653658  0.88607900  1
  Cl  Cl470  1  0.24576324  0.72018781  0.87716611  1
  Cl  Cl471  1  0.75160033  0.05373801  0.88252724  1
  Cl  Cl472  1  0.74860292  0.38415443  0.88216268  1
  Cl  Cl473  1  0.75283047  0.72099940  0.88409794  1
  Cl  Cl474  1  0.24659695  0.27725373  0.38354265  1
  Cl  Cl475  1  0.24301186  0.61982218  0.37850955  1
  Cl  Cl476  1  0.24894490  0.94287480  0.38898049  1
  Cl  Cl477  1  0.74377639  0.28024642  0.37706203  1
  Cl  Cl478  1  0.74605692  0.61035054  0.38790279  1
  Cl  Cl479  1  0.74268560  0.94366829  0.38786898  1
  Cl  Cl480  1  0.00207981  0.22176018  0.62369690  1
  Cl  Cl481  1  0.00541909  0.55492069  0.61904666  1
  Cl  Cl482  1  0.00214700  0.88396884  0.62014910  1
  Cl  Cl483  1  0.50513524  0.22143282  0.61220579  1
  Cl  Cl484  1  0.50652908  0.55547841  0.61297892  1
  Cl  Cl485  1  0.50580109  0.89560933  0.60591213  1
  Cl  Cl486  1  -0.00197292  0.11634356  0.11221414  1
  Cl  Cl487  1  0.00031157  0.44854765  0.11730829  1
  Cl  Cl488  1  -0.00114508  0.77538951  0.10139909  1
  Cl  Cl489  1  0.49668126  0.11814634  0.12276886  1
  Cl  Cl490  1  0.50492433  0.44535131  0.11921783  1
  Cl  Cl491  1  0.50307090  0.78296211  0.12706729  1
  Cl  Cl492  1  -0.01165062  0.22403052  0.89752594  1
  Cl  Cl493  1  -0.00114627  0.56047258  0.89700297  1
  Cl  Cl494  1  0.00218233  0.88532685  0.88654614  1
  Cl  Cl495  1  0.49269861  0.22424977  0.88380520  1
  Cl  Cl496  1  0.50161365  0.55079001  0.87822174  1
  Cl  Cl497  1  0.49637569  0.88890165  0.88015437  1
  Cl  Cl498  1  0.00327270  0.11877005  0.37503640  1
  Cl  Cl499  1  0.00236763  0.44672117  0.38302898  1
  Cl  Cl500  1  -0.00030014  0.78266212  0.36973154  1
  Cl  Cl501  1  0.50749752  0.11102386  0.39287553  1
  Cl  Cl502  1  0.49820685  0.44424594  0.38415748  1
  Cl  Cl503  1  0.50156145  0.77723249  0.39491361  1
  Cl  Cl504  1  0.36190500  0.14550314  0.74725691  1
  Cl  Cl505  1  0.36310029  0.47789535  0.75224971  1
  Cl  Cl506  1  0.35836012  0.80929327  0.74742122  1
  Cl  Cl507  1  0.85930564  0.14481346  0.74910177  1
  Cl  Cl508  1  0.86185191  0.47781896  0.74673907  1
  Cl  Cl509  1  0.86305522  0.81170455  0.75073182  1
  Cl  Cl510  1  0.13753116  0.18870013  0.24408549  1
  Cl  Cl511  1  0.13627875  0.52197403  0.24638938  1
  Cl  Cl512  1  0.13940400  0.85343513  0.24990524  1
  Cl  Cl513  1  0.63890056  0.19014526  0.24885794  1
  Cl  Cl514  1  0.63897024  0.52275101  0.25327630  1
  Cl  Cl515  1  0.63666362  0.85534509  0.24947454  1
  Cl  Cl516  1  0.13706657  0.14421970  0.75677022  1
  Cl  Cl517  1  0.13828365  0.47885575  0.75038752  1
  Cl  Cl518  1  0.13618680  0.81026430  0.74968073  1
  Cl  Cl519  1  0.63703984  0.14610016  0.75153180  1
  Cl  Cl520  1  0.64026622  0.47938678  0.75035260  1
  Cl  Cl521  1  0.63828490  0.81202520  0.74852144  1
  Cl  Cl522  1  0.36075794  0.18812550  0.25252208  1
  Cl  Cl523  1  0.36324172  0.52305009  0.25082320  1
  Cl  Cl524  1  0.36406734  0.85546867  0.24849360  1
  Cl  Cl525  1  0.86173259  0.18813604  0.25027462  1
  Cl  Cl526  1  0.86373275  0.52334518  0.24734755  1
  Cl  Cl527  1  0.85987078  0.85431923  0.25304928  1
  Cl  Cl528  1  0.11106052  0.31014621  0.75722858  1
  Cl  Cl529  1  0.10794310  0.64332327  0.75023573  1
  Cl  Cl530  1  0.11411119  0.97771975  0.75243529  1
  Cl  Cl531  1  0.61282338  0.31182293  0.74954219  1
  Cl  Cl532  1  0.61357156  0.64506928  0.74984443  1
  Cl  Cl533  1  0.60799342  0.97653960  0.74931497  1
  Cl  Cl534  1  0.38770208  0.02256828  0.25301702  1
  Cl  Cl535  1  0.39000939  0.35423225  0.24868064  1
  Cl  Cl536  1  0.38637494  0.68888964  0.25080473  1
  Cl  Cl537  1  0.88783584  0.02150365  0.25099111  1
  Cl  Cl538  1  0.88900028  0.35510406  0.25267094  1
  Cl  Cl539  1  0.88837272  0.68798830  0.24979833  1
  Cl  Cl540  1  0.38702827  0.31214795  0.75143671  1
  Cl  Cl541  1  0.38777344  0.64487284  0.75057369  1
  Cl  Cl542  1  0.38739088  0.97672699  0.74348564  1
  Cl  Cl543  1  0.88767177  0.31074888  0.75023747  1
  Cl  Cl544  1  0.88611046  0.64435395  0.75049566  1
  Cl  Cl545  1  0.88764989  0.97808575  0.75131710  1
  Cl  Cl546  1  0.11099879  0.02088193  0.24518379  1
  Cl  Cl547  1  0.11227606  0.35594364  0.24599014  1
  Cl  Cl548  1  0.11134928  0.68873551  0.24677036  1
  Cl  Cl549  1  0.60920666  0.02174741  0.25073014  1
  Cl  Cl550  1  0.61315103  0.35502028  0.25278565  1
  Cl  Cl551  1  0.61210729  0.68746536  0.25056511  1
