# generated using pymatgen
data_H8PbC4(N3Cl2)2
_symmetry_space_group_name_H-M   'P 1'
_cell_length_a   16.62253907
_cell_length_b   22.51080941
_cell_length_c   21.59102020
_cell_angle_alpha   89.99940262
_cell_angle_beta   89.99661079
_cell_angle_gamma   89.99500902
_symmetry_Int_Tables_number   1
_chemical_formula_structural   H8PbC4(N3Cl2)2
_chemical_formula_sum   'H192 Pb24 C96 N144 Cl96'
_cell_volume   8079.07490404
_cell_formula_units_Z   24
loop_
 _symmetry_equiv_pos_site_id
 _symmetry_equiv_pos_as_xyz
  1  'x, y, z'
loop_
 _atom_site_type_symbol
 _atom_site_label
 _atom_site_symmetry_multiplicity
 _atom_site_fract_x
 _atom_site_fract_y
 _atom_site_fract_z
 _atom_site_occupancy
  H  H0  1  -0.01030267  0.02900487  0.67658656  1
  H  H1  1  -0.00180177  0.36422235  0.67898192  1
  H  H2  1  0.01401315  0.69619817  0.67429120  1
  H  H3  1  0.51244820  0.03303357  0.68115797  1
  H  H4  1  0.50560585  0.36352654  0.68047186  1
  H  H5  1  0.49256993  0.69980931  0.67914835  1
  H  H6  1  0.01396299  0.30207167  0.17491455  1
  H  H7  1  0.00396045  0.63709589  0.17902376  1
  H  H8  1  -0.00564478  0.97217065  0.17776776  1
  H  H9  1  0.48704360  0.30240787  0.17685244  1
  H  H10  1  0.48782298  0.63360633  0.17374162  1
  H  H11  1  0.49842486  0.97123859  0.17864472  1
  H  H12  1  0.00741824  0.03034413  0.82027616  1
  H  H13  1  0.01573777  0.36084459  0.82070646  1
  H  H14  1  0.00169443  0.69892685  0.82174584  1
  H  H15  1  0.49459475  0.02970368  0.82523415  1
  H  H16  1  0.49087283  0.36433459  0.82037880  1
  H  H17  1  0.49372503  0.69443521  0.82086345  1
  H  H18  1  0.00189849  0.30362735  0.32222244  1
  H  H19  1  -0.00948899  0.63431175  0.32315181  1
  H  H20  1  0.00546986  0.97116055  0.32384552  1
  H  H21  1  0.50575457  0.30101760  0.32147186  1
  H  H22  1  0.50144821  0.64012248  0.31763156  1
  H  H23  1  0.49134231  0.96670659  0.32103371  1
  H  H24  1  0.25271348  0.19438114  0.67754362  1
  H  H25  1  0.26614372  0.53026364  0.67711276  1
  H  H26  1  0.25230145  0.86357714  0.68169603  1
  H  H27  1  0.74425009  0.19929668  0.67993106  1
  H  H28  1  0.73491336  0.53176400  0.67848561  1
  H  H29  1  0.75400100  0.86166142  0.67697023  1
  H  H30  1  0.25302602  0.13834500  0.17896546  1
  H  H31  1  0.25338701  0.47404366  0.18000105  1
  H  H32  1  0.26781412  0.80072436  0.18041258  1
  H  H33  1  0.76047103  0.13564499  0.17761671  1
  H  H34  1  0.75140153  0.47167818  0.17953351  1
  H  H35  1  0.73464937  0.80185555  0.17522260  1
  H  H36  1  0.24878125  0.19612492  0.82316415  1
  H  H37  1  0.25357136  0.53142342  0.82206264  1
  H  H38  1  0.25261424  0.86357637  0.82038654  1
  H  H39  1  0.74995020  0.19763557  0.82304745  1
  H  H40  1  0.75840982  0.52867187  0.81944292  1
  H  H41  1  0.75366171  0.86515998  0.81913897  1
  H  H42  1  0.25421661  0.13524771  0.32206167  1
  H  H43  1  0.25140309  0.46954411  0.32236673  1
  H  H44  1  0.25672461  0.80436510  0.31922847  1
  H  H45  1  0.75028468  0.13773996  0.31823641  1
  H  H46  1  0.74447092  0.46893163  0.32091862  1
  H  H47  1  0.74158119  0.80280145  0.32627906  1
  H  H48  1  0.12629358  0.05305771  0.62121621  1
  H  H49  1  0.11329698  0.39151129  0.60162913  1
  H  H50  1  0.12049013  0.72589382  0.59151789  1
  H  H51  1  0.62113370  0.05775307  0.59759805  1
  H  H52  1  0.61255596  0.38859244  0.59674792  1
  H  H53  1  0.62641040  0.71931859  0.61837653  1
  H  H54  1  0.38316482  0.27430975  0.09073144  1
  H  H55  1  0.38429909  0.60762749  0.08911118  1
  H  H56  1  0.38270654  0.94386074  0.10100435  1
  H  H57  1  0.87292668  0.28234268  0.12354229  1
  H  H58  1  0.89058463  0.60947786  0.09981538  1
  H  H59  1  0.88618408  0.94230368  0.09562616  1
  H  H60  1  0.38442736  0.05741682  0.90541485  1
  H  H61  1  0.37951047  0.38736262  0.89950124  1
  H  H62  1  0.37079190  0.71986563  0.89147228  1
  H  H63  1  0.88023083  0.05583216  0.88754774  1
  H  H64  1  0.87529817  0.38100681  0.87394816  1
  H  H65  1  0.86994855  0.71806602  0.88515338  1
  H  H66  1  0.12505324  0.27703556  0.39344500  1
  H  H67  1  0.12301867  0.61574191  0.38284010  1
  H  H68  1  0.13162344  0.94771733  0.39321091  1
  H  H69  1  0.61849652  0.27778520  0.40247917  1
  H  H70  1  0.62458773  0.61377417  0.38988245  1
  H  H71  1  0.63134076  0.94850153  0.37389912  1
  H  H72  1  0.37923909  0.21841370  0.61008041  1
  H  H73  1  0.36765362  0.56209795  0.59128350  1
  H  H74  1  0.36796211  0.88856756  0.60273574  1
  H  H75  1  0.87829241  0.21927483  0.61888819  1
  H  H76  1  0.87525113  0.55078175  0.62331484  1
  H  H77  1  0.86711585  0.89013177  0.59891507  1
  H  H78  1  0.12336385  0.11513867  0.11304010  1
  H  H79  1  0.12813605  0.44443160  0.11436039  1
  H  H80  1  0.12520035  0.78701425  0.13091768  1
  H  H81  1  0.62016899  0.11830772  0.12460165  1
  H  H82  1  0.62596969  0.44598628  0.10961676  1
  H  H83  1  0.63643335  0.77155996  0.08699068  1
  H  H84  1  0.12679391  0.22351691  0.89395524  1
  H  H85  1  0.11884714  0.55285142  0.88407643  1
  H  H86  1  0.11918844  0.88530879  0.88274613  1
  H  H87  1  0.62454235  0.21921832  0.89115264  1
  H  H88  1  0.62207335  0.55016148  0.87900760  1
  H  H89  1  0.61707042  0.88361467  0.87542938  1
  H  H90  1  0.37392495  0.10986033  0.39576685  1
  H  H91  1  0.37997730  0.44461699  0.38907859  1
  H  H92  1  0.37271503  0.77920852  0.39576581  1
  H  H93  1  0.87401641  0.11183369  0.38754422  1
  H  H94  1  0.88425171  0.45071349  0.37646004  1
  H  H95  1  0.87452154  0.78095543  0.38849275  1
  H  H96  1  0.37128735  0.27842666  0.38270377  1
  H  H97  1  0.37498306  0.61288171  0.38391039  1
  H  H98  1  0.38511272  0.94409879  0.40432156  1
  H  H99  1  0.87513191  0.28049677  0.38986458  1
  H  H100  1  0.87560152  0.61117343  0.40132765  1
  H  H101  1  0.88239951  0.94303929  0.39243360  1
  H  H102  1  0.12854406  0.05627250  0.89474299  1
  H  H103  1  0.11929455  0.39165982  0.90655500  1
  H  H104  1  0.11846871  0.72226875  0.89640144  1
  H  H105  1  0.63099650  0.05362473  0.88189824  1
  H  H106  1  0.62712148  0.38273628  0.87830210  1
  H  H107  1  0.61885238  0.71793734  0.89021472  1
  H  H108  1  0.11707078  0.27210575  0.09091927  1
  H  H109  1  0.13850030  0.61617297  0.11853966  1
  H  H110  1  0.13231168  0.94932568  0.12435943  1
  H  H111  1  0.62755117  0.28210127  0.12235092  1
  H  H112  1  0.62787204  0.61661698  0.12476658  1
  H  H113  1  0.63114711  0.94738695  0.11657966  1
  H  H114  1  0.37397254  0.05198037  0.62275790  1
  H  H115  1  0.36632431  0.38427553  0.62461507  1
  H  H116  1  0.37790169  0.72205420  0.60237272  1
  H  H117  1  0.87973766  0.05840279  0.59565130  1
  H  H118  1  0.86539132  0.38537696  0.61689437  1
  H  H119  1  0.87497036  0.71643903  0.61972549  1
  H  H120  1  0.12532765  0.11208515  0.38931147  1
  H  H121  1  0.13055877  0.44510654  0.39427832  1
  H  H122  1  0.12398152  0.78153312  0.38374341  1
  H  H123  1  0.62436147  0.11280883  0.38808557  1
  H  H124  1  0.63771766  0.44112394  0.40304921  1
  H  H125  1  0.62654349  0.77314600  0.40128817  1
  H  H126  1  0.37593070  0.21991662  0.89142973  1
  H  H127  1  0.36602668  0.55789707  0.90203860  1
  H  H128  1  0.36750407  0.88852434  0.89941433  1
  H  H129  1  0.87344661  0.22035677  0.89242768  1
  H  H130  1  0.86999425  0.55627198  0.89974676  1
  H  H131  1  0.86454483  0.89078482  0.89882084  1
  H  H132  1  0.37162473  0.11005876  0.10331690  1
  H  H133  1  0.37736840  0.44786439  0.10875548  1
  H  H134  1  0.36896583  0.77546541  0.09471801  1
  H  H135  1  0.86622898  0.11145140  0.09461614  1
  H  H136  1  0.87493300  0.44485861  0.10861603  1
  H  H137  1  0.87855173  0.78580126  0.12627543  1
  H  H138  1  0.13040570  0.22178282  0.60595166  1
  H  H139  1  0.12371421  0.54966154  0.62743220  1
  H  H140  1  0.11990086  0.88700376  0.61633538  1
  H  H141  1  0.63092762  0.22412924  0.59941372  1
  H  H142  1  0.63032975  0.56120046  0.59259450  1
  H  H143  1  0.61906617  0.88316610  0.61661266  1
  H  H144  1  0.70980801  0.58627910  0.49429259  1
  H  H145  1  0.11311428  0.91612997  0.01180983  1
  H  H146  1  0.42852369  0.76739055  0.98555949  1
  H  H147  1  0.63745009  0.91392102  0.98870880  1
  H  H148  1  0.79598504  0.08485287  -0.01118391  1
  H  H149  1  0.82640898  0.08477248  0.49874192  1
  H  H150  1  0.60952858  0.25303291  0.01465752  1
  H  H151  1  0.61486543  0.58328932  1.00996138  1
  H  H152  1  0.06727894  0.75041621  1.00543567  1
  H  H153  1  0.60706260  0.08516911  0.99163341  1
  H  H154  1  0.88872925  0.25045831  0.01508784  1
  H  H155  1  0.41833819  0.58670901  0.49593652  1
  H  H156  1  0.67402241  0.09709233  0.49656699  1
  H  H157  1  0.17204242  0.41073782  0.00468402  1
  H  H158  1  0.07295612  0.08829206  0.99561474  1
  H  H159  1  0.54056694  0.41503044  0.49304325  1
  H  H160  1  0.57050637  0.59727344  0.49697834  1
  H  H161  1  0.95810728  0.92084124  -0.00578988  1
  H  H162  1  0.84010482  0.74838032  0.49459737  1
  H  H163  1  0.33919623  0.41606875  0.49496487  1
  H  H164  1  0.29221254  0.74987775  -0.00980317  1
  H  H165  1  0.86384144  0.42164217  0.48658755  1
  H  H166  1  0.09571689  0.58616304  0.49769945  1
  H  H167  1  0.72169336  0.75663928  -0.01070807  1
  H  H168  1  0.32326856  0.42933082  0.00136571  1
  H  H169  1  0.28674041  0.58548827  0.49247922  1
  H  H170  1  0.31013960  0.08327472  0.00049954  1
  H  H171  1  0.14889166  0.58207630  0.99116163  1
  H  H172  1  0.86891091  0.75081618  0.01714533  1
  H  H173  1  0.30942634  0.75303945  0.50430585  1
  H  H174  1  0.44442217  0.41446612  1.00849634  1
  H  H175  1  0.45516979  0.91530701  0.50964014  1
  H  H176  1  0.95101254  0.08506517  0.49447314  1
  H  H177  1  0.91478670  0.24911227  0.49956580  1
  H  H178  1  0.56553500  0.72532490  0.99765691  1
  H  H179  1  0.03894290  0.41646263  1.00458921  1
  H  H180  1  0.70798011  0.41049899  0.50700119  1
  H  H181  1  0.64436730  0.91387568  0.50814933  1
  H  H182  1  0.79967195  0.91740154  1.00613780  1
  H  H183  1  0.18190908  0.41372678  0.50343832  1
  H  H184  1  0.07460222  0.24995778  0.49809872  1
  H  H185  1  0.54833224  0.08197551  0.49265214  1
  H  H186  1  0.08519583  0.91444740  0.49655039  1
  H  H187  1  0.82447601  0.41300213  0.00135404  1
  H  H188  1  0.40405467  0.25111585  0.48992349  1
  H  H189  1  0.80469323  0.91873016  0.49241115  1
  H  H190  1  0.80254103  0.58522372  1.00440334  1
  H  H191  1  0.43829507  0.75293029  0.49320164  1
  Pb  Pb192  1  0.25073978  0.04565569  0.76080820  1
  Pb  Pb193  1  0.24544563  0.38085343  0.75460634  1
  Pb  Pb194  1  0.24184690  0.71470242  0.74652667  1
  Pb  Pb195  1  0.74427884  0.05015527  0.74047909  1
  Pb  Pb196  1  0.74558042  0.37931321  0.74351345  1
  Pb  Pb197  1  0.74731781  0.71378871  0.75347458  1
  Pb  Pb198  1  0.25008857  0.28658707  0.24262989  1
  Pb  Pb199  1  0.24977113  0.61804901  0.25068608  1
  Pb  Pb200  1  0.25280867  0.95390965  0.25294755  1
  Pb  Pb201  1  0.74876359  0.28644661  0.25529993  1
  Pb  Pb202  1  0.75392353  0.62040527  0.25244621  1
  Pb  Pb203  1  0.75387064  0.95234057  0.24763573  1
  Pb  Pb204  1  0.00014365  0.21312108  0.74880195  1
  Pb  Pb205  1  -0.00491556  0.54578647  0.75550784  1
  Pb  Pb206  1  -0.00678407  0.88398344  0.74969801  1
  Pb  Pb207  1  0.49516693  0.21417619  0.74654334  1
  Pb  Pb208  1  0.49390965  0.54956425  0.74160042  1
  Pb  Pb209  1  0.49501021  0.88011477  0.75003862  1
  Pb  Pb210  1  0.00070136  0.12030140  0.24902910  1
  Pb  Pb211  1  -0.00145193  0.45204651  0.24161995  1
  Pb  Pb212  1  0.00233483  0.78739249  0.25665531  1
  Pb  Pb213  1  0.49913615  0.11888353  0.25082914  1
  Pb  Pb214  1  0.50236965  0.45312190  0.25355996  1
  Pb  Pb215  1  0.49886649  0.78367722  0.24238341  1
  C  C216  1  -0.00179046  0.04530985  0.62989900  1
  C  C217  1  -0.00774674  0.37992116  0.63187806  1
  C  C218  1  0.00283073  0.71253997  0.62802510  1
  C  C219  1  0.50241814  0.04716855  0.63371049  1
  C  C220  1  0.49437367  0.37840694  0.63340762  1
  C  C221  1  0.49885344  0.71385661  0.63138776  1
  C  C222  1  0.00077038  0.28600445  0.12869722  1
  C  C223  1  0.01089333  0.62118019  0.13201707  1
  C  C224  1  0.00415838  0.95623854  0.13082202  1
  C  C225  1  0.49960117  0.28691701  0.13014893  1
  C  C226  1  0.50100090  0.61917381  0.12700964  1
  C  C227  1  0.50406246  0.95442163  0.13195176  1
  C  C228  1  0.00582241  0.04716124  0.86735031  1
  C  C229  1  0.00385427  0.37662280  0.86728958  1
  C  C230  1  -0.00301450  0.71294640  0.86964946  1
  C  C231  1  0.50399226  0.04595865  0.87191464  1
  C  C232  1  0.49901273  0.37799516  0.86802561  1
  C  C233  1  0.49458896  0.71008205  0.86850755  1
  C  C234  1  0.00106650  0.28707130  0.36952528  1
  C  C235  1  -0.00286439  0.62044893  0.37089345  1
  C  C236  1  0.00689108  0.95431761  0.37077866  1
  C  C237  1  0.49815409  0.28564406  0.36872485  1
  C  C238  1  0.50097672  0.62348382  0.36492153  1
  C  C239  1  0.50249203  0.95289824  0.36840982  1
  C  C240  1  0.25388361  0.21139464  0.63077313  1
  C  C241  1  0.25301211  0.54578866  0.63061703  1
  C  C242  1  0.24659835  0.87903419  0.63424217  1
  C  C243  1  0.75106874  0.21395220  0.63256752  1
  C  C244  1  0.74633795  0.54679599  0.63147996  1
  C  C245  1  0.74607757  0.87812258  0.62992621  1
  C  C246  1  0.24974257  0.12208947  0.13181330  1
  C  C247  1  0.25360314  0.45685556  0.13295428  1
  C  C248  1  0.25393754  0.78770360  0.13326904  1
  C  C249  1  0.74908977  0.12183063  0.13031309  1
  C  C250  1  0.75076858  0.45487341  0.13245146  1
  C  C251  1  0.75018412  0.78635881  0.12887786  1
  C  C252  1  0.25066632  0.21309870  0.86993079  1
  C  C253  1  0.24570528  0.54708602  0.86919844  1
  C  C254  1  0.24643990  0.87908896  0.86754215  1
  C  C255  1  0.74932518  0.21244281  0.87073246  1
  C  C256  1  0.74989181  0.54502821  0.86629982  1
  C  C257  1  0.74460686  0.87999177  0.86651045  1
  C  C258  1  0.25083503  0.11957823  0.36931821  1
  C  C259  1  0.25456920  0.45314437  0.36972452  1
  C  C260  1  0.25093918  0.78858744  0.36647934  1
  C  C261  1  0.74883558  0.12208331  0.36585170  1
  C  C262  1  0.75628541  0.45438441  0.36813053  1
  C  C263  1  0.74799526  0.78590643  0.37304764  1
  C  C264  1  0.21824381  0.42467151  0.46318020  1
  C  C265  1  0.96802614  0.59443576  0.46680111  1
  C  C266  1  0.27726439  0.76170152  0.46137380  1
  C  C267  1  0.94381410  0.40735671  0.54213449  1
  C  C268  1  0.56588451  0.92866298  0.45465322  1
  C  C269  1  0.70668237  0.23886093  0.96339454  1
  C  C270  1  0.94616228  0.73607920  0.96114640  1
  C  C271  1  0.96619900  0.92093666  0.46262823  1
  C  C272  1  0.19781237  0.90416282  0.95785538  1
  C  C273  1  0.05753733  0.07724750  0.54386925  1
  C  C274  1  0.18534612  0.57379004  0.54707893  1
  C  C275  1  0.78611098  0.42497225  0.04022605  1
  C  C276  1  0.95710897  0.25907439  0.46138685  1
  C  C277  1  0.48482174  0.59052015  0.03014099  1
  C  C278  1  0.68528437  0.09894703  0.04374075  1
  C  C279  1  0.78933411  0.23898491  0.96391424  1
  C  C280  1  0.47575113  0.40432405  0.96555593  1
  C  C281  1  0.80203715  0.23989785  0.54291663  1
  C  C282  1  0.01683993  0.25275054  0.03227021  1
  C  C283  1  0.26514528  0.76169635  0.03442120  1
  C  C284  1  0.77205713  0.90765916  0.53471085  1
  C  C285  1  0.45715915  0.59532623  0.45637108  1
  C  C286  1  0.28297154  0.09033426  0.46256094  1
  C  C287  1  0.55301605  0.73918504  0.54171765  1
  C  C288  1  0.01951145  0.74453931  0.53296220  1
  C  C289  1  0.48561682  0.92653096  0.46654803  1
  C  C290  1  0.55211600  0.92558391  0.04269155  1
  C  C291  1  0.52000509  0.07243953  0.53700627  1
  C  C292  1  0.76792335  0.90686309  0.96342414  1
  C  C293  1  0.04927303  0.59546869  0.46225178  1
  C  C294  1  0.18566092  0.76586036  0.04866631  1
  C  C295  1  0.29502384  0.24029547  0.53909846  1
  C  C296  1  0.47997737  0.07828240  0.96744221  1
  C  C297  1  0.47175372  0.74081010  0.53469160  1
  C  C298  1  0.73675311  0.42438978  0.46400654  1
  C  C299  1  0.02744918  0.73895323  0.96617977  1
  C  C300  1  0.21054829  0.42445516  0.04280891  1
  C  C301  1  0.55627290  0.40270440  0.95620615  1
  C  C302  1  0.21619371  0.24582604  0.96119377  1
  C  C303  1  0.76554035  0.09568924  0.03200657  1
  C  C304  1  0.06457922  0.92600337  0.04580771  1
  C  C305  1  0.77176612  0.57398338  0.96137875  1
  C  C306  1  0.06188267  0.59468269  0.04277059  1
  C  C307  1  0.56490692  0.59283915  0.04115768  1
  C  C308  1  0.78926400  0.09474970  0.45856977  1
  C  C309  1  0.68636439  0.90524298  0.95494452  1
  C  C310  1  0.51125980  0.40487735  0.53699357  1
  C  C311  1  0.71736585  0.75230243  0.46725541  1
  N  N312  1  0.19842701  0.76041662  0.45638379  1
  N  N313  1  0.29784058  0.42445204  0.46000795  1
  N  N314  1  0.45582289  0.73370785  0.96147766  1
  N  N315  1  0.81026494  0.57323576  0.54647152  1
  N  N316  1  0.27325082  0.57487417  0.96482237  1
  N  N317  1  0.19560711  0.57319120  0.95714170  1
  N  N318  1  0.69323570  0.57236198  0.95435525  1
  N  N319  1  0.53691281  0.59520399  0.45729117  1
  N  N320  1  0.44838611  0.25893110  0.45640955  1
  N  N321  1  0.02115120  0.40944293  0.53573497  1
  N  N322  1  0.03688532  0.25757204  0.46142620  1
  N  N323  1  0.03769851  0.07423945  0.95954197  1
  N  N324  1  0.26269209  0.57725697  0.53558131  1
  N  N325  1  0.29019964  0.42676549  0.04126463  1
  N  N326  1  0.04522001  0.92368510  0.46172316  1
  N  N327  1  0.55876432  0.26094671  0.04533981  1
  N  N328  1  0.98566244  0.92391128  0.03687404  1
  N  N329  1  0.72499615  0.24139628  0.53529845  1
  N  N330  1  0.93884964  0.40391493  0.95152550  1
  N  N331  1  0.53671907  0.74010969  0.95855818  1
  N  N332  1  0.27796524  0.09226777  0.03990504  1
  N  N333  1  0.70683964  0.42537515  0.04011445  1
  N  N334  1  0.19976737  0.09449809  0.04155050  1
  N  N335  1  0.44165281  0.07093168  0.54550543  1
  N  N336  1  0.47507769  0.92369596  0.03631099  1
  N  N337  1  0.93953021  0.25764642  0.04433568  1
  N  N338  1  0.73335866  0.57745057  0.53762519  1
  N  N339  1  0.01576344  0.40844875  0.96091343  1
  N  N340  1  0.55799818  0.07600300  0.95857932  1
  N  N341  1  0.52612084  0.25915812  0.46480759  1
  N  N342  1  0.70947559  0.09513722  0.45786859  1
  N  N343  1  0.48194841  0.25823411  0.03327797  1
  N  N344  1  0.81521192  0.42855860  0.45410840  1
  N  N345  1  0.98475194  0.59167424  0.03541750  1
  N  N346  1  0.29364256  0.24480531  0.96160807  1
  N  N347  1  0.74135072  0.75300823  0.03476637  1
  N  N348  1  0.27471907  0.90597166  0.96460210  1
  N  N349  1  0.27489085  0.90704177  0.53891660  1
  N  N350  1  0.79605954  0.75600275  0.46164011  1
  N  N351  1  0.43278213  0.40386547  0.54610273  1
  N  N352  1  0.95939944  0.07479099  0.95879862  1
  N  N353  1  0.21703016  0.24227399  0.53669837  1
  N  N354  1  0.81759585  0.76571731  0.04581683  1
  N  N355  1  0.20560155  0.09109061  0.46188786  1
  N  N356  1  0.69290126  0.90542573  0.54190265  1
  N  N357  1  0.94280704  0.74105852  0.54090789  1
  N  N358  1  0.97923333  0.07773645  0.53614341  1
  N  N359  1  0.19855269  0.90623584  0.54348642  1
  N  N360  1  0.06939628  0.05786382  0.60200294  1
  N  N361  1  0.05127186  0.39188825  0.59304206  1
  N  N362  1  0.05861128  0.72744867  0.58521011  1
  N  N363  1  0.55914817  0.05801547  0.59085896  1
  N  N364  1  0.55031250  0.38976863  0.59019569  1
  N  N365  1  0.56860117  0.72327777  0.60030653  1
  N  N366  1  0.44541524  0.27406729  0.08647423  1
  N  N367  1  0.44618348  0.60641780  0.08183354  1
  N  N368  1  0.44491840  0.94204027  0.09327463  1
  N  N369  1  0.92937083  0.27837757  0.10351169  1
  N  N370  1  0.95296957  0.60869526  0.09234304  1
  N  N371  1  0.94840151  0.94613028  0.08833031  1
  N  N372  1  0.44604005  0.05954129  0.91391521  1
  N  N373  1  0.44065584  0.38862322  0.90914752  1
  N  N374  1  0.43163712  0.72552119  0.90218863  1
  N  N375  1  0.94033262  0.05757020  0.90118652  1
  N  N376  1  0.93219421  0.38611950  0.89271164  1
  N  N377  1  0.92811054  0.72064319  0.90225856  1
  N  N378  1  0.06393940  0.27599608  0.40520274  1
  N  N379  1  0.06590581  0.61180275  0.40121506  1
  N  N380  1  0.07104142  0.94470373  0.40528440  1
  N  N381  1  0.55667139  0.27527168  0.40960348  1
  N  N382  1  0.56365227  0.61602049  0.40181742  1
  N  N383  1  0.57553277  0.94423333  0.39489056  1
  N  N384  1  0.31962793  0.22222074  0.59627057  1
  N  N385  1  0.30583083  0.55725025  0.58641106  1
  N  N386  1  0.30595235  0.89010294  0.59488391  1
  N  N387  1  0.82047791  0.22345743  0.60191445  1
  N  N388  1  0.81779737  0.55582256  0.60531327  1
  N  N389  1  0.80556057  0.89126977  0.58947272  1
  N  N390  1  0.18302303  0.11176701  0.09942934  1
  N  N391  1  0.18776253  0.44157367  0.09997521  1
  N  N392  1  0.17967685  0.78116592  0.10836270  1
  N  N393  1  0.67606283  0.11441695  0.10358033  1
  N  N394  1  0.68659972  0.44405396  0.09774778  1
  N  N395  1  0.69898860  0.77528104  0.08316301  1
  N  N396  1  0.18699449  0.22676766  0.90601982  1
  N  N397  1  0.17780785  0.55641573  0.89926031  1
  N  N398  1  0.17754572  0.88825409  0.89893941  1
  N  N399  1  0.68406126  0.22273983  0.90574424  1
  N  N400  1  0.68082817  0.55413365  0.89515913  1
  N  N401  1  0.67380169  0.88884114  0.89445258  1
  N  N402  1  0.31355738  0.10751505  0.40705792  1
  N  N403  1  0.32003968  0.44242151  0.40252033  1
  N  N404  1  0.31148078  0.77828816  0.40629143  1
  N  N405  1  0.81381614  0.10970479  0.40108978  1
  N  N406  1  0.82677389  0.44798362  0.39547335  1
  N  N407  1  0.81546056  0.77694207  0.40372075  1
  N  N408  1  0.43024313  0.27502967  0.39840790  1
  N  N409  1  0.43475789  0.61084611  0.39857321  1
  N  N410  1  0.44704572  0.94197451  0.41146333  1
  N  N411  1  0.93478323  0.27642869  0.40384217  1
  N  N412  1  0.93654495  0.60921621  0.41183604  1
  N  N413  1  0.94226773  0.94002423  0.40636687  1
  N  N414  1  0.06748835  0.05877174  0.90412487  1
  N  N415  1  0.05702925  0.38899038  0.91108310  1
  N  N416  1  0.05786291  0.72429973  0.90773554  1
  N  N417  1  0.57326867  0.05560429  0.89989412  1
  N  N418  1  0.56993218  0.38704020  0.89748544  1
  N  N419  1  0.55896936  0.71499304  0.90421508  1
  N  N420  1  0.05519194  0.27059804  0.08445583  1
  N  N421  1  0.08034641  0.61215306  0.10166500  1
  N  N422  1  0.07575400  0.94438720  0.10461866  1
  N  N423  1  0.57023580  0.27850178  0.10383765  1
  N  N424  1  0.57362958  0.61080245  0.10240818  1
  N  N425  1  0.57275089  0.94367593  0.10079355  1
  N  N426  1  0.43252535  0.05540142  0.60552290  1
  N  N427  1  0.42398423  0.38728837  0.60647359  1
  N  N428  1  0.43887489  0.72465719  0.59170168  1
  N  N429  1  0.94142691  0.05593018  0.58840063  1
  N  N430  1  0.92351538  0.38957219  0.60065416  1
  N  N431  1  0.93245869  0.72092509  0.60139425  1
  N  N432  1  0.18541120  0.10958957  0.40238073  1
  N  N433  1  0.19105217  0.44210843  0.40705142  1
  N  N434  1  0.18378251  0.77724267  0.39733571  1
  N  N435  1  0.68480441  0.11528773  0.40142985  1
  N  N436  1  0.69967113  0.44056834  0.41078405  1
  N  N437  1  0.68725940  0.77093671  0.41237821  1
  N  N438  1  0.31533798  0.22416636  0.90354092  1
  N  N439  1  0.30410292  0.55889249  0.90977644  1
  N  N440  1  0.30528875  0.89028381  0.90686412  1
  N  N441  1  0.81378719  0.22303279  0.90669255  1
  N  N442  1  0.80808511  0.55795831  0.90737605  1
  N  N443  1  0.80291222  0.89103981  0.90799916  1
  N  N444  1  0.30997123  0.11060535  0.09373677  1
  N  N445  1  0.31645167  0.45012721  0.09610898  1
  N  N446  1  0.30711618  0.77574001  0.08863173  1
  N  N447  1  0.80445898  0.11015383  0.08734704  1
  N  N448  1  0.81466325  0.44277453  0.09671437  1
  N  N449  1  0.82307674  0.77711401  0.10629585  1
  N  N450  1  0.19163274  0.22401172  0.59533965  1
  N  N451  1  0.17908846  0.55542022  0.60618212  1
  N  N452  1  0.17978889  0.88899876  0.60265167  1
  N  N453  1  0.69301747  0.22500260  0.59246118  1
  N  N454  1  0.69257471  0.55887746  0.58801648  1
  N  N455  1  0.67764543  0.88691690  0.60033465  1
  Cl  Cl456  1  0.25008151  0.05192862  0.63129061  1
  Cl  Cl457  1  0.23716935  0.39159906  0.61859668  1
  Cl  Cl458  1  0.24994594  0.71963701  0.61171873  1
  Cl  Cl459  1  0.74957721  0.06035467  0.60055559  1
  Cl  Cl460  1  0.73665156  0.38869082  0.60760899  1
  Cl  Cl461  1  0.75067155  0.72055010  0.62096903  1
  Cl  Cl462  1  0.24970130  0.27831699  0.11021832  1
  Cl  Cl463  1  0.26287258  0.61141120  0.11885142  1
  Cl  Cl464  1  0.26021242  0.94818494  0.12015186  1
  Cl  Cl465  1  0.74939134  0.27934444  0.12242479  1
  Cl  Cl466  1  0.76772867  0.61271622  0.11815767  1
  Cl  Cl467  1  0.76377192  0.94019561  0.11348844  1
  Cl  Cl468  1  0.25796358  0.05789216  0.89728786  1
  Cl  Cl469  1  0.24618027  0.39526855  0.89662099  1
  Cl  Cl470  1  0.24873612  0.71944094  0.88245542  1
  Cl  Cl471  1  0.75747907  0.05633458  0.87385600  1
  Cl  Cl472  1  0.75171084  0.38406553  0.87379958  1
  Cl  Cl473  1  0.74056875  0.72988576  0.89236182  1
  Cl  Cl474  1  0.24763926  0.28113205  0.37793596  1
  Cl  Cl475  1  0.25472291  0.60773875  0.38977852  1
  Cl  Cl476  1  0.25624850  0.94818366  0.38489697  1
  Cl  Cl477  1  0.74594156  0.28228862  0.38614010  1
  Cl  Cl478  1  0.74625507  0.60916223  0.39459556  1
  Cl  Cl479  1  0.76024824  0.94566558  0.38297312  1
  Cl  Cl480  1  0.00596774  0.22131606  0.61104109  1
  Cl  Cl481  1  -0.00075452  0.55115279  0.62435916  1
  Cl  Cl482  1  -0.00570027  0.89023617  0.61414957  1
  Cl  Cl483  1  0.50403478  0.22093477  0.61329636  1
  Cl  Cl484  1  0.50317595  0.56342668  0.59713118  1
  Cl  Cl485  1  0.49162730  0.88604428  0.61435946  1
  Cl  Cl486  1  -0.00205430  0.11376013  0.11415995  1
  Cl  Cl487  1  0.00463484  0.43956670  0.10363863  1
  Cl  Cl488  1  -0.00002630  0.78630585  0.12459758  1
  Cl  Cl489  1  0.49251574  0.10960930  0.11699627  1
  Cl  Cl490  1  0.49836857  0.44368520  0.11932075  1
  Cl  Cl491  1  0.50903849  0.77091684  0.09926762  1
  Cl  Cl492  1  0.00092265  0.22155405  0.88207622  1
  Cl  Cl493  1  -0.00549209  0.55315853  0.88735965  1
  Cl  Cl494  1  -0.01044913  0.89583437  0.89086709  1
  Cl  Cl495  1  0.49913341  0.21587400  0.87864616  1
  Cl  Cl496  1  0.48964350  0.55416891  0.87459265  1
  Cl  Cl497  1  0.48894250  0.88062807  0.88063211  1
  Cl  Cl498  1  -0.00354752  0.10855892  0.38942790  1
  Cl  Cl499  1  0.00889384  0.44707681  0.37240108  1
  Cl  Cl500  1  -0.00137487  0.78347486  0.38896487  1
  Cl  Cl501  1  0.50189722  0.10931806  0.38619684  1
  Cl  Cl502  1  0.51079174  0.44417646  0.38994217  1
  Cl  Cl503  1  0.49890065  0.77527980  0.37695402  1
  Cl  Cl504  1  0.35938696  0.14754455  0.75252096  1
  Cl  Cl505  1  0.35836276  0.48089755  0.74671791  1
  Cl  Cl506  1  0.35817348  0.81303133  0.75053863  1
  Cl  Cl507  1  0.86374591  0.14601760  0.74686621  1
  Cl  Cl508  1  0.85855954  0.47923474  0.74555145  1
  Cl  Cl509  1  0.85553299  0.81622062  0.75061610  1
  Cl  Cl510  1  0.13839192  0.18559191  0.25302537  1
  Cl  Cl511  1  0.14723435  0.52104538  0.24679859  1
  Cl  Cl512  1  0.13826693  0.85462578  0.24782303  1
  Cl  Cl513  1  0.63699848  0.18695737  0.24538309  1
  Cl  Cl514  1  0.64499814  0.51812205  0.25122299  1
  Cl  Cl515  1  0.64750736  0.85184111  0.25217317  1
  Cl  Cl516  1  0.13755362  0.14568736  0.75210914  1
  Cl  Cl517  1  0.13676813  0.48316931  0.75248688  1
  Cl  Cl518  1  0.13860813  0.81142793  0.75407559  1
  Cl  Cl519  1  0.64286382  0.14622858  0.74739207  1
  Cl  Cl520  1  0.64131324  0.48081854  0.75258207  1
  Cl  Cl521  1  0.63315872  0.81276862  0.74842234  1
  Cl  Cl522  1  0.36084724  0.18528107  0.25073957  1
  Cl  Cl523  1  0.36465765  0.51944101  0.25971724  1
  Cl  Cl524  1  0.36104775  0.84969758  0.25066668  1
  Cl  Cl525  1  0.85916093  0.18513511  0.25145695  1
  Cl  Cl526  1  0.86612860  0.51987875  0.25593134  1
  Cl  Cl527  1  0.86559747  0.85262524  0.25007084  1
  Cl  Cl528  1  0.10902349  0.31520121  0.74713267  1
  Cl  Cl529  1  0.10511586  0.64735185  0.75038458  1
  Cl  Cl530  1  0.10792713  0.97840769  0.74822423  1
  Cl  Cl531  1  0.60705425  0.31488709  0.75225903  1
  Cl  Cl532  1  0.61193958  0.64636898  0.74926462  1
  Cl  Cl533  1  0.61169672  0.97911785  0.75335313  1
  Cl  Cl534  1  0.39515261  0.01520892  0.25010733  1
  Cl  Cl535  1  0.39107440  0.35190941  0.25304306  1
  Cl  Cl536  1  0.39994730  0.68510428  0.24493270  1
  Cl  Cl537  1  0.89205130  0.01815563  0.25437675  1
  Cl  Cl538  1  0.89143090  0.35449363  0.24727837  1
  Cl  Cl539  1  0.89229405  0.68660754  0.25271044  1
  Cl  Cl540  1  0.38439774  0.31455508  0.74500899  1
  Cl  Cl541  1  0.39323523  0.64725097  0.74715424  1
  Cl  Cl542  1  0.39178999  0.98423392  0.74960045  1
  Cl  Cl543  1  0.88772459  0.31368993  0.74948574  1
  Cl  Cl544  1  0.88428927  0.64731533  0.75165749  1
  Cl  Cl545  1  0.89169417  0.97998870  0.74902304  1
  Cl  Cl546  1  0.11250381  0.01996930  0.24457545  1
  Cl  Cl547  1  0.11063567  0.35148728  0.24454425  1
  Cl  Cl548  1  0.11472180  0.68677327  0.25460293  1
  Cl  Cl549  1  0.61708084  0.02096712  0.25205929  1
  Cl  Cl550  1  0.61122202  0.35121594  0.24845598  1
  Cl  Cl551  1  0.61824355  0.68679444  0.24228421  1
