# generated using pymatgen
data_H8PbC4(N3Cl2)2
_symmetry_space_group_name_H-M   'P 1'
_cell_length_a   16.62760150
_cell_length_b   22.51145647
_cell_length_c   21.59500041
_cell_angle_alpha   90.00098258
_cell_angle_beta   89.99022870
_cell_angle_gamma   89.99699105
_symmetry_Int_Tables_number   1
_chemical_formula_structural   H8PbC4(N3Cl2)2
_chemical_formula_sum   'H192 Pb24 C96 N144 Cl96'
_cell_volume   8083.25745729
_cell_formula_units_Z   24
loop_
 _symmetry_equiv_pos_site_id
 _symmetry_equiv_pos_as_xyz
  1  'x, y, z'
loop_
 _atom_site_type_symbol
 _atom_site_label
 _atom_site_symmetry_multiplicity
 _atom_site_fract_x
 _atom_site_fract_y
 _atom_site_fract_z
 _atom_site_occupancy
  H  H0  1  -0.00450958  0.03119450  0.68322531  1
  H  H1  1  0.00083678  0.36329392  0.68101612  1
  H  H2  1  -0.00006881  0.69728916  0.68303995  1
  H  H3  1  0.49586238  0.03115465  0.68287132  1
  H  H4  1  0.49963213  0.36254025  0.67786689  1
  H  H5  1  0.48953015  0.69887529  0.68205739  1
  H  H6  1  -0.01333595  0.30316942  0.17923720  1
  H  H7  1  -0.00294736  0.63735735  0.17804794  1
  H  H8  1  -0.00814361  0.96867182  0.17709174  1
  H  H9  1  0.51495707  0.30292809  0.17957161  1
  H  H10  1  0.50087467  0.63705760  0.17649935  1
  H  H11  1  0.50577744  0.97195818  0.17929881  1
  H  H12  1  0.00554429  0.02944958  0.82137466  1
  H  H13  1  0.00993963  0.36492869  0.81917740  1
  H  H14  1  -0.00382553  0.69540899  0.82580348  1
  H  H15  1  0.50194324  0.02609747  0.81965686  1
  H  H16  1  0.50540763  0.36481562  0.81828719  1
  H  H17  1  0.49722374  0.69476928  0.82484378  1
  H  H18  1  0.00296463  0.30336399  0.31976576  1
  H  H19  1  0.01822575  0.63645871  0.31993240  1
  H  H20  1  -0.01229355  0.96611656  0.32160511  1
  H  H21  1  0.50014750  0.30780552  0.32004064  1
  H  H22  1  0.48835946  0.63534015  0.32349362  1
  H  H23  1  0.51528589  0.96614061  0.31990944  1
  H  H24  1  0.25217839  0.19721024  0.67768395  1
  H  H25  1  0.25003381  0.52741442  0.68197717  1
  H  H26  1  0.25840146  0.86547848  0.67589152  1
  H  H27  1  0.74550874  0.19725761  0.68118640  1
  H  H28  1  0.75523498  0.52951073  0.67914583  1
  H  H29  1  0.74603630  0.86440194  0.68371172  1
  H  H30  1  0.24646900  0.13887305  0.18171702  1
  H  H31  1  0.26072720  0.46995387  0.18275005  1
  H  H32  1  0.25772791  0.80181390  0.17637438  1
  H  H33  1  0.74399033  0.13537207  0.17680560  1
  H  H34  1  0.73519845  0.46861295  0.17316870  1
  H  H35  1  0.75578585  0.80588772  0.17718564  1
  H  H36  1  0.24476461  0.19802678  0.82313202  1
  H  H37  1  0.25665132  0.53090559  0.82307027  1
  H  H38  1  0.25684546  0.86423485  0.82140056  1
  H  H39  1  0.75170578  0.19230458  0.81989568  1
  H  H40  1  0.74320539  0.53064236  0.82231052  1
  H  H41  1  0.74604151  0.86100053  0.82196819  1
  H  H42  1  0.24974594  0.13206138  0.31474786  1
  H  H43  1  0.26162237  0.46593198  0.32391449  1
  H  H44  1  0.25598228  0.80314459  0.31671402  1
  H  H45  1  0.75031259  0.13252938  0.31424645  1
  H  H46  1  0.74043208  0.46792859  0.32006493  1
  H  H47  1  0.74174970  0.80147325  0.31769925  1
  H  H48  1  0.12499565  0.05396200  0.61585866  1
  H  H49  1  0.12580520  0.38461762  0.61309765  1
  H  H50  1  0.12478362  0.72065712  0.61113074  1
  H  H51  1  0.62439205  0.05505476  0.61495159  1
  H  H52  1  0.62425977  0.38787466  0.60613601  1
  H  H53  1  0.62660957  0.71805570  0.62313112  1
  H  H54  1  0.37393303  0.28294609  0.12669869  1
  H  H55  1  0.37743766  0.61227802  0.10640314  1
  H  H56  1  0.37921123  0.94523709  0.11056983  1
  H  H57  1  0.88050181  0.27525949  0.09385847  1
  H  H58  1  0.88449103  0.60933492  0.09835395  1
  H  H59  1  0.88465022  0.94091784  0.09348080  1
  H  H60  1  0.37240653  0.05155951  0.88622852  1
  H  H61  1  0.37391202  0.38731145  0.88481897  1
  H  H62  1  0.38102986  0.72340589  0.89958744  1
  H  H63  1  0.86843901  0.05199702  0.87904765  1
  H  H64  1  0.87426807  0.38632998  0.87939806  1
  H  H65  1  0.88100897  0.72284402  0.90232581  1
  H  H66  1  0.12108902  0.28151212  0.39433063  1
  H  H67  1  0.12100548  0.60497448  0.40589097  1
  H  H68  1  0.13050758  0.95082100  0.37023373  1
  H  H69  1  0.62315562  0.28080913  0.39182243  1
  H  H70  1  0.62843845  0.61673377  0.37728763  1
  H  H71  1  0.62300443  0.94025835  0.40440927  1
  H  H72  1  0.37522099  0.22210649  0.60621618  1
  H  H73  1  0.37312913  0.55282542  0.60966013  1
  H  H74  1  0.36743559  0.89221126  0.59236848  1
  H  H75  1  0.87617565  0.21966179  0.61879094  1
  H  H76  1  0.87077185  0.55535044  0.60179925  1
  H  H77  1  0.87320477  0.88437400  0.61623507  1
  H  H78  1  0.13185841  0.11325358  0.10527885  1
  H  H79  1  0.13281001  0.44668020  0.11426747  1
  H  H80  1  0.12103687  0.78099896  0.11776614  1
  H  H81  1  0.63182253  0.10740655  0.09830618  1
  H  H82  1  0.63252098  0.44384566  0.08729139  1
  H  H83  1  0.62027623  0.78163106  0.11693886  1
  H  H84  1  0.12835426  0.22379062  0.90066076  1
  H  H85  1  0.12089938  0.55304468  0.88246825  1
  H  H86  1  0.11891667  0.88150797  0.87762852  1
  H  H87  1  0.62362457  0.21818794  0.88459175  1
  H  H88  1  0.62246082  0.55394416  0.89588443  1
  H  H89  1  0.62100050  0.88674447  0.89293632  1
  H  H90  1  0.37326924  0.11245958  0.38572184  1
  H  H91  1  0.37044671  0.44202792  0.40419771  1
  H  H92  1  0.37115267  0.78035448  0.39380939  1
  H  H93  1  0.87401059  0.11301641  0.38516836  1
  H  H94  1  0.87209532  0.44851604  0.38082087  1
  H  H95  1  0.87467497  0.78226716  0.37995316  1
  H  H96  1  0.37458672  0.28273247  0.39098011  1
  H  H97  1  0.38368342  0.60444208  0.40716645  1
  H  H98  1  0.37746583  0.94998482  0.37808589  1
  H  H99  1  0.87197522  0.28304673  0.38401266  1
  H  H100  1  0.87753794  0.61835411  0.37395760  1
  H  H101  1  0.88650619  0.94001924  0.40711810  1
  H  H102  1  0.11593303  0.05609560  0.90118506  1
  H  H103  1  0.12197695  0.39009736  0.89943130  1
  H  H104  1  0.12920643  0.72043030  0.88649450  1
  H  H105  1  0.62037648  0.05475522  0.89578265  1
  H  H106  1  0.62206971  0.39013515  0.89643089  1
  H  H107  1  0.62933351  0.71671323  0.88799837  1
  H  H108  1  0.12539211  0.28170707  0.12440079  1
  H  H109  1  0.13153299  0.61592801  0.11929370  1
  H  H110  1  0.13011027  0.94763817  0.11982526  1
  H  H111  1  0.61853895  0.27649372  0.09410315  1
  H  H112  1  0.62645419  0.61102766  0.10700659  1
  H  H113  1  0.62779220  0.94649870  0.10520032  1
  H  H114  1  0.37539066  0.05525122  0.61090206  1
  H  H115  1  0.37538682  0.38702379  0.60570609  1
  H  H116  1  0.37966705  0.72412647  0.60052429  1
  H  H117  1  0.87582615  0.05625242  0.61004917  1
  H  H118  1  0.87650971  0.38621531  0.61058774  1
  H  H119  1  0.87573343  0.72004100  0.61275564  1
  H  H120  1  0.12377437  0.11469213  0.38387578  1
  H  H121  1  0.12437740  0.44885408  0.37898111  1
  H  H122  1  0.12252267  0.78279322  0.37663043  1
  H  H123  1  0.62439947  0.11479479  0.38376207  1
  H  H124  1  0.62359305  0.44414312  0.39641318  1
  H  H125  1  0.62595238  0.77811635  0.39331773  1
  H  H126  1  0.37579289  0.22088075  0.88835061  1
  H  H127  1  0.36751726  0.55898385  0.90380042  1
  H  H128  1  0.36613872  0.88749342  0.90201386  1
  H  H129  1  0.87285364  0.22215904  0.89225944  1
  H  H130  1  0.87145908  0.55260730  0.88610856  1
  H  H131  1  0.86964706  0.88543413  0.89446732  1
  H  H132  1  0.38025563  0.11644755  0.12275132  1
  H  H133  1  0.38222589  0.44799648  0.10861914  1
  H  H134  1  0.36764728  0.77331360  0.09564432  1
  H  H135  1  0.87902830  0.11328612  0.11719328  1
  H  H136  1  0.87604127  0.45224576  0.12441411  1
  H  H137  1  0.86716311  0.77571036  0.09583859  1
  H  H138  1  0.12583037  0.22222848  0.61058746  1
  H  H139  1  0.12383333  0.55118622  0.61385148  1
  H  H140  1  0.12175169  0.88594324  0.61726340  1
  H  H141  1  0.62733117  0.22186966  0.60726784  1
  H  H142  1  0.62276088  0.55180393  0.61499120  1
  H  H143  1  0.62354735  0.88626925  0.61247721  1
  H  H144  1  0.35199410  0.08515487  0.01047230  1
  H  H145  1  0.60688484  0.57956428  0.48320522  1
  H  H146  1  0.30095943  0.91713229  1.00835310  1
  H  H147  1  0.07806573  0.05400267  0.50585579  1
  H  H148  1  0.46177736  0.58884078  0.50777437  1
  H  H149  1  0.04957466  0.08285396  1.00823377  1
  H  H150  1  0.08734234  0.41439695  0.50154682  1
  H  H151  1  0.14933126  0.58093478  0.99095428  1
  H  H152  1  0.16792159  0.10779947  0.50008942  1
  H  H153  1  0.66855028  0.10903663  0.49955934  1
  H  H154  1  0.68005313  0.25448534  0.49969344  1
  H  H155  1  0.66464819  0.25030268  0.99562323  1
  H  H156  1  0.32897410  0.41955123  0.00122533  1
  H  H157  1  0.82677122  0.10282062  0.50055299  1
  H  H158  1  0.54177616  0.24987519  -0.00862224  1
  H  H159  1  0.04043512  0.58159877  0.50418665  1
  H  H160  1  0.86425943  0.42216585  1.00916692  1
  H  H161  1  0.81729660  0.24303760  0.99812299  1
  H  H162  1  0.19145050  0.08591516  -0.00359846  1
  H  H163  1  0.95905384  0.25180205  -0.00531702  1
  H  H164  1  0.05559584  0.41956181  1.00440099  1
  H  H165  1  0.89514370  0.07634119  0.98809056  1
  H  H166  1  0.09445531  0.75052583  0.99390339  1
  H  H167  1  0.45020988  0.75295414  0.49563053  1
  H  H168  1  0.81145168  0.58287042  0.49578228  1
  H  H169  1  0.14686862  0.91527970  0.50669405  1
  H  H170  1  0.32588223  0.10130648  0.50096553  1
  H  H171  1  0.57702899  0.05654028  0.50503145  1
  H  H172  1  0.83177704  0.90823890  0.50279299  1
  H  H173  1  0.06910977  0.25357871  0.50371310  1
  H  H174  1  0.31183230  0.75544722  0.50343020  1
  H  H175  1  0.10751385  0.91693182  0.01106128  1
  H  H176  1  0.96343782  0.91241688  0.51081952  1
  H  H177  1  0.15107076  0.75499888  0.49001935  1
  H  H178  1  0.32368244  0.25590557  0.50341681  1
  H  H179  1  0.33571604  0.24885125  0.99475198  1
  H  H180  1  0.83380104  0.58370501  0.99917708  1
  H  H181  1  0.92138463  0.75029371  0.50417341  1
  H  H182  1  0.84579257  0.25181806  0.50713591  1
  H  H183  1  0.67207189  0.90967429  0.50013340  1
  H  H184  1  0.32010845  0.56536659  0.50165192  1
  H  H185  1  0.59263514  0.74783454  0.99420094  1
  H  H186  1  0.84254502  0.41630619  0.49400060  1
  H  H187  1  0.93021438  0.07041352  0.49668303  1
  H  H188  1  0.68212737  0.74976406  0.50242843  1
  H  H189  1  0.42822282  0.06579479  0.49654897  1
  H  H190  1  0.54648707  0.91217998  0.50333754  1
  H  H191  1  0.16804685  0.57598293  0.50179241  1
  Pb  Pb192  1  0.24805589  0.04598048  0.75176947  1
  Pb  Pb193  1  0.24950638  0.37936635  0.75283330  1
  Pb  Pb194  1  0.24967316  0.71359051  0.74721305  1
  Pb  Pb195  1  0.74846234  0.04595348  0.74799574  1
  Pb  Pb196  1  0.74748019  0.38016338  0.74897858  1
  Pb  Pb197  1  0.75114350  0.71099062  0.75193208  1
  Pb  Pb198  1  0.25138658  0.28887457  0.25723026  1
  Pb  Pb199  1  0.25016590  0.61978067  0.25958845  1
  Pb  Pb200  1  0.25362756  0.95188436  0.24679314  1
  Pb  Pb201  1  0.74708103  0.28451270  0.24173293  1
  Pb  Pb202  1  0.75271752  0.61962541  0.24314303  1
  Pb  Pb203  1  0.74975626  0.95350895  0.25521246  1
  Pb  Pb204  1  -0.00041594  0.21391663  0.75612579  1
  Pb  Pb205  1  -0.00078381  0.54560394  0.74263346  1
  Pb  Pb206  1  -0.00300959  0.87848863  0.75194698  1
  Pb  Pb207  1  0.49837163  0.21191813  0.74950305  1
  Pb  Pb208  1  0.49814294  0.54661277  0.74911371  1
  Pb  Pb209  1  0.49830876  0.87842129  0.74523871  1
  Pb  Pb210  1  0.00168921  0.11842324  0.25075841  1
  Pb  Pb211  1  0.00108587  0.45332246  0.24782714  1
  Pb  Pb212  1  -0.00175419  0.78704430  0.24297043  1
  Pb  Pb213  1  0.49851507  0.11968835  0.25432249  1
  Pb  Pb214  1  0.50128916  0.45501653  0.24597023  1
  Pb  Pb215  1  0.50329747  0.78335794  0.24852126  1
  C  C216  1  -0.00039144  0.04632269  0.63549468  1
  C  C217  1  0.00150929  0.37828496  0.63332023  1
  C  C218  1  0.00046039  0.71273678  0.63543892  1
  C  C219  1  0.49947609  0.04633612  0.63514756  1
  C  C220  1  0.49979144  0.37880637  0.63058933  1
  C  C221  1  0.49887796  0.71371106  0.63477760  1
  C  C222  1  -0.00292710  0.28773700  0.13233376  1
  C  C223  1  0.00423598  0.62137585  0.13114836  1
  C  C224  1  0.00264266  0.95290362  0.13033274  1
  C  C225  1  0.50220006  0.28799550  0.13277317  1
  C  C226  1  0.50190160  0.62055327  0.12951538  1
  C  C227  1  0.50436656  0.95510148  0.13230229  1
  C  C228  1  -0.00405157  0.04491601  0.86852165  1
  C  C229  1  0.00189242  0.38032113  0.86633870  1
  C  C230  1  0.00257093  0.71241740  0.87247182  1
  C  C231  1  0.49829400  0.04268702  0.86676333  1
  C  C232  1  0.50023909  0.38046895  0.86567928  1
  C  C233  1  0.50287802  0.71121316  0.87178082  1
  C  C234  1  -0.00093354  0.28887375  0.36753021  1
  C  C235  1  0.00619794  0.62129248  0.36671943  1
  C  C236  1  0.00166471  0.95230435  0.36860645  1
  C  C237  1  0.49931979  0.29081829  0.36703003  1
  C  C238  1  0.50034208  0.61957110  0.37025652  1
  C  C239  1  0.50562738  0.95177724  0.36727001  1
  C  C240  1  0.25135619  0.21398894  0.63067570  1
  C  C241  1  0.24955447  0.54240539  0.63408466  1
  C  C242  1  0.24875530  0.88087247  0.62883315  1
  C  C243  1  0.74983348  0.21343830  0.63386705  1
  C  C244  1  0.74923017  0.54472024  0.63161925  1
  C  C245  1  0.74760947  0.87875418  0.63564234  1
  C  C246  1  0.25320391  0.12286461  0.13456419  1
  C  C247  1  0.25856123  0.45495939  0.13509557  1
  C  C248  1  0.24843369  0.78627374  0.12961515  1
  C  C249  1  0.75204991  0.11927673  0.13008538  1
  C  C250  1  0.74904440  0.45418968  0.12648342  1
  C  C251  1  0.74779872  0.78919035  0.13042822  1
  C  C252  1  0.24993248  0.21372696  0.87048048  1
  C  C253  1  0.24794090  0.54695191  0.87001785  1
  C  C254  1  0.24754181  0.87822888  0.86893064  1
  C  C255  1  0.74998897  0.20964908  0.86685008  1
  C  C256  1  0.74635228  0.54551201  0.86993030  1
  C  C257  1  0.74547780  0.87756609  0.86905777  1
  C  C258  1  0.24884726  0.11996252  0.36341563  1
  C  C259  1  0.25188136  0.45181847  0.37129221  1
  C  C260  1  0.24956014  0.78857103  0.36443237  1
  C  C261  1  0.74950710  0.12012550  0.36287172  1
  C  C262  1  0.74608845  0.45327068  0.36759977  1
  C  C263  1  0.74716265  0.78734029  0.36550466  1
  C  C264  1  0.70400447  0.23991252  0.95697778  1
  C  C265  1  0.78907126  0.10510078  0.45945761  1
  C  C266  1  0.71034068  0.57260957  0.96409936  1
  C  C267  1  0.20674038  0.24484037  0.53892996  1
  C  C268  1  0.97222129  0.74503883  0.96680984  1
  C  C269  1  0.27328287  0.42430434  0.46712447  1
  C  C270  1  0.79660244  0.42644536  0.45854437  1
  C  C271  1  0.03072092  0.26323193  0.46382497  1
  C  C272  1  0.71810961  0.76074647  0.46195015  1
  C  C273  1  0.47087249  0.74304799  0.96603002  1
  C  C274  1  0.30661262  0.09582089  0.04509542  1
  C  C275  1  0.81379685  0.42978236  0.04042721  1
  C  C276  1  0.26936961  0.75575152  0.03443261  1
  C  C277  1  0.79925675  0.76272465  0.45580462  1
  C  C278  1  0.26816696  0.90537305  0.96642063  1
  C  C279  1  0.05654843  0.59303394  0.04280679  1
  C  C280  1  0.71512521  0.42511861  0.46249363  1
  C  C281  1  0.29150720  0.42934865  0.04118721  1
  C  C282  1  0.96124007  0.40446153  0.53979878  1
  C  C283  1  0.27823550  0.76415253  0.46120405  1
  C  C284  1  0.79156369  0.90047552  0.54165867  1
  C  C285  1  0.02447205  0.40842794  0.96153311  1
  C  C286  1  0.96370473  0.06798444  0.53991787  1
  C  C287  1  0.70962583  0.90123253  0.54034024  1
  C  C288  1  0.72829359  0.08703078  0.03609977  1
  C  C289  1  0.19278997  0.42671339  0.45846644  1
  C  C290  1  0.07000015  0.92924883  0.45301991  1
  C  C291  1  0.18750031  0.90263657  0.95643946  1
  C  C292  1  0.96261213  0.73945677  0.54274128  1
  C  C293  1  0.20626556  0.10584949  0.45941388  1
  C  C294  1  0.01967567  0.07286060  0.96462619  1
  C  C295  1  0.79181640  0.57283442  0.96234343  1
  C  C296  1  0.73385675  0.42695244  0.02918789  1
  C  C297  1  0.79941130  0.24101434  0.54295656  1
  C  C298  1  0.28841427  0.10411026  0.45977409  1
  C  C299  1  0.71739995  0.24218946  0.53895776  1
  C  C300  1  0.19643480  0.76444310  0.45490913  1
  C  C301  1  0.20644206  0.56807127  0.54169001  1
  C  C302  1  0.99052787  0.92502772  0.46684889  1
  C  C303  1  0.46556721  0.58987715  0.03790045  1
  C  C304  1  0.46201718  0.06686157  0.53979131  1
  C  C305  1  0.22481903  0.09564183  0.03849396  1
  C  C306  1  0.51516532  0.26057095  0.03619237  1
  C  C307  1  0.77644480  0.57109019  0.53657446  1
  C  C308  1  0.94917903  0.26432687  0.45894231  1
  C  C309  1  0.70714137  0.10680487  0.45903880  1
  C  C310  1  0.04289029  0.40447138  0.53916142  1
  C  C311  1  0.47968585  0.74131298  0.53906778  1
  N  N312  1  0.52171405  0.92853137  0.46307494  1
  N  N313  1  0.28579705  0.24440309  0.53878024  1
  N  N314  1  0.04377250  0.06764145  0.54268734  1
  N  N315  1  0.54214288  0.06833426  0.54214671  1
  N  N316  1  0.43722342  0.26192906  0.04702372  1
  N  N317  1  0.45342868  0.40756229  0.95696621  1
  N  N318  1  0.78294512  0.90789952  0.96163492  1
  N  N319  1  0.29463545  0.23961427  0.96003169  1
  N  N320  1  0.78364831  0.24168569  0.95841354  1
  N  N321  1  0.45324111  0.07246309  0.95749038  1
  N  N322  1  0.97930763  0.59055231  0.03470154  1
  N  N323  1  0.21677793  0.24069359  0.96558278  1
  N  N324  1  0.28615246  0.56825609  0.54111405  1
  N  N325  1  0.27346636  0.57608871  0.96560618  1
  N  N326  1  0.70670876  0.90883705  0.96102631  1
  N  N327  1  0.27207660  0.90895042  0.53271181  1
  N  N328  1  0.52930081  0.07362864  0.96052990  1
  N  N329  1  0.04207328  0.73947738  0.54160729  1
  N  N330  1  0.94064080  0.59621742  0.45142822  1
  N  N331  1  0.98274113  0.25808440  0.03838791  1
  N  N332  1  0.54279661  0.58966312  0.03683121  1
  N  N333  1  0.46192963  0.40858543  0.53795746  1
  N  N334  1  0.69734017  0.56841444  0.53999223  1
  N  N335  1  0.94099520  0.07159509  0.95563548  1
  N  N336  1  0.53634533  0.26010467  0.45960665  1
  N  N337  1  0.53929045  0.92519436  0.03896316  1
  N  N338  1  0.69455446  0.75955225  0.04244875  1
  N  N339  1  0.19580576  0.57422405  0.95697769  1
  N  N340  1  0.98131261  0.92333942  0.03431198  1
  N  N341  1  0.52976618  0.40848825  0.96079546  1
  N  N342  1  0.01744099  0.59061376  0.46077847  1
  N  N343  1  0.19500193  0.90648985  0.54173807  1
  N  N344  1  0.80550010  0.08979126  0.04090598  1
  N  N345  1  0.19237978  0.75850915  0.04069418  1
  N  N346  1  0.48391463  0.58514272  0.46316763  1
  N  N347  1  0.55833264  0.73927334  0.54657749  1
  N  N348  1  0.21214545  0.42841550  0.04255792  1
  N  N349  1  0.45942480  0.26044638  0.45900223  1
  N  N350  1  0.05988288  0.26024432  0.04707403  1
  N  N351  1  0.77042659  0.75731533  0.03568849  1
  N  N352  1  0.53807510  0.40848331  0.53801957  1
  N  N353  1  0.56126681  0.59699626  0.45555496  1
  N  N354  1  0.46294648  0.92447622  0.04083789  1
  N  N355  1  0.54957628  0.73985599  0.96093857  1
  N  N356  1  0.94585468  0.40770185  0.95465529  1
  N  N357  1  0.05821660  0.92602416  0.04446532  1
  N  N358  1  0.44452247  0.93148218  0.45532374  1
  N  N359  1  0.05083628  0.74320366  0.96045464  1
  N  N360  1  0.06523713  0.05050026  0.60136090  1
  N  N361  1  0.06643331  0.38813471  0.59868230  1
  N  N362  1  0.06398730  0.72291657  0.60000064  1
  N  N363  1  0.56469309  0.05135492  0.60075265  1
  N  N364  1  0.56325743  0.39000806  0.59535166  1
  N  N365  1  0.56832237  0.72250240  0.60629586  1
  N  N366  1  0.43102215  0.27898445  0.10738409  1
  N  N367  1  0.43746449  0.60860274  0.09359248  1
  N  N368  1  0.43990980  0.94251425  0.09877534  1
  N  N369  1  0.94274557  0.27696558  0.08903270  1
  N  N370  1  0.94664900  0.60884721  0.09123970  1
  N  N371  1  0.94680398  0.93984663  0.08810521  1
  N  N372  1  0.43234415  0.05330754  0.89941287  1
  N  N373  1  0.43395858  0.39041072  0.89789233  1
  N  N374  1  0.44166086  0.72538242  0.91090222  1
  N  N375  1  0.92657443  0.05274144  0.89699811  1
  N  N376  1  0.93313765  0.39033487  0.89523601  1
  N  N377  1  0.94201108  0.72598758  0.91241111  1
  N  N378  1  0.06056720  0.27859576  0.40560385  1
  N  N379  1  0.05923265  0.60860837  0.41047608  1
  N  N380  1  0.07602379  0.94543544  0.39304712  1
  N  N381  1  0.56208007  0.27869181  0.40266501  1
  N  N382  1  0.57145310  0.60935691  0.39549506  1
  N  N383  1  0.56071271  0.93884296  0.40931277  1
  N  N384  1  0.31428232  0.22526925  0.59526299  1
  N  N385  1  0.31249083  0.54879900  0.59725916  1
  N  N386  1  0.30528199  0.89302853  0.58689339  1
  N  N387  1  0.81777454  0.22335464  0.60226001  1
  N  N388  1  0.80953998  0.55655563  0.59228407  1
  N  N389  1  0.81385739  0.88689213  0.60116782  1
  N  N390  1  0.19300064  0.11221238  0.09463937  1
  N  N391  1  0.19354094  0.44435548  0.10139551  1
  N  N392  1  0.17928632  0.77776301  0.10116035  1
  N  N393  1  0.69325581  0.10528835  0.08940730  1
  N  N394  1  0.69467826  0.44155195  0.08103312  1
  N  N395  1  0.67910108  0.77967415  0.10110483  1
  N  N396  1  0.18949828  0.22478982  0.90937958  1
  N  N397  1  0.17933273  0.55605567  0.89925768  1
  N  N398  1  0.17564979  0.88659199  0.89712735  1
  N  N399  1  0.68289790  0.22189205  0.89970853  1
  N  N400  1  0.68284404  0.55627511  0.90842220  1
  N  N401  1  0.68190736  0.89015000  0.90362218  1
  N  N402  1  0.31355998  0.11266859  0.39989639  1
  N  N403  1  0.30903983  0.43963495  0.41388585  1
  N  N404  1  0.30995627  0.77895753  0.40444995  1
  N  N405  1  0.81416930  0.11303505  0.39933359  1
  N  N406  1  0.81434058  0.44400743  0.39838088  1
  N  N407  1  0.81641898  0.77857720  0.39747117  1
  N  N408  1  0.43552995  0.27951917  0.40178097  1
  N  N409  1  0.44564743  0.60895535  0.41361924  1
  N  N410  1  0.43514945  0.94638042  0.39589657  1
  N  N411  1  0.93068565  0.27956868  0.40050863  1
  N  N412  1  0.93441737  0.61340969  0.39254313  1
  N  N413  1  0.94845076  0.94003549  0.41300449  1
  N  N414  1  0.05426505  0.05718522  0.91031405  1
  N  N415  1  0.06028974  0.39182120  0.90757380  1
  N  N416  1  0.07025344  0.72257523  0.90249769  1
  N  N417  1  0.55878051  0.05494976  0.90462088  1
  N  N418  1  0.56012988  0.39190119  0.90450090  1
  N  N419  1  0.57001137  0.71990670  0.90297924  1
  N  N420  1  0.06810057  0.27716931  0.10617661  1
  N  N421  1  0.07387202  0.61127922  0.10151940  1
  N  N422  1  0.07230406  0.94414018  0.10257048  1
  N  N423  1  0.55655453  0.27631364  0.08839363  1
  N  N424  1  0.56582906  0.60895218  0.09523986  1
  N  N425  1  0.56647805  0.94416583  0.09557548  1
  N  N426  1  0.43559018  0.05618301  0.59766709  1
  N  N427  1  0.43653995  0.39043468  0.59532589  1
  N  N428  1  0.44162644  0.72576513  0.59282300  1
  N  N429  1  0.93641419  0.05716888  0.59761920  1
  N  N430  1  0.93646988  0.38879173  0.59671186  1
  N  N431  1  0.93600095  0.72335789  0.59997741  1
  N  N432  1  0.18305348  0.11515469  0.39910679  1
  N  N433  1  0.18037890  0.44331275  0.39953102  1
  N  N434  1  0.18026506  0.77936663  0.39464122  1
  N  N435  1  0.68382319  0.11535327  0.39853634  1
  N  N436  1  0.68466002  0.44130805  0.40763488  1
  N  N437  1  0.68667186  0.77620883  0.40444113  1
  N  N438  1  0.31621613  0.22322636  0.90263197  1
  N  N439  1  0.30552088  0.55962958  0.91094396  1
  N  N440  1  0.30458019  0.88985585  0.91051027  1
  N  N441  1  0.81189470  0.21960226  0.90379051  1
  N  N442  1  0.81298021  0.55582611  0.90260619  1
  N  N443  1  0.80851087  0.88871757  0.90472046  1
  N  N444  1  0.32262321  0.11255372  0.10491388  1
  N  N445  1  0.32145278  0.44528007  0.09760105  1
  N  N446  1  0.30590707  0.77264874  0.08773268  1
  N  N447  1  0.82050813  0.10996752  0.10084879  1
  N  N448  1  0.82179884  0.44633905  0.10199169  1
  N  N449  1  0.80486620  0.77564390  0.08990104  1
  N  N450  1  0.18523748  0.22606939  0.59580898  1
  N  N451  1  0.18358332  0.55378962  0.59973533  1
  N  N452  1  0.17971606  0.88963788  0.60011619  1
  N  N453  1  0.68796398  0.22495421  0.59594848  1
  N  N454  1  0.68198578  0.55224274  0.59988008  1
  N  N455  1  0.68351060  0.88793130  0.59920201  1
  Cl  Cl456  1  0.24886965  0.05933440  0.61620295  1
  Cl  Cl457  1  0.25266987  0.38247632  0.61996298  1
  Cl  Cl458  1  0.25371277  0.72078018  0.61138617  1
  Cl  Cl459  1  0.75035441  0.05959488  0.61340924  1
  Cl  Cl460  1  0.74937962  0.38869587  0.61629196  1
  Cl  Cl461  1  0.75285388  0.71732719  0.61942117  1
  Cl  Cl462  1  0.24967843  0.27999707  0.12613764  1
  Cl  Cl463  1  0.25508456  0.61659677  0.12803328  1
  Cl  Cl464  1  0.25502039  0.94575664  0.11282995  1
  Cl  Cl465  1  0.75471718  0.27105104  0.09966203  1
  Cl  Cl466  1  0.75629126  0.60811601  0.10998190  1
  Cl  Cl467  1  0.75583876  0.94925383  0.12248430  1
  Cl  Cl468  1  0.24198057  0.05631730  0.88519051  1
  Cl  Cl469  1  0.24741210  0.38893918  0.88631228  1
  Cl  Cl470  1  0.25463080  0.72167541  0.88005431  1
  Cl  Cl471  1  0.74352338  0.05822708  0.88103912  1
  Cl  Cl472  1  0.74486855  0.38573176  0.88318515  1
  Cl  Cl473  1  0.75450863  0.71720192  0.88288961  1
  Cl  Cl474  1  0.25123129  0.28005819  0.39348055  1
  Cl  Cl475  1  0.25606527  0.60145373  0.40088039  1
  Cl  Cl476  1  0.25516888  0.94881119  0.37385307  1
  Cl  Cl477  1  0.74602618  0.28162799  0.37505027  1
  Cl  Cl478  1  0.75186029  0.61455876  0.37762741  1
  Cl  Cl479  1  0.75022347  0.94120572  0.39168441  1
  Cl  Cl480  1  0.00324328  0.21794910  0.62470944  1
  Cl  Cl481  1  0.00002735  0.55735815  0.60468067  1
  Cl  Cl482  1  -0.00244323  0.88838081  0.61746717  1
  Cl  Cl483  1  0.49876247  0.21516470  0.61886665  1
  Cl  Cl484  1  0.49413125  0.56493983  0.60614894  1
  Cl  Cl485  1  0.49581813  0.89128459  0.60492453  1
  Cl  Cl486  1  0.00731475  0.10952805  0.11439822  1
  Cl  Cl487  1  0.00987741  0.44649001  0.11451576  1
  Cl  Cl488  1  -0.00833511  0.77479240  0.10735792  1
  Cl  Cl489  1  0.50942470  0.11589178  0.12509569  1
  Cl  Cl490  1  0.50996213  0.44863178  0.11384122  1
  Cl  Cl491  1  0.49344850  0.77246051  0.11350668  1
  Cl  Cl492  1  -0.00329899  0.22522758  0.89594754  1
  Cl  Cl493  1  -0.00042514  0.55268354  0.87270255  1
  Cl  Cl494  1  -0.00771574  0.88273559  0.88255871  1
  Cl  Cl495  1  0.49963476  0.22179282  0.88590218  1
  Cl  Cl496  1  0.49298232  0.55757577  0.88021461  1
  Cl  Cl497  1  0.49477504  0.88064576  0.87685661  1
  Cl  Cl498  1  -0.00126184  0.10542907  0.38485513  1
  Cl  Cl499  1  -0.00171968  0.44947790  0.37842557  1
  Cl  Cl500  1  -0.00214484  0.78129703  0.37392736  1
  Cl  Cl501  1  0.49957181  0.10442295  0.39064774  1
  Cl  Cl502  1  0.49784995  0.44968067  0.37894033  1
  Cl  Cl503  1  0.49571755  0.77858873  0.38414878  1
  Cl  Cl504  1  0.35799226  0.14783428  0.75173008  1
  Cl  Cl505  1  0.35740405  0.48246912  0.75029149  1
  Cl  Cl506  1  0.35571775  0.81738627  0.74487307  1
  Cl  Cl507  1  0.86261512  0.14575706  0.75240488  1
  Cl  Cl508  1  0.86012832  0.48027038  0.75088722  1
  Cl  Cl509  1  0.85858140  0.81421807  0.74699310  1
  Cl  Cl510  1  0.14095276  0.18737276  0.25143194  1
  Cl  Cl511  1  0.13861212  0.51977571  0.25307107  1
  Cl  Cl512  1  0.13378458  0.85645305  0.24737442  1
  Cl  Cl513  1  0.64704968  0.18690953  0.24899749  1
  Cl  Cl514  1  0.64295294  0.51800049  0.25031506  1
  Cl  Cl515  1  0.63819804  0.85307085  0.24693696  1
  Cl  Cl516  1  0.13766743  0.14793929  0.75018892  1
  Cl  Cl517  1  0.13846787  0.48092364  0.74894955  1
  Cl  Cl518  1  0.13622568  0.81363140  0.74925690  1
  Cl  Cl519  1  0.64007181  0.14814782  0.74779816  1
  Cl  Cl520  1  0.63761976  0.48261070  0.74725746  1
  Cl  Cl521  1  0.63760124  0.81130077  0.74474446  1
  Cl  Cl522  1  0.36340064  0.18795361  0.24821520  1
  Cl  Cl523  1  0.35977525  0.51896906  0.25421682  1
  Cl  Cl524  1  0.35614223  0.85211335  0.24712697  1
  Cl  Cl525  1  0.86602598  0.18731048  0.24735280  1
  Cl  Cl526  1  0.86445759  0.51977482  0.24702260  1
  Cl  Cl527  1  0.86099048  0.85225167  0.25195139  1
  Cl  Cl528  1  0.10789869  0.31533032  0.75328869  1
  Cl  Cl529  1  0.11234395  0.64581149  0.74715892  1
  Cl  Cl530  1  0.10845332  0.97995501  0.75187956  1
  Cl  Cl531  1  0.61057524  0.31232035  0.74865101  1
  Cl  Cl532  1  0.61239178  0.64556257  0.74645375  1
  Cl  Cl533  1  0.61087398  0.97903710  0.74210055  1
  Cl  Cl534  1  0.38953829  0.02166794  0.25317493  1
  Cl  Cl535  1  0.38858772  0.35445216  0.24296794  1
  Cl  Cl536  1  0.38857906  0.68454009  0.25508063  1
  Cl  Cl537  1  0.89813060  0.01862836  0.24866988  1
  Cl  Cl538  1  0.89382912  0.35352355  0.25115731  1
  Cl  Cl539  1  0.88908325  0.68555665  0.25502540  1
  Cl  Cl540  1  0.38874011  0.31378514  0.75402153  1
  Cl  Cl541  1  0.38946401  0.64990734  0.74934676  1
  Cl  Cl542  1  0.38926317  0.98167254  0.74878979  1
  Cl  Cl543  1  0.88514901  0.31274816  0.75402098  1
  Cl  Cl544  1  0.89310732  0.64902547  0.75164541  1
  Cl  Cl545  1  0.88906185  0.98147514  0.75049023  1
  Cl  Cl546  1  0.11951074  0.02219345  0.25283213  1
  Cl  Cl547  1  0.11386040  0.35410146  0.24564348  1
  Cl  Cl548  1  0.11278328  0.68814413  0.24769036  1
  Cl  Cl549  1  0.61216400  0.02021565  0.25559157  1
  Cl  Cl550  1  0.61088358  0.35188937  0.25010336  1
  Cl  Cl551  1  0.60977567  0.68651381  0.25398799  1
