# generated using pymatgen
data_H8PbC4(N3Cl2)2
_symmetry_space_group_name_H-M   'P 1'
_cell_length_a   16.62556635
_cell_length_b   22.51218342
_cell_length_c   21.59281952
_cell_angle_alpha   89.99966641
_cell_angle_beta   90.01150720
_cell_angle_gamma   90.00048089
_symmetry_Int_Tables_number   1
_chemical_formula_structural   H8PbC4(N3Cl2)2
_chemical_formula_sum   'H192 Pb24 C96 N144 Cl96'
_cell_volume   8081.71280457
_cell_formula_units_Z   24
loop_
 _symmetry_equiv_pos_site_id
 _symmetry_equiv_pos_as_xyz
  1  'x, y, z'
loop_
 _atom_site_type_symbol
 _atom_site_label
 _atom_site_symmetry_multiplicity
 _atom_site_fract_x
 _atom_site_fract_y
 _atom_site_fract_z
 _atom_site_occupancy
  H  H0  1  0.00223552  0.02828853  0.67707427  1
  H  H1  1  0.00564101  0.36151157  0.67865930  1
  H  H2  1  0.00181427  0.69548947  0.67489129  1
  H  H3  1  0.50088319  0.02870288  0.67775611  1
  H  H4  1  0.51091762  0.36450298  0.67391250  1
  H  H5  1  0.50409612  0.69677299  0.67866298  1
  H  H6  1  0.00673327  0.30355142  0.18313795  1
  H  H7  1  0.00772888  0.63630224  0.18093323  1
  H  H8  1  0.00953854  0.96976973  0.18082851  1
  H  H9  1  0.50079459  0.30337227  0.17872652  1
  H  H10  1  0.48767398  0.63656326  0.17586548  1
  H  H11  1  0.49846489  0.96711015  0.17848863  1
  H  H12  1  -0.01588353  0.03053583  0.82088263  1
  H  H13  1  -0.01487274  0.36287233  0.82204929  1
  H  H14  1  -0.00316612  0.69897624  0.82064899  1
  H  H15  1  0.51906180  0.02831415  0.82133584  1
  H  H16  1  0.51778640  0.36238394  0.82039740  1
  H  H17  1  0.49653493  0.69827791  0.82174415  1
  H  H18  1  0.00946515  0.30128407  0.32691549  1
  H  H19  1  0.00528001  0.63659460  0.32437509  1
  H  H20  1  0.01016675  0.96835281  0.32223009  1
  H  H21  1  0.50737247  0.30513540  0.32109311  1
  H  H22  1  0.49685590  0.63410336  0.32029567  1
  H  H23  1  0.49445647  0.97369729  0.32247380  1
  H  H24  1  0.25640732  0.19771626  0.68134650  1
  H  H25  1  0.25603134  0.52964764  0.67627516  1
  H  H26  1  0.25083642  0.86378872  0.67882652  1
  H  H27  1  0.74119421  0.19100883  0.67561706  1
  H  H28  1  0.74360429  0.53077613  0.67912636  1
  H  H29  1  0.73637612  0.86590378  0.68113489  1
  H  H30  1  0.25341753  0.13528524  0.17612534  1
  H  H31  1  0.26054026  0.46752276  0.18026781  1
  H  H32  1  0.25355971  0.80421510  0.18074938  1
  H  H33  1  0.74494869  0.13928965  0.18164166  1
  H  H34  1  0.74807480  0.47023302  0.18415010  1
  H  H35  1  0.74829628  0.79969268  0.18042015  1
  H  H36  1  0.24671269  0.19496834  0.82212332  1
  H  H37  1  0.25976264  0.53013381  0.81728239  1
  H  H38  1  0.25347476  0.86443936  0.82194502  1
  H  H39  1  0.76164891  0.19965457  0.81804691  1
  H  H40  1  0.75015663  0.53059764  0.82352098  1
  H  H41  1  0.75781345  0.86312109  0.82077091  1
  H  H42  1  0.24379931  0.13622595  0.31883210  1
  H  H43  1  0.24727293  0.47265814  0.32268487  1
  H  H44  1  0.24791802  0.80204212  0.32321474  1
  H  H45  1  0.75570273  0.13587303  0.32056785  1
  H  H46  1  0.75350534  0.47082915  0.31922871  1
  H  H47  1  0.74374905  0.80738203  0.32335644  1
  H  H48  1  0.11537656  0.05492870  0.59730560  1
  H  H49  1  0.12521918  0.38859183  0.60333760  1
  H  H50  1  0.11891318  0.72153802  0.59987206  1
  H  H51  1  0.61780838  0.05792330  0.60249406  1
  H  H52  1  0.61787063  0.39383660  0.59291755  1
  H  H53  1  0.61209988  0.72411333  0.59609633  1
  H  H54  1  0.37150585  0.27903270  0.11303811  1
  H  H55  1  0.38705791  0.60529499  0.08981995  1
  H  H56  1  0.37699263  0.94596255  0.10402096  1
  H  H57  1  0.87571525  0.28016847  0.11752453  1
  H  H58  1  0.87842672  0.61551768  0.11629494  1
  H  H59  1  0.87803718  0.94668926  0.11513070  1
  H  H60  1  0.37542799  0.04644225  0.86706863  1
  H  H61  1  0.37747344  0.38196396  0.87409484  1
  H  H62  1  0.38482206  0.72637304  0.90274864  1
  H  H63  1  0.88250651  0.05788572  0.90769416  1
  H  H64  1  0.88295736  0.39354308  0.90774351  1
  H  H65  1  0.88405028  0.72201271  0.89951797  1
  H  H66  1  0.11652324  0.27536146  0.40899043  1
  H  H67  1  0.11588889  0.60873720  0.40507912  1
  H  H68  1  0.13059630  0.94274978  0.39551097  1
  H  H69  1  0.61365512  0.27372835  0.40499374  1
  H  H70  1  0.61250433  0.61126435  0.39627763  1
  H  H71  1  0.62953918  0.94884216  0.38120642  1
  H  H72  1  0.37772256  0.22334315  0.60806316  1
  H  H73  1  0.37995017  0.55403904  0.60601660  1
  H  H74  1  0.36571378  0.88916155  0.60318210  1
  H  H75  1  0.88161782  0.21462955  0.62419094  1
  H  H76  1  0.88315172  0.55127049  0.62425573  1
  H  H77  1  0.86898444  0.88561398  0.61612290  1
  H  H78  1  0.12408081  0.11435047  0.11370508  1
  H  H79  1  0.12330999  0.44860636  0.12261133  1
  H  H80  1  0.11629219  0.78238173  0.12286810  1
  H  H81  1  0.62487897  0.11151382  0.10725282  1
  H  H82  1  0.62343807  0.44669555  0.11555479  1
  H  H83  1  0.61614490  0.78051449  0.11699687  1
  H  H84  1  0.13285805  0.22200669  0.90118533  1
  H  H85  1  0.12194120  0.55025461  0.87527116  1
  H  H86  1  0.12553100  0.88766922  0.88977094  1
  H  H87  1  0.62749256  0.21899588  0.87806073  1
  H  H88  1  0.62029643  0.55502122  0.88813578  1
  H  H89  1  0.62586267  0.88418875  0.88433054  1
  H  H90  1  0.38115632  0.11773185  0.37408291  1
  H  H91  1  0.38084414  0.45056359  0.38313986  1
  H  H92  1  0.38357209  0.77890724  0.38097776  1
  H  H93  1  0.87714930  0.11147076  0.39593408  1
  H  H94  1  0.87637092  0.44329260  0.39018062  1
  H  H95  1  0.88219110  0.78313144  0.37712500  1
  H  H96  1  0.36888170  0.28416668  0.37685384  1
  H  H97  1  0.36375820  0.61328522  0.38188861  1
  H  H98  1  0.38252438  0.94291047  0.40235337  1
  H  H99  1  0.87201491  0.28332704  0.37901597  1
  H  H100  1  0.86904532  0.61518537  0.38183046  1
  H  H101  1  0.88175752  0.94857078  0.38635678  1
  H  H102  1  0.12653969  0.04796773  0.87279995  1
  H  H103  1  0.12647381  0.38091819  0.87185008  1
  H  H104  1  0.13201505  0.72093371  0.88096566  1
  H  H105  1  0.61720596  0.06029239  0.90966999  1
  H  H106  1  0.62147438  0.39285164  0.90597925  1
  H  H107  1  0.63166293  0.71827589  0.88259528  1
  H  H108  1  0.12463178  0.27786093  0.10789172  1
  H  H109  1  0.12748040  0.61026958  0.10857008  1
  H  H110  1  0.12564572  0.94524513  0.10180626  1
  H  H111  1  0.62080792  0.27761987  0.10610424  1
  H  H112  1  0.63045184  0.61919044  0.12703479  1
  H  H113  1  0.62548348  0.94311825  0.10911203  1
  H  H114  1  0.36952112  0.05177871  0.61418591  1
  H  H115  1  0.37251297  0.38567034  0.61905315  1
  H  H116  1  0.36503063  0.71610915  0.62277731  1
  H  H117  1  0.86771052  0.05317745  0.61917689  1
  H  H118  1  0.87696469  0.38553480  0.61203748  1
  H  H119  1  0.87088743  0.72107472  0.61182307  1
  H  H120  1  0.13409493  0.11107894  0.39978728  1
  H  H121  1  0.13320832  0.44280841  0.40045653  1
  H  H122  1  0.13671445  0.77620232  0.40462342  1
  H  H123  1  0.62867158  0.11237286  0.38988432  1
  H  H124  1  0.62734917  0.44682211  0.38885759  1
  H  H125  1  0.63818105  0.77589059  0.40688268  1
  H  H126  1  0.38015364  0.21710548  0.88212409  1
  H  H127  1  0.36830844  0.55636531  0.89977059  1
  H  H128  1  0.37438297  0.88981443  0.89449948  1
  H  H129  1  0.87562731  0.22168996  0.89577205  1
  H  H130  1  0.86874624  0.55668917  0.89757669  1
  H  H131  1  0.87345455  0.88848413  0.89965639  1
  H  H132  1  0.37266933  0.10997766  0.10116953  1
  H  H133  1  0.37102164  0.44345031  0.10022213  1
  H  H134  1  0.36324378  0.77742889  0.09935832  1
  H  H135  1  0.87398614  0.11361126  0.11786810  1
  H  H136  1  0.87306266  0.44774014  0.11575869  1
  H  H137  1  0.86474987  0.77780409  0.10526920  1
  H  H138  1  0.12873138  0.21864868  0.61161736  1
  H  H139  1  0.13089076  0.55461327  0.60651875  1
  H  H140  1  0.11717581  0.88252576  0.61703449  1
  H  H141  1  0.63610274  0.22475045  0.59298229  1
  H  H142  1  0.63655288  0.55519155  0.59612016  1
  H  H143  1  0.62139646  0.89139538  0.60080890  1
  H  H144  1  0.11542644  0.41433043  0.98588462  1
  H  H145  1  0.07804641  0.58114410  -0.00000080  1
  H  H146  1  0.80843582  0.91698774  1.00093991  1
  H  H147  1  0.88844122  0.25258766  0.49516467  1
  H  H148  1  0.54126119  0.41636956  1.00460865  1
  H  H149  1  0.53434390  0.07921788  1.00693736  1
  H  H150  1  0.36212769  0.08868247  0.48811335  1
  H  H151  1  0.91313026  0.58553413  0.00488548  1
  H  H152  1  0.06574482  0.41684311  0.50081580  1
  H  H153  1  0.53697674  0.24792701  0.50397237  1
  H  H154  1  0.71301018  0.24821603  0.49236698  1
  H  H155  1  0.70721149  0.58202117  0.49070069  1
  H  H156  1  0.90844074  0.75124988  0.50508057  1
  H  H157  1  0.96196527  0.08281000  1.00983006  1
  H  H158  1  0.04768223  0.08450096  0.49613368  1
  H  H159  1  0.82487045  0.41351142  0.49807415  1
  H  H160  1  0.40905365  0.25118907  0.00667245  1
  H  H161  1  0.30682054  0.41462916  -0.00664386  1
  H  H162  1  0.94764846  0.75032776  1.00744472  1
  H  H163  1  0.45447968  0.91756012  0.50357280  1
  H  H164  1  0.54215764  0.75120089  0.49135782  1
  H  H165  1  0.55371515  0.58083531  0.50560118  1
  H  H166  1  0.46691608  0.58143061  -0.00846419  1
  H  H167  1  0.71532615  0.75166619  0.50671508  1
  H  H168  1  0.57088125  0.24833097  -0.00260526  1
  H  H169  1  0.20027458  0.08260034  0.50574594  1
  H  H170  1  0.66859479  0.41932209  0.00355581  1
  H  H171  1  0.57821919  0.91231679  0.00551087  1
  H  H172  1  0.10196955  0.74984341  0.98863134  1
  H  H173  1  0.38034036  0.07962290  0.97989456  1
  H  H174  1  0.96122465  0.41194008  1.00741443  1
  H  H175  1  0.65708867  0.58441065  0.99561441  1
  H  H176  1  0.82837473  0.42246732  0.00293633  1
  H  H177  1  0.80762156  0.75120560  -0.00581122  1
  H  H178  1  0.06638894  0.24776396  0.00126458  1
  H  H179  1  0.81658042  0.25204884  1.00333095  1
  H  H180  1  0.68198834  0.09484736  0.00127425  1
  H  H181  1  0.91857091  0.91697536  0.49929456  1
  H  H182  1  0.38554725  0.74468007  0.51257269  1
  H  H183  1  0.39347841  0.41674715  0.51019197  1
  H  H184  1  0.83469499  0.08596059  0.00533147  1
  H  H185  1  0.86301200  0.57863551  0.51371324  1
  H  H186  1  0.15804363  0.08336103  1.00081347  1
  H  H187  1  0.30651421  0.91841258  0.49367261  1
  H  H188  1  0.45527900  0.75434366  1.00303321  1
  H  H189  1  0.32480746  0.25067084  0.50042832  1
  H  H190  1  0.29750560  0.58258408  1.00419243  1
  H  H191  1  0.29393073  0.75058775  -0.00555083  1
  Pb  Pb192  1  0.24838633  0.04532257  0.74220630  1
  Pb  Pb193  1  0.24896407  0.37930339  0.74609665  1
  Pb  Pb194  1  0.24627202  0.71462490  0.75431477  1
  Pb  Pb195  1  0.74872560  0.04809567  0.76196940  1
  Pb  Pb196  1  0.75012681  0.38065451  0.75392100  1
  Pb  Pb197  1  0.74987879  0.71257790  0.74572843  1
  Pb  Pb198  1  0.24427621  0.28430917  0.25236890  1
  Pb  Pb199  1  0.24787589  0.62001851  0.24394872  1
  Pb  Pb200  1  0.25086617  0.95328233  0.25052398  1
  Pb  Pb201  1  0.74601382  0.28724426  0.25478015  1
  Pb  Pb202  1  0.74885768  0.62036601  0.25286577  1
  Pb  Pb203  1  0.74960859  0.95282654  0.24345778  1
  Pb  Pb204  1  0.00135605  0.21233279  0.75719787  1
  Pb  Pb205  1  -0.00028167  0.54644762  0.75323353  1
  Pb  Pb206  1  -0.00333715  0.88023205  0.75273295  1
  Pb  Pb207  1  0.49983246  0.21346292  0.74159327  1
  Pb  Pb208  1  0.49845341  0.54813187  0.74947648  1
  Pb  Pb209  1  0.49954997  0.87971090  0.74635013  1
  Pb  Pb210  1  -0.00449383  0.11815115  0.25769156  1
  Pb  Pb211  1  -0.00167848  0.45313467  0.25328147  1
  Pb  Pb212  1  0.00002964  0.78713068  0.25278928  1
  Pb  Pb213  1  0.50005607  0.11956345  0.24080549  1
  Pb  Pb214  1  0.49622914  0.45306927  0.24632695  1
  Pb  Pb215  1  0.49919228  0.78622317  0.24928291  1
  C  C216  1  -0.00463727  0.04432096  0.63012051  1
  C  C217  1  0.00304221  0.37766148  0.63141343  1
  C  C218  1  -0.00334729  0.71205265  0.62801029  1
  C  C219  1  0.49616182  0.04563170  0.63108491  1
  C  C220  1  0.49994301  0.38070809  0.62738626  1
  C  C221  1  0.49299769  0.71209796  0.63158878  1
  C  C222  1  0.00204369  0.28746714  0.13591451  1
  C  C223  1  0.00446803  0.62048161  0.13347037  1
  C  C224  1  0.00431653  0.95420069  0.13342762  1
  C  C225  1  0.49723492  0.28673033  0.13147509  1
  C  C226  1  0.50169035  0.62118260  0.12943880  1
  C  C227  1  0.50073434  0.95156136  0.13093969  1
  C  C228  1  -0.00216365  0.04521052  0.86758098  1
  C  C229  1  -0.00194939  0.37792465  0.86895039  1
  C  C230  1  0.00502243  0.71415102  0.86807385  1
  C  C231  1  0.50399948  0.04381509  0.86759398  1
  C  C232  1  0.50612365  0.37815427  0.86699525  1
  C  C233  1  0.50414705  0.71380782  0.86896492  1
  C  C234  1  -0.00160794  0.28670086  0.37395412  1
  C  C235  1  -0.00331382  0.62043050  0.37107417  1
  C  C236  1  0.00685780  0.95329620  0.36973764  1
  C  C237  1  0.49689400  0.28906481  0.36776642  1
  C  C238  1  0.49124437  0.61963761  0.36793926  1
  C  C239  1  0.50168783  0.95642082  0.36899412  1
  C  C240  1  0.25432231  0.21343176  0.63388640  1
  C  C241  1  0.25551910  0.54604712  0.62925819  1
  C  C242  1  0.24480688  0.87853882  0.63132937  1
  C  C243  1  0.75255367  0.20865006  0.62972962  1
  C  C244  1  0.75518779  0.54601432  0.63208853  1
  C  C245  1  0.74203085  0.88045207  0.63340951  1
  C  C246  1  0.24942510  0.12018575  0.12863959  1
  C  C247  1  0.25190008  0.45365054  0.13260833  1
  C  C248  1  0.24396481  0.78864366  0.13372731  1
  C  C249  1  0.74730537  0.12286622  0.13431373  1
  C  C250  1  0.74816455  0.45522088  0.13634346  1
  C  C251  1  0.74323636  0.78627805  0.13241728  1
  C  C252  1  0.25321200  0.21087402  0.86910331  1
  C  C253  1  0.24956557  0.54520001  0.86436869  1
  C  C254  1  0.25087603  0.88032354  0.86910769  1
  C  C255  1  0.75508844  0.21366396  0.86579970  1
  C  C256  1  0.74583724  0.54699210  0.87060553  1
  C  C257  1  0.75265984  0.87872851  0.86812828  1
  C  C258  1  0.25349866  0.12169682  0.36625996  1
  C  C259  1  0.25367262  0.45603665  0.36943570  1
  C  C260  1  0.25607008  0.78621269  0.37010807  1
  C  C261  1  0.75401833  0.12029042  0.36806819  1
  C  C262  1  0.75239469  0.45391335  0.36624328  1
  C  C263  1  0.75448534  0.79001773  0.36946384  1
  C  C264  1  0.30407810  0.23869141  0.95833524  1
  C  C265  1  0.02951255  0.74375714  0.53386389  1
  C  C266  1  0.78031600  0.57744686  0.96512807  1
  C  C267  1  0.28392704  0.09312283  0.03397637  1
  C  C268  1  0.73572032  0.57235977  0.53502210  1
  C  C269  1  0.93916502  0.07566887  0.54266510  1
  C  C270  1  0.43832382  0.59367985  0.45783174  1
  C  C271  1  0.19345288  0.42938792  0.04438946  1
  C  C272  1  0.95740872  0.59491467  0.04123032  1
  C  C273  1  0.27405016  0.42659220  0.03508715  1
  C  C274  1  0.51962173  0.59243005  0.46429335  1
  C  C275  1  0.51297340  0.74020902  0.53511451  1
  C  C276  1  0.03117996  0.25946419  0.04195472  1
  C  C277  1  0.94367717  0.59202786  0.45877345  1
  C  C278  1  0.29229457  0.57608381  0.53745149  1
  C  C279  1  0.52079995  0.41323785  0.53133056  1
  C  C280  1  0.28412413  0.91130551  0.96132071  1
  C  C281  1  0.26380091  0.76135982  0.03787550  1
  C  C282  1  0.77285342  0.76143210  0.03556337  1
  C  C283  1  0.01849334  0.25858013  0.47042253  1
  C  C284  1  0.44964446  0.07558154  0.54159791  1
  C  C285  1  0.96114662  0.92673117  0.46242989  1
  C  C286  1  0.26779885  0.57210044  0.96042959  1
  C  C287  1  0.30848658  0.75900302  0.45843287  1
  C  C288  1  0.79440324  0.09495253  0.04385501  1
  C  C289  1  0.23143299  0.09465558  0.46324446  1
  C  C290  1  0.04276488  0.92489301  0.46380718  1
  C  C291  1  0.69151980  0.76268019  0.04145448  1
  C  C292  1  0.98732704  0.07254869  0.96445622  1
  C  C293  1  0.70072104  0.23891456  0.95513615  1
  C  C294  1  0.27252329  0.90636155  0.53491246  1
  C  C295  1  0.28732733  0.24019992  0.54012625  1
  C  C296  1  0.06433808  0.40517205  0.95258204  1
  C  C297  1  0.97849915  0.74096841  0.96407556  1
  C  C298  1  0.03952644  0.59284107  0.03871753  1
  C  C299  1  0.93789757  0.26138478  0.46185421  1
  C  C300  1  0.53242139  0.25857004  0.03747496  1
  C  C301  1  0.78166348  0.24051506  0.96254660  1
  C  C302  1  0.78704484  0.42532984  0.45897190  1
  C  C303  1  0.19140487  0.90358187  0.54146553  1
  C  C304  1  0.43362821  0.07147152  0.94906898  1
  C  C305  1  0.30392228  0.42843632  0.45860408  1
  C  C306  1  0.31288973  0.09701947  0.45445412  1
  C  C307  1  0.81616793  0.23948517  0.54575811  1
  C  C308  1  0.20230851  0.09377212  0.03655861  1
  C  C309  1  0.70738880  0.42993042  0.04252332  1
  C  C310  1  0.78942333  0.43123010  0.04229784  1
  C  C311  1  0.56985972  0.59540162  0.04563362  1
  N  N312  1  0.23158641  0.75799199  0.46713316  1
  N  N313  1  0.51810158  0.40938428  0.96088282  1
  N  N314  1  0.48116010  0.92327162  0.46092053  1
  N  N315  1  0.52687764  0.07787326  0.53625847  1
  N  N316  1  0.06468354  0.07055438  0.95226379  1
  N  N317  1  0.95439051  0.40559019  0.54093851  1
  N  N318  1  0.77758667  0.90412741  0.96200675  1
  N  N319  1  0.70143325  0.57594332  0.96073813  1
  N  N320  1  0.21500111  0.57654173  0.53633312  1
  N  N321  1  0.43467229  0.26045886  0.45279532  1
  N  N322  1  0.71473055  0.09400528  0.04143889  1
  N  N323  1  0.98606284  0.40910740  0.96392803  1
  N  N324  1  0.44108513  0.40513729  0.95128416  1
  N  N325  1  0.73827341  0.24245410  0.53593347  1
  N  N326  1  0.46177628  0.92635037  0.03669733  1
  N  N327  1  0.18930597  0.57078667  0.95217375  1
  N  N328  1  0.70774325  0.42674004  0.45911003  1
  N  N329  1  0.71506485  0.90788083  0.53767626  1
  N  N330  1  0.22677632  0.24090188  0.96536612  1
  N  N331  1  0.03310249  0.92584462  0.03818904  1
  N  N332  1  0.44296832  0.40929560  0.54140277  1
  N  N333  1  0.20677358  0.91074482  0.96108593  1
  N  N334  1  0.51132345  0.07636861  0.96253086  1
  N  N335  1  0.05732294  0.74121512  0.95598025  1
  N  N336  1  0.71225083  0.09296730  0.46063536  1
  N  N337  1  0.55874881  0.92566068  0.45537795  1
  N  N338  1  0.56103022  0.74009615  0.95714259  1
  N  N339  1  0.43452804  0.73782859  0.54532389  1
  N  N340  1  0.81696475  0.76101788  0.45412942  1
  N  N341  1  0.01757655  0.07559441  0.53656992  1
  N  N342  1  0.79131420  0.90661666  0.54275307  1
  N  N343  1  0.03251800  0.40735699  0.53953755  1
  N  N344  1  0.22673528  0.42506491  0.46542272  1
  N  N345  1  0.02052076  0.58951785  0.46740204  1
  N  N346  1  0.45269014  0.25854801  0.04114128  1
  N  N347  1  0.53996820  0.92579947  0.04003669  1
  N  N348  1  0.51185200  0.25635143  0.46073046  1
  N  N349  1  0.69945160  0.90326615  0.95830436  1
  N  N350  1  0.18526868  0.76270350  0.04568633  1
  N  N351  1  0.49249213  0.59057213  0.03410767  1
  N  N352  1  0.95088261  0.74285183  0.53913484  1
  N  N353  1  0.81408150  0.57212329  0.54612892  1
  N  N354  1  0.95185083  0.26069496  0.04474891  1
  N  N355  1  0.48346278  0.74284171  0.96243785  1
  N  N356  1  0.78846591  0.09269516  0.46229695  1
  N  N357  1  0.95677649  0.92648533  0.04244392  1
  N  N358  1  0.20813473  0.23898302  0.54095231  1
  N  N359  1  0.73979086  0.75817798  0.46291878  1
  N  N360  1  0.05338911  0.05448553  0.58961445  1
  N  N361  1  0.06373482  0.38889719  0.59370760  1
  N  N362  1  0.05815381  0.72489855  0.58875770  1
  N  N363  1  0.55606410  0.05857683  0.59335923  1
  N  N364  1  0.55653092  0.39544220  0.58454315  1
  N  N365  1  0.54978181  0.72454498  0.58874367  1
  N  N366  1  0.43154256  0.27666994  0.09885466  1
  N  N367  1  0.44950549  0.60856861  0.08532962  1
  N  N368  1  0.43804177  0.94298749  0.09355806  1
  N  N369  1  0.93558115  0.27769701  0.10362914  1
  N  N370  1  0.93737052  0.61185977  0.10052209  1
  N  N371  1  0.93779522  0.94347033  0.10168363  1
  N  N372  1  0.42960113  0.05338540  0.88970108  1
  N  N373  1  0.43446209  0.38791795  0.89243596  1
  N  N374  1  0.44702193  0.72628778  0.90955783  1
  N  N375  1  0.94453064  0.05739290  0.91256997  1
  N  N376  1  0.94500182  0.38882976  0.91326198  1
  N  N377  1  0.94554222  0.72444480  0.90944715  1
  N  N378  1  0.05487558  0.27377961  0.41755945  1
  N  N379  1  0.05351650  0.60785764  0.41167464  1
  N  N380  1  0.07016522  0.94092860  0.40785469  1
  N  N381  1  0.55116173  0.27643623  0.41046940  1
  N  N382  1  0.55162584  0.60898491  0.40723811  1
  N  N383  1  0.57095834  0.94448163  0.39726904  1
  N  N384  1  0.31729030  0.22494502  0.59697912  1
  N  N385  1  0.32020614  0.55785943  0.59351046  1
  N  N386  1  0.30485192  0.89050445  0.59219221  1
  N  N387  1  0.82530755  0.22053354  0.60443271  1
  N  N388  1  0.82560358  0.55582702  0.60583977  1
  N  N389  1  0.80930552  0.88992182  0.60207953  1
  N  N390  1  0.18219988  0.11083746  0.09648117  1
  N  N391  1  0.18029543  0.44541337  0.10342228  1
  N  N392  1  0.17442363  0.77988580  0.10553522  1
  N  N393  1  0.68588697  0.11485135  0.09625199  1
  N  N394  1  0.68306640  0.44480697  0.10133871  1
  N  N395  1  0.67426271  0.77741340  0.10000513  1
  N  N396  1  0.19500803  0.22319096  0.90857499  1
  N  N397  1  0.17977472  0.55404660  0.89233946  1
  N  N398  1  0.18578210  0.89133437  0.90228373  1
  N  N399  1  0.68506965  0.22303787  0.89653320  1
  N  N400  1  0.67965979  0.55689335  0.90261115  1
  N  N401  1  0.68490631  0.88722795  0.89961667  1
  N  N402  1  0.32464127  0.11342204  0.39387203  1
  N  N403  1  0.32277452  0.44644735  0.40001267  1
  N  N404  1  0.32628968  0.77564034  0.39901106  1
  N  N405  1  0.81593656  0.10985794  0.40514680  1
  N  N406  1  0.81607851  0.44154503  0.40215686  1
  N  N407  1  0.82532903  0.77884703  0.39529078  1
  N  N408  1  0.42605745  0.27894496  0.39428318  1
  N  N409  1  0.42190563  0.60977286  0.39943597  1
  N  N410  1  0.44462060  0.94438442  0.40977693  1
  N  N411  1  0.92689408  0.27877901  0.40046286  1
  N  N412  1  0.92625256  0.61021943  0.39974240  1
  N  N413  1  0.94018532  0.94437374  0.40274997  1
  N  N414  1  0.06966572  0.05353351  0.89215625  1
  N  N415  1  0.07138953  0.38752869  0.89325142  1
  N  N416  1  0.07349732  0.72453408  0.89700323  1
  N  N417  1  0.55486236  0.05530180  0.91323693  1
  N  N418  1  0.55940149  0.39016445  0.91080508  1
  N  N419  1  0.57342318  0.72258312  0.89856289  1
  N  N420  1  0.06345115  0.27563790  0.09750843  1
  N  N421  1  0.06736034  0.60861130  0.09636192  1
  N  N422  1  0.06389210  0.94317003  0.09423601  1
  N  N423  1  0.56023150  0.27523593  0.09390058  1
  N  N424  1  0.57580046  0.61296473  0.10511975  1
  N  N425  1  0.56514348  0.93917983  0.09742638  1
  N  N426  1  0.42809684  0.05656943  0.59918515  1
  N  N427  1  0.42975910  0.38893859  0.60043279  1
  N  N428  1  0.42269674  0.72010980  0.60444030  1
  N  N429  1  0.92506224  0.05682411  0.60073055  1
  N  N430  1  0.93676203  0.38826931  0.59855965  1
  N  N431  1  0.92975898  0.72258705  0.59698614  1
  N  N432  1  0.19579047  0.11005299  0.40808466  1
  N  N433  1  0.19529995  0.44289904  0.40847875  1
  N  N434  1  0.19909181  0.77541871  0.41105446  1
  N  N435  1  0.68934569  0.10968689  0.40214653  1
  N  N436  1  0.68810296  0.44433143  0.40106245  1
  N  N437  1  0.70037183  0.77803426  0.41253782  1
  N  N438  1  0.32231384  0.22060422  0.89960865  1
  N  N439  1  0.30619691  0.55679843  0.90689461  1
  N  N440  1  0.31411150  0.89279869  0.90614764  1
  N  N441  1  0.81464739  0.22453324  0.90568446  1
  N  N442  1  0.80793731  0.55964267  0.90927128  1
  N  N443  1  0.81151814  0.89039838  0.90741830  1
  N  N444  1  0.31198880  0.10897870  0.08999374  1
  N  N445  1  0.30950851  0.44216591  0.09145050  1
  N  N446  1  0.30114351  0.77674580  0.09168780  1
  N  N447  1  0.81475181  0.11092568  0.10193145  1
  N  N448  1  0.81344447  0.44693932  0.10086277  1
  N  N449  1  0.80400449  0.77639292  0.09338865  1
  N  N450  1  0.18946318  0.22250968  0.59947209  1
  N  N451  1  0.19175724  0.55747509  0.59474941  1
  N  N452  1  0.17523471  0.88703595  0.59969374  1
  N  N453  1  0.69815505  0.22030000  0.58685189  1
  N  N454  1  0.69859346  0.55680634  0.58847049  1
  N  N455  1  0.68312917  0.89160999  0.59367097  1
  Cl  Cl456  1  0.23897177  0.05384634  0.60751656  1
  Cl  Cl457  1  0.24735463  0.38917704  0.61493774  1
  Cl  Cl458  1  0.24042200  0.71658864  0.62431067  1
  Cl  Cl459  1  0.74112070  0.05692486  0.63086977  1
  Cl  Cl460  1  0.74908851  0.38727188  0.61990897  1
  Cl  Cl461  1  0.73587489  0.72502203  0.60273304  1
  Cl  Cl462  1  0.24860854  0.28009871  0.12075930  1
  Cl  Cl463  1  0.26453017  0.60802241  0.10804476  1
  Cl  Cl464  1  0.25248849  0.94752006  0.11810525  1
  Cl  Cl465  1  0.74743427  0.27900700  0.12292750  1
  Cl  Cl466  1  0.75525280  0.61533790  0.12112208  1
  Cl  Cl467  1  0.75177650  0.94503393  0.10591501  1
  Cl  Cl468  1  0.25113459  0.04696780  0.87135017  1
  Cl  Cl469  1  0.25339624  0.38124705  0.87797350  1
  Cl  Cl470  1  0.26241804  0.72388665  0.89106488  1
  Cl  Cl471  1  0.74526987  0.06098673  0.90319153  1
  Cl  Cl472  1  0.75109034  0.39539952  0.89268828  1
  Cl  Cl473  1  0.76128715  0.71796356  0.87929497  1
  Cl  Cl474  1  0.23993208  0.27923969  0.38479635  1
  Cl  Cl475  1  0.23705685  0.61265985  0.37478200  1
  Cl  Cl476  1  0.26007682  0.94147779  0.38590128  1
  Cl  Cl477  1  0.73177404  0.27070538  0.39553743  1
  Cl  Cl478  1  0.73903103  0.61272263  0.38843835  1
  Cl  Cl479  1  0.75318160  0.94714872  0.37119739  1
  Cl  Cl480  1  0.00642562  0.21318775  0.62400526  1
  Cl  Cl481  1  0.00794300  0.55080420  0.62264441  1
  Cl  Cl482  1  -0.00744499  0.88347754  0.61852729  1
  Cl  Cl483  1  0.51299232  0.22966190  0.60176328  1
  Cl  Cl484  1  0.51216751  0.55270639  0.61586045  1
  Cl  Cl485  1  0.49303319  0.89186776  0.60699377  1
  Cl  Cl486  1  -0.00498728  0.11257911  0.12290608  1
  Cl  Cl487  1  -0.00484922  0.43719463  0.11582234  1
  Cl  Cl488  1  -0.01133373  0.77522057  0.11749348  1
  Cl  Cl489  1  0.50179028  0.10527435  0.10127717  1
  Cl  Cl490  1  0.49882654  0.44255357  0.10745251  1
  Cl  Cl491  1  0.48555409  0.77521285  0.10898545  1
  Cl  Cl492  1  0.00702772  0.22094820  0.89130507  1
  Cl  Cl493  1  -0.00921907  0.55330762  0.88711392  1
  Cl  Cl494  1  -0.00426251  0.88390622  0.88414890  1
  Cl  Cl495  1  0.50234934  0.22134110  0.87675546  1
  Cl  Cl496  1  0.49179254  0.55936347  0.89469569  1
  Cl  Cl497  1  0.50151878  0.88726573  0.88059372  1
  Cl  Cl498  1  0.00759165  0.10832462  0.39540796  1
  Cl  Cl499  1  0.00832760  0.44114991  0.38850473  1
  Cl  Cl500  1  0.01158057  0.77693759  0.38719842  1
  Cl  Cl501  1  0.50784030  0.11702716  0.37070091  1
  Cl  Cl502  1  0.50417296  0.44588965  0.37940832  1
  Cl  Cl503  1  0.51603169  0.77523163  0.38630058  1
  Cl  Cl504  1  0.36293175  0.14518640  0.74922975  1
  Cl  Cl505  1  0.36268888  0.47917137  0.75073756  1
  Cl  Cl506  1  0.36272190  0.81227578  0.74599079  1
  Cl  Cl507  1  0.85976968  0.14870179  0.74827146  1
  Cl  Cl508  1  0.86123321  0.48186935  0.74690538  1
  Cl  Cl509  1  0.85856290  0.81477867  0.74672092  1
  Cl  Cl510  1  0.14551218  0.18408702  0.24676339  1
  Cl  Cl511  1  0.13587285  0.51880787  0.24051727  1
  Cl  Cl512  1  0.14032404  0.85147394  0.24842973  1
  Cl  Cl513  1  0.63879898  0.18513272  0.24566467  1
  Cl  Cl514  1  0.63697504  0.51974256  0.24920735  1
  Cl  Cl515  1  0.63700704  0.85268417  0.24339439  1
  Cl  Cl516  1  0.14232716  0.14766990  0.75321392  1
  Cl  Cl517  1  0.13869339  0.48045218  0.75468802  1
  Cl  Cl518  1  0.14004289  0.81280328  0.75514742  1
  Cl  Cl519  1  0.63639503  0.14842518  0.75768778  1
  Cl  Cl520  1  0.64212073  0.48401064  0.75489580  1
  Cl  Cl521  1  0.63942358  0.81401565  0.75528915  1
  Cl  Cl522  1  0.36453379  0.18805242  0.24927944  1
  Cl  Cl523  1  0.35903049  0.51914871  0.25450177  1
  Cl  Cl524  1  0.36171332  0.85127958  0.25259824  1
  Cl  Cl525  1  0.86084555  0.18811641  0.25161590  1
  Cl  Cl526  1  0.85892119  0.51850572  0.24992120  1
  Cl  Cl527  1  0.86009867  0.85173938  0.25162190  1
  Cl  Cl528  1  0.11150383  0.31393411  0.75437333  1
  Cl  Cl529  1  0.10972886  0.64800734  0.76025338  1
  Cl  Cl530  1  0.11074841  0.97963458  0.75190236  1
  Cl  Cl531  1  0.60958448  0.31543424  0.74780463  1
  Cl  Cl532  1  0.61048048  0.64856596  0.75570190  1
  Cl  Cl533  1  0.61089139  0.98072308  0.75275172  1
  Cl  Cl534  1  0.39217917  0.01760424  0.24951271  1
  Cl  Cl535  1  0.38769290  0.35272504  0.25167135  1
  Cl  Cl536  1  0.38949529  0.68435283  0.25496767  1
  Cl  Cl537  1  0.89029574  0.02120774  0.24774025  1
  Cl  Cl538  1  0.88427892  0.35326230  0.25568442  1
  Cl  Cl539  1  0.88767500  0.68622056  0.25905762  1
  Cl  Cl540  1  0.38828980  0.31417926  0.74661764  1
  Cl  Cl541  1  0.39341570  0.64554078  0.74723701  1
  Cl  Cl542  1  0.38795769  0.98037622  0.74912571  1
  Cl  Cl543  1  0.89147778  0.31488959  0.74875806  1
  Cl  Cl544  1  0.88993919  0.64833363  0.74108058  1
  Cl  Cl545  1  0.88886370  0.98302127  0.75287758  1
  Cl  Cl546  1  0.11086421  0.01910437  0.25401133  1
  Cl  Cl547  1  0.10727575  0.35039747  0.25286754  1
  Cl  Cl548  1  0.10924731  0.68570680  0.24339352  1
  Cl  Cl549  1  0.61149803  0.01843936  0.24222562  1
  Cl  Cl550  1  0.60738364  0.35209858  0.24572885  1
  Cl  Cl551  1  0.61134145  0.68593149  0.24230925  1
