# generated using pymatgen
data_H8PbC4(N3Cl2)2
_symmetry_space_group_name_H-M   'P 1'
_cell_length_a   16.62393060
_cell_length_b   22.50260977
_cell_length_c   21.58765057
_cell_angle_alpha   90.00123272
_cell_angle_beta   90.01730647
_cell_angle_gamma   90.00277114
_symmetry_Int_Tables_number   1
_chemical_formula_structural   H8PbC4(N3Cl2)2
_chemical_formula_sum   'H192 Pb24 C96 N144 Cl96'
_cell_volume   8075.54730013
_cell_formula_units_Z   24
loop_
 _symmetry_equiv_pos_site_id
 _symmetry_equiv_pos_as_xyz
  1  'x, y, z'
loop_
 _atom_site_type_symbol
 _atom_site_label
 _atom_site_symmetry_multiplicity
 _atom_site_fract_x
 _atom_site_fract_y
 _atom_site_fract_z
 _atom_site_occupancy
  H  H0  1  0.00453455  0.02975952  0.68098806  1
  H  H1  1  -0.00595433  0.36508631  0.68010286  1
  H  H2  1  -0.00259186  0.69799774  0.68023668  1
  H  H3  1  0.50533194  0.03037178  0.68310406  1
  H  H4  1  0.50109985  0.36460012  0.67752652  1
  H  H5  1  0.49739022  0.69800506  0.67866691  1
  H  H6  1  -0.00922272  0.30073684  0.18192253  1
  H  H7  1  0.01235803  0.63424099  0.18123692  1
  H  H8  1  0.00747764  0.96843276  0.17773211  1
  H  H9  1  0.50769893  0.30220548  0.17807914  1
  H  H10  1  0.48710430  0.63458847  0.17966933  1
  H  H11  1  0.50183266  0.96773837  0.17774905  1
  H  H12  1  -0.00137389  0.03106336  0.81979439  1
  H  H13  1  -0.00446442  0.36592638  0.82027949  1
  H  H14  1  -0.00436587  0.70043802  0.81950840  1
  H  H15  1  0.49960073  0.03153476  0.82008527  1
  H  H16  1  0.49423312  0.36430189  0.81834507  1
  H  H17  1  0.49647731  0.70028472  0.81945806  1
  H  H18  1  -0.00284909  0.30147505  0.31968206  1
  H  H19  1  -0.00581726  0.63616937  0.32268627  1
  H  H20  1  0.00374144  0.96621416  0.31984524  1
  H  H21  1  0.49806473  0.30169076  0.31821793  1
  H  H22  1  0.50016004  0.63685303  0.32168823  1
  H  H23  1  0.49853356  0.96778391  0.31841191  1
  H  H24  1  0.25582448  0.19975509  0.68046371  1
  H  H25  1  0.25380574  0.53385853  0.67817249  1
  H  H26  1  0.25011802  0.86602057  0.67603890  1
  H  H27  1  0.74809890  0.19991831  0.67703476  1
  H  H28  1  0.74758082  0.53354220  0.68079047  1
  H  H29  1  0.75188004  0.86391081  0.68182044  1
  H  H30  1  0.26088030  0.13602836  0.17803111  1
  H  H31  1  0.25339745  0.46727267  0.17964202  1
  H  H32  1  0.24867193  0.80014279  0.18129351  1
  H  H33  1  0.74258813  0.13267608  0.18122418  1
  H  H34  1  0.75145932  0.46804179  0.18349230  1
  H  H35  1  0.75139028  0.80190860  0.17950496  1
  H  H36  1  0.24860307  0.20050568  0.82321643  1
  H  H37  1  0.24911844  0.53820087  0.81678911  1
  H  H38  1  0.24241766  0.86605882  0.81921375  1
  H  H39  1  0.75112983  0.19891857  0.81779605  1
  H  H40  1  0.74814183  0.53224771  0.82249895  1
  H  H41  1  0.74758678  0.86598948  0.82365561  1
  H  H42  1  0.24578042  0.13370307  0.31866928  1
  H  H43  1  0.25006666  0.46796164  0.32054958  1
  H  H44  1  0.25197051  0.80290075  0.32170947  1
  H  H45  1  0.74460233  0.13642123  0.31738066  1
  H  H46  1  0.75618628  0.46809137  0.32235479  1
  H  H47  1  0.74340807  0.80055091  0.32081189  1
  H  H48  1  0.11890300  0.05505810  0.60183576  1
  H  H49  1  0.13246832  0.38484812  0.62391264  1
  H  H50  1  0.12352344  0.72162865  0.61070445  1
  H  H51  1  0.61956278  0.05677729  0.60515342  1
  H  H52  1  0.63079610  0.38656221  0.61128634  1
  H  H53  1  0.62475424  0.71914021  0.60985667  1
  H  H54  1  0.37142949  0.27935493  0.12149018  1
  H  H55  1  0.38226308  0.60859945  0.09266019  1
  H  H56  1  0.37137806  0.94675626  0.11180264  1
  H  H57  1  0.87847431  0.27615183  0.10117886  1
  H  H58  1  0.87353134  0.61580143  0.12453452  1
  H  H59  1  0.87161678  0.94885630  0.11789778  1
  H  H60  1  0.37674022  0.05566041  0.89122447  1
  H  H61  1  0.38271873  0.38888855  0.90023409  1
  H  H62  1  0.38197541  0.72265347  0.89953195  1
  H  H63  1  0.87809959  0.05461724  0.89519219  1
  H  H64  1  0.88845335  0.39015949  0.90170534  1
  H  H65  1  0.88334737  0.72510701  0.90126354  1
  H  H66  1  0.12791961  0.27982395  0.38406911  1
  H  H67  1  0.13179267  0.61674439  0.37957504  1
  H  H68  1  0.12193872  0.94366280  0.39733589  1
  H  H69  1  0.63126841  0.28127058  0.38302668  1
  H  H70  1  0.62650207  0.61341161  0.39119629  1
  H  H71  1  0.62380066  0.94420790  0.38831573  1
  H  H72  1  0.36918390  0.22446566  0.60007647  1
  H  H73  1  0.36506869  0.55685441  0.59595987  1
  H  H74  1  0.37456970  0.88556874  0.60726580  1
  H  H75  1  0.87255426  0.22006479  0.60870265  1
  H  H76  1  0.86600094  0.55569154  0.60722482  1
  H  H77  1  0.87653761  0.88625156  0.61123282  1
  H  H78  1  0.12180740  0.11574641  0.12489284  1
  H  H79  1  0.11624075  0.44728992  0.12134864  1
  H  H80  1  0.11782327  0.78147799  0.11615512  1
  H  H81  1  0.62873458  0.11032263  0.10361655  1
  H  H82  1  0.62078829  0.44741704  0.11981896  1
  H  H83  1  0.61887638  0.78144543  0.11699454  1
  H  H84  1  0.12739333  0.22121188  0.89493167  1
  H  H85  1  0.12350762  0.55387044  0.88808634  1
  H  H86  1  0.12929375  0.88913313  0.90078136  1
  H  H87  1  0.62689766  0.22230074  0.88987299  1
  H  H88  1  0.62579866  0.55293971  0.89547193  1
  H  H89  1  0.62996783  0.88995693  0.89933696  1
  H  H90  1  0.38000741  0.11375561  0.37838581  1
  H  H91  1  0.36530879  0.44600229  0.39742933  1
  H  H92  1  0.37264035  0.77844890  0.39573665  1
  H  H93  1  0.87818624  0.11541500  0.38126510  1
  H  H94  1  0.86238624  0.44031799  0.40607427  1
  H  H95  1  0.87363317  0.78169177  0.38353399  1
  H  H96  1  0.38227958  0.27856802  0.39663828  1
  H  H97  1  0.37768902  0.61189668  0.39281452  1
  H  H98  1  0.37426791  0.94526511  0.39127467  1
  H  H99  1  0.87987381  0.27844923  0.39731850  1
  H  H100  1  0.88559501  0.60785103  0.40405463  1
  H  H101  1  0.87349276  0.94534773  0.38448966  1
  H  H102  1  0.12681742  0.05411314  0.88702942  1
  H  H103  1  0.13503366  0.38179173  0.87511019  1
  H  H104  1  0.13040465  0.71865739  0.88183880  1
  H  H105  1  0.62530242  0.05270442  0.88975340  1
  H  H106  1  0.62924739  0.38629328  0.87857281  1
  H  H107  1  0.62925739  0.72039789  0.88356181  1
  H  H108  1  0.12629326  0.28073011  0.12036001  1
  H  H109  1  0.11933599  0.61099182  0.09653761  1
  H  H110  1  0.11882673  0.94171390  0.09753176  1
  H  H111  1  0.61842561  0.27524032  0.09659613  1
  H  H112  1  0.62631788  0.61704454  0.12480521  1
  H  H113  1  0.62061174  0.94224019  0.10346384  1
  H  H114  1  0.37141271  0.05021155  0.61936941  1
  H  H115  1  0.38221637  0.39055759  0.60406497  1
  H  H116  1  0.37580061  0.72156020  0.60542952  1
  H  H117  1  0.87068613  0.05300492  0.62112520  1
  H  H118  1  0.88576297  0.38807479  0.59642746  1
  H  H119  1  0.87453156  0.72187427  0.60915633  1
  H  H120  1  0.13163614  0.10903472  0.39877216  1
  H  H121  1  0.11676204  0.44718860  0.38174277  1
  H  H122  1  0.12388045  0.78116954  0.39061378  1
  H  H123  1  0.63015016  0.11264603  0.39543547  1
  H  H124  1  0.61644579  0.45173210  0.37694943  1
  H  H125  1  0.62497306  0.77697945  0.39589499  1
  H  H126  1  0.37574970  0.22095173  0.88882108  1
  H  H127  1  0.37238248  0.55421085  0.89066188  1
  H  H128  1  0.37693694  0.88605233  0.88365177  1
  H  H129  1  0.87702608  0.21927850  0.88757163  1
  H  H130  1  0.87359089  0.55732653  0.89088963  1
  H  H131  1  0.87875044  0.88725411  0.88860507  1
  H  H132  1  0.36727753  0.10862942  0.09338414  1
  H  H133  1  0.36395329  0.44046748  0.09925095  1
  H  H134  1  0.36685615  0.78077093  0.10675588  1
  H  H135  1  0.87691127  0.11438285  0.12086432  1
  H  H136  1  0.86964461  0.44584000  0.10939090  1
  H  H137  1  0.86713438  0.77746781  0.10116976  1
  H  H138  1  0.12082835  0.21834383  0.62101155  1
  H  H139  1  0.11799558  0.55274455  0.61887429  1
  H  H140  1  0.12559080  0.88692558  0.60790724  1
  H  H141  1  0.62383386  0.22162672  0.60860377  1
  H  H142  1  0.61666347  0.55161833  0.61528533  1
  H  H143  1  0.62730951  0.88505670  0.60960088  1
  H  H144  1  0.41183106  0.91562668  0.00600659  1
  H  H145  1  0.81161982  0.58319076  0.49586246  1
  H  H146  1  0.05432278  0.07520708  0.49770673  1
  H  H147  1  0.67551147  0.58975311  0.99510661  1
  H  H148  1  0.11292338  0.41380656  0.51385529  1
  H  H149  1  0.17104520  0.75584832  0.49672352  1
  H  H150  1  0.29651542  0.41117910  -0.00642119  1
  H  H151  1  0.04592650  0.58492692  -0.00735562  1
  H  H152  1  0.82965633  0.91407593  0.50165227  1
  H  H153  1  0.46082417  0.58485018  -0.00565289  1
  H  H154  1  0.45314142  0.41249663  1.00205551  1
  H  H155  1  0.44949959  0.75184332  1.00115159  1
  H  H156  1  0.55606982  0.08398748  0.49840381  1
  H  H157  1  0.57219584  0.05972766  0.99705798  1
  H  H158  1  0.30357404  0.25444821  0.49914268  1
  H  H159  1  0.83123541  0.24221382  1.00029229  1
  H  H160  1  0.90044827  0.08386242  0.50928407  1
  H  H161  1  0.82873833  0.57790460  0.99763079  1
  H  H162  1  0.94629253  0.25203752  -0.00556506  1
  H  H163  1  0.78847967  0.41261557  0.50569211  1
  H  H164  1  0.29156388  0.08657887  -0.00712693  1
  H  H165  1  0.69010992  0.08474577  -0.00654007  1
  H  H166  1  0.08637215  0.08258290  0.99729735  1
  H  H167  1  0.81607488  0.41924767  -0.00111629  1
  H  H168  1  0.69399439  0.08815784  0.50373652  1
  H  H169  1  0.19586690  0.07851110  0.49949508  1
  H  H170  1  0.43268547  0.09659883  0.98951633  1
  H  H171  1  0.65418179  0.42038293  0.00732776  1
  H  H172  1  0.80290516  0.75089089  -0.00225592  1
  H  H173  1  0.95835504  0.41660667  1.00904906  1
  H  H174  1  0.35089090  0.08323496  0.49121689  1
  H  H175  1  0.59313526  0.41760742  0.50485215  1
  H  H176  1  0.67878098  0.24121823  0.99737247  1
  H  H177  1  0.44526808  0.25153242  0.50363933  1
  H  H178  1  0.95368095  0.75194412  1.00218139  1
  H  H179  1  0.84052411  0.91692734  0.99490460  1
  H  H180  1  0.95903930  0.59448521  0.50568091  1
  H  H181  1  0.31199696  0.75497072  -0.00503672  1
  H  H182  1  0.31275731  0.58781861  0.99226423  1
  H  H183  1  0.84138031  0.75238323  0.49739525  1
  H  H184  1  0.18119431  0.59186530  0.98872699  1
  H  H185  1  0.30865689  0.41960873  0.50609158  1
  H  H186  1  0.10844566  0.58399779  0.48788082  1
  H  H187  1  0.57538611  0.91408436  0.49705438  1
  H  H188  1  0.54686882  0.25260345  -0.00606017  1
  H  H189  1  0.14691973  0.24824088  0.50751424  1
  H  H190  1  0.13852925  0.41637319  0.01042111  1
  H  H191  1  0.95575637  0.41289196  0.49092226  1
  Pb  Pb192  1  0.24505539  0.04972898  0.74890056  1
  Pb  Pb193  1  0.25272620  0.37878528  0.75174122  1
  Pb  Pb194  1  0.25511435  0.71586351  0.74802168  1
  Pb  Pb195  1  0.74948610  0.04519199  0.74976232  1
  Pb  Pb196  1  0.75397461  0.38423384  0.74833193  1
  Pb  Pb197  1  0.75007562  0.71365553  0.75293084  1
  Pb  Pb198  1  0.25208867  0.28717492  0.25997086  1
  Pb  Pb199  1  0.25197155  0.61890993  0.23928665  1
  Pb  Pb200  1  0.24832265  0.95454559  0.24892957  1
  Pb  Pb201  1  0.75193640  0.28405102  0.24224267  1
  Pb  Pb202  1  0.74944476  0.62164817  0.25194977  1
  Pb  Pb203  1  0.75330425  0.95205633  0.24822860  1
  Pb  Pb204  1  -0.00367293  0.21473540  0.75285427  1
  Pb  Pb205  1  0.00434030  0.54946899  0.74763759  1
  Pb  Pb206  1  0.00030458  0.87879753  0.75184209  1
  Pb  Pb207  1  0.50326916  0.21450228  0.74966350  1
  Pb  Pb208  1  0.49560417  0.54782998  0.75242820  1
  Pb  Pb209  1  0.50009912  0.88129160  0.75218985  1
  Pb  Pb210  1  0.00329919  0.12040665  0.25975569  1
  Pb  Pb211  1  -0.00374806  0.45261500  0.25381550  1
  Pb  Pb212  1  0.00036312  0.78694251  0.24502144  1
  Pb  Pb213  1  0.50185790  0.11676151  0.24325389  1
  Pb  Pb214  1  0.50012101  0.45288240  0.24750911  1
  Pb  Pb215  1  0.49825807  0.78773213  0.24718772  1
  C  C216  1  -0.00183551  0.04478547  0.63332876  1
  C  C217  1  0.00484650  0.38009208  0.63287701  1
  C  C218  1  -0.00122281  0.71344517  0.63292880  1
  C  C219  1  0.49835516  0.04563653  0.63566712  1
  C  C220  1  0.50523047  0.38044906  0.63023485  1
  C  C221  1  0.49950663  0.71267310  0.63106216  1
  C  C222  1  -0.00139539  0.28611308  0.13441248  1
  C  C223  1  0.00152237  0.62003503  0.13387391  1
  C  C224  1  -0.00105460  0.95308642  0.13078726  1
  C  C225  1  0.49953225  0.28676009  0.13098720  1
  C  C226  1  0.49813733  0.62036092  0.13241655  1
  C  C227  1  0.49746832  0.95229661  0.13034795  1
  C  C228  1  0.00110580  0.04636354  0.86733263  1
  C  C229  1  0.00644129  0.37954577  0.86787251  1
  C  C230  1  0.00306093  0.71484444  0.86712216  1
  C  C231  1  0.50064807  0.04665505  0.86791332  1
  C  C232  1  0.50195137  0.37913400  0.86580819  1
  C  C233  1  0.50259118  0.71480841  0.86713737  1
  C  C234  1  0.00157475  0.28658153  0.36717308  1
  C  C235  1  0.00395589  0.62059635  0.36981654  1
  C  C236  1  -0.00010959  0.95191590  0.36751184  1
  C  C237  1  0.50400274  0.28724419  0.36595458  1
  C  C238  1  0.50171921  0.62084270  0.36885683  1
  C  C239  1  0.49873060  0.95264146  0.36607429  1
  C  C240  1  0.24879619  0.21440991  0.63271880  1
  C  C241  1  0.24568595  0.54757843  0.63058202  1
  C  C242  1  0.25008123  0.88021288  0.62785131  1
  C  C243  1  0.74815952  0.21429148  0.62891661  1
  C  C244  1  0.74371298  0.54694566  0.63274614  1
  C  C245  1  0.75181250  0.87878644  0.63402656  1
  C  C246  1  0.25022986  0.12136749  0.13078238  1
  C  C247  1  0.24369658  0.45234298  0.13223325  1
  C  C248  1  0.24464532  0.78710302  0.13315022  1
  C  C249  1  0.74919516  0.11909647  0.13337538  1
  C  C250  1  0.74695092  0.45355551  0.13559900  1
  C  C251  1  0.74603102  0.78748373  0.13190641  1
  C  C252  1  0.25067308  0.21435502  0.87119215  1
  C  C253  1  0.24835416  0.54999175  0.86563838  1
  C  C254  1  0.24970176  0.87992194  0.86708613  1
  C  C255  1  0.75116349  0.21291803  0.86607396  1
  C  C256  1  0.74918687  0.54757577  0.87025242  1
  C  C257  1  0.75255900  0.88110318  0.87113555  1
  C  C258  1  0.25226717  0.11906687  0.36644629  1
  C  C259  1  0.24431151  0.45359345  0.36825820  1
  C  C260  1  0.24910227  0.78803101  0.36941318  1
  C  C261  1  0.75144125  0.12169961  0.36499406  1
  C  C262  1  0.74524273  0.45383431  0.36965446  1
  C  C263  1  0.74798718  0.78623112  0.36857397  1
  C  C264  1  0.19290754  0.57048176  0.54091179  1
  C  C265  1  0.53247401  0.92232204  0.03584502  1
  C  C266  1  0.78918450  0.90437808  0.54082355  1
  C  C267  1  0.02113374  0.92292302  0.03578633  1
  C  C268  1  0.80403338  0.09607318  0.04345489  1
  C  C269  1  0.96214960  0.74233732  0.54003522  1
  C  C270  1  0.19079107  0.42915189  0.45844184  1
  C  C271  1  0.52330260  0.07273847  0.54052985  1
  C  C272  1  0.78845496  0.23950963  0.53690178  1
  C  C273  1  0.27629953  0.76378282  0.03623206  1
  C  C274  1  0.06927926  0.40242455  0.95546400  1
  C  C275  1  0.30670033  0.09371688  0.45557946  1
  C  C276  1  0.79372056  0.23697057  0.95930061  1
  C  C277  1  0.79639072  0.76133482  0.46100298  1
  C  C278  1  0.98480018  0.40471917  0.53539334  1
  C  C279  1  0.18655221  0.09451206  0.04467289  1
  C  C280  1  0.47029618  0.41117269  0.53598795  1
  C  C281  1  0.70813267  0.24007591  0.53695350  1
  C  C282  1  0.19503550  0.76396517  0.04163359  1
  C  C283  1  0.44051962  0.25696839  0.04379852  1
  C  C284  1  0.27201064  0.42862519  0.46535751  1
  C  C285  1  0.94462836  0.07301576  0.54485239  1
  C  C286  1  0.72615048  0.09707402  0.46072150  1
  C  C287  1  0.98861257  0.40558825  0.96581304  1
  C  C288  1  0.21442777  0.23887950  0.96495091  1
  C  C289  1  0.53636135  0.92569945  0.45853931  1
  C  C290  1  0.29531740  0.23886784  0.96286826  1
  C  C291  1  0.71486438  0.76000252  0.46365743  1
  C  C292  1  0.04820929  0.25970859  0.45810864  1
  C  C293  1  0.46584032  0.74030925  0.53775703  1
  C  C294  1  0.04312663  0.07248732  0.95925355  1
  C  C295  1  0.19310829  0.23877943  0.54350860  1
  C  C296  1  0.69255016  0.75985657  0.04193700  1
  C  C297  1  0.46661988  0.59071858  0.46104518  1
  C  C298  1  0.69472152  0.57039762  0.54125815  1
  C  C299  1  0.71891522  0.90978180  0.96633284  1
  C  C300  1  0.47800450  0.26167512  0.46124543  1
  C  C301  1  0.01764643  0.59424098  0.03710532  1
  C  C302  1  0.29003866  0.90539398  0.53587150  1
  C  C303  1  0.77597447  0.57222993  0.53656190  1
  C  C304  1  0.72301590  0.09439186  0.03582904  1
  C  C305  1  0.68231582  0.42919873  0.45628560  1
  C  C306  1  0.95389148  0.92547551  0.45849321  1
  C  C307  1  0.20985798  0.90608945  0.53610957  1
  C  C308  1  0.26648037  0.42313826  0.03661965  1
  C  C309  1  0.77994393  0.42892334  0.03957139  1
  C  C310  1  0.97664051  0.26112581  0.03817400  1
  C  C311  1  0.69791862  0.42957061  0.04357207  1
  N  N312  1  0.47852091  0.73826219  0.96176545  1
  N  N313  1  0.55629100  0.73774208  0.95754336  1
  N  N314  1  0.02395260  0.07372843  0.53916557  1
  N  N315  1  0.98380120  0.58671510  0.46279391  1
  N  N316  1  0.28711855  0.76114064  0.46330971  1
  N  N317  1  0.20588681  0.55942905  0.96083949  1
  N  N318  1  0.04020503  0.74192551  0.53935363  1
  N  N319  1  0.22749270  0.09368095  0.46178112  1
  N  N320  1  0.03132937  0.92503572  0.46388858  1
  N  N321  1  0.96391470  0.07322925  0.96228171  1
  N  N322  1  0.71418638  0.23958918  0.95867719  1
  N  N323  1  0.55701967  0.26206471  0.45662245  1
  N  N324  1  0.54259282  0.07507798  0.95854944  1
  N  N325  1  0.71220725  0.56714955  0.96458572  1
  N  N326  1  0.30025613  0.90376452  0.95825074  1
  N  N327  1  0.46219475  0.06700262  0.96148572  1
  N  N328  1  0.76032340  0.42503180  0.46518008  1
  N  N329  1  0.45353630  0.92492820  0.03974353  1
  N  N330  1  0.18759113  0.42589181  0.04488415  1
  N  N331  1  0.54386033  0.59106511  0.46166241  1
  N  N332  1  0.70968003  0.90436089  0.53991282  1
  N  N333  1  0.44441783  0.07071579  0.54523462  1
  N  N334  1  0.79769681  0.90818200  0.96152668  1
  N  N335  1  0.06315520  0.40548700  0.54631610  1
  N  N336  1  0.48530852  0.59404390  0.03721857  1
  N  N337  1  0.45713088  0.92630225  0.45998401  1
  N  N338  1  0.55863443  0.40534636  0.95394680  1
  N  N339  1  0.22423599  0.90548237  0.96368592  1
  N  N340  1  0.54908315  0.40866176  0.53970509  1
  N  N341  1  0.06146893  0.59889932  0.45682516  1
  N  N342  1  0.05925810  0.73683654  0.95684276  1
  N  N343  1  0.77125851  0.75923921  0.03760423  1
  N  N344  1  0.26476118  0.09249031  0.03530425  1
  N  N345  1  0.54320211  0.73970420  0.53786728  1
  N  N346  1  0.28747924  0.55780382  0.96174999  1
  N  N347  1  0.93928430  0.59475416  0.04645653  1
  N  N348  1  0.56239907  0.59760511  0.04615966  1
  N  N349  1  0.26979639  0.57238735  0.53229329  1
  N  N350  1  0.97086929  0.25923286  0.46365282  1
  N  N351  1  0.51894723  0.25736269  0.03620869  1
  N  N352  1  0.48092183  0.40738357  0.95968285  1
  N  N353  1  0.27248696  0.23956336  0.53720757  1
  N  N354  1  0.20909496  0.76154628  0.45984755  1
  N  N355  1  0.05526778  0.26154474  0.04487953  1
  N  N356  1  0.98172506  0.73896257  0.96205064  1
  N  N357  1  0.79034270  0.57950930  0.95986180  1
  N  N358  1  0.80503676  0.09729140  0.45566600  1
  N  N359  1  0.94400821  0.92591332  0.04119970  1
  N  N360  1  0.05683299  0.05289886  0.59284201  1
  N  N361  1  0.07493897  0.39092396  0.60637248  1
  N  N362  1  0.06282463  0.72360855  0.59844723  1
  N  N363  1  0.55788623  0.05777044  0.59571808  1
  N  N364  1  0.57121147  0.38949223  0.59772084  1
  N  N365  1  0.56443834  0.72204337  0.59713304  1
  N  N366  1  0.42850527  0.27438651  0.10265032  1
  N  N367  1  0.44449465  0.60925810  0.08874416  1
  N  N368  1  0.43119580  0.94336775  0.09798611  1
  N  N369  1  0.93994405  0.27589102  0.09289075  1
  N  N370  1  0.93130076  0.61093967  0.10685321  1
  N  N371  1  0.93015113  0.94490702  0.10167556  1
  N  N372  1  0.43757759  0.06126566  0.90207635  1
  N  N373  1  0.44501768  0.38833883  0.90741390  1
  N  N374  1  0.44394389  0.72581974  0.90691852  1
  N  N375  1  0.93941561  0.05679176  0.90468989  1
  N  N376  1  0.95020799  0.39113168  0.91015892  1
  N  N377  1  0.94568616  0.72605272  0.90785947  1
  N  N378  1  0.06945836  0.27613128  0.39943380  1
  N  N379  1  0.07398683  0.61051713  0.39700210  1
  N  N380  1  0.06016196  0.94159999  0.40591070  1
  N  N381  1  0.57136158  0.27777530  0.39725183  1
  N  N382  1  0.56617215  0.61020508  0.40298706  1
  N  N383  1  0.56359226  0.94187718  0.40126821  1
  N  N384  1  0.30680979  0.22582653  0.59253389  1
  N  N385  1  0.30279725  0.55778706  0.58946261  1
  N  N386  1  0.31557819  0.88987988  0.59187338  1
  N  N387  1  0.81351756  0.22409297  0.59306703  1
  N  N388  1  0.80555600  0.55718487  0.59477642  1
  N  N389  1  0.81624661  0.88932236  0.59848526  1
  N  N390  1  0.17769505  0.11118688  0.10409091  1
  N  N391  1  0.17426508  0.44443679  0.10365850  1
  N  N392  1  0.17631957  0.77788928  0.10004884  1
  N  N393  1  0.68950181  0.10886918  0.09324464  1
  N  N394  1  0.67902009  0.44471333  0.10343379  1
  N  N395  1  0.67671563  0.77688983  0.10033868  1
  N  N396  1  0.18712810  0.22433815  0.90893495  1
  N  N397  1  0.18383756  0.55727896  0.90064081  1
  N  N398  1  0.19148226  0.89062773  0.90763766  1
  N  N399  1  0.68792514  0.22132960  0.90209327  1
  N  N400  1  0.68616224  0.55864383  0.90581833  1
  N  N401  1  0.69062957  0.89294589  0.91043245  1
  N  N402  1  0.32239644  0.11014203  0.39663555  1
  N  N403  1  0.30419539  0.44395658  0.40788376  1
  N  N404  1  0.31156457  0.77670869  0.40632875  1
  N  N405  1  0.81911774  0.11282675  0.39577438  1
  N  N406  1  0.79997112  0.44138176  0.41192983  1
  N  N407  1  0.81557420  0.77760409  0.40050058  1
  N  N408  1  0.44375206  0.27697775  0.40588770  1
  N  N409  1  0.43781505  0.60856224  0.40519333  1
  N  N410  1  0.43537526  0.94281549  0.40199859  1
  N  N411  1  0.94166907  0.27631657  0.40580584  1
  N  N412  1  0.94765400  0.61022995  0.41184629  1
  N  N413  1  0.93226475  0.94179561  0.40018203  1
  N  N414  1  0.06732883  0.05643298  0.90107410  1
  N  N415  1  0.07920288  0.38678754  0.89545821  1
  N  N416  1  0.07212514  0.72217001  0.89747692  1
  N  N417  1  0.56508155  0.05142999  0.90346979  1
  N  N418  1  0.57103009  0.39010183  0.89477803  1
  N  N419  1  0.57074440  0.72271151  0.89845712  1
  N  N420  1  0.06712875  0.27702374  0.10459851  1
  N  N421  1  0.05745922  0.60918227  0.09044569  1
  N  N422  1  0.05719760  0.93931592  0.08953286  1
  N  N423  1  0.55646946  0.27762469  0.08927872  1
  N  N424  1  0.56952924  0.61237942  0.10602423  1
  N  N425  1  0.55986029  0.93949635  0.09185509  1
  N  N426  1  0.43051372  0.05380127  0.60488601  1
  N  N427  1  0.44282869  0.39347777  0.59194555  1
  N  N428  1  0.43612731  0.72408100  0.59382588  1
  N  N429  1  0.92856163  0.05649865  0.60365677  1
  N  N430  1  0.94797640  0.38960389  0.58923920  1
  N  N431  1  0.93478589  0.72499692  0.59647449  1
  N  N432  1  0.19388524  0.10843663  0.40646077  1
  N  N433  1  0.17457896  0.44403430  0.39922464  1
  N  N434  1  0.18423996  0.77926993  0.40362251  1
  N  N435  1  0.69172778  0.11142347  0.40534071  1
  N  N436  1  0.67266127  0.44645773  0.39691232  1
  N  N437  1  0.68568952  0.77494382  0.40798232  1
  N  N438  1  0.31740083  0.22422227  0.90550895  1
  N  N439  1  0.31164335  0.55758175  0.90198482  1
  N  N440  1  0.31734474  0.88815817  0.89813753  1
  N  N441  1  0.81701689  0.22227293  0.90141116  1
  N  N442  1  0.81380828  0.55675546  0.90481942  1
  N  N443  1  0.81915211  0.89046203  0.90286819  1
  N  N444  1  0.30501396  0.11165372  0.08764226  1
  N  N445  1  0.30182154  0.43969674  0.09053569  1
  N  N446  1  0.30621319  0.77811768  0.09469895  1
  N  N447  1  0.81924141  0.11067979  0.10227921  1
  N  N448  1  0.80898821  0.44373853  0.09730345  1
  N  N449  1  0.80537317  0.77762592  0.09252329  1
  N  N450  1  0.17852845  0.22281543  0.60282653  1
  N  N451  1  0.17547815  0.55563751  0.60087422  1
  N  N452  1  0.18456638  0.89093289  0.59228326  1
  N  N453  1  0.68271256  0.22492868  0.59316584  1
  N  N454  1  0.67554964  0.55541784  0.59933247  1
  N  N455  1  0.68836714  0.88824510  0.59829053  1
  Cl  Cl456  1  0.24033940  0.05845258  0.60709761  1
  Cl  Cl457  1  0.25920427  0.38444205  0.61874309  1
  Cl  Cl458  1  0.24798411  0.72121009  0.61544494  1
  Cl  Cl459  1  0.74224350  0.05632591  0.61602970  1
  Cl  Cl460  1  0.76065770  0.38952634  0.60573509  1
  Cl  Cl461  1  0.75124093  0.71902808  0.62126147  1
  Cl  Cl462  1  0.24919072  0.28470001  0.12940524  1
  Cl  Cl463  1  0.25408529  0.61053016  0.09306262  1
  Cl  Cl464  1  0.24605792  0.95027914  0.11667287  1
  Cl  Cl465  1  0.74488514  0.27210456  0.10239147  1
  Cl  Cl466  1  0.74966485  0.61522806  0.11483768  1
  Cl  Cl467  1  0.74499085  0.94486452  0.11268455  1
  Cl  Cl468  1  0.25580847  0.05889252  0.88969880  1
  Cl  Cl469  1  0.26433087  0.39046569  0.88817052  1
  Cl  Cl470  1  0.25996787  0.71468431  0.88535140  1
  Cl  Cl471  1  0.74870132  0.05367029  0.88514048  1
  Cl  Cl472  1  0.75993897  0.38756521  0.88258572  1
  Cl  Cl473  1  0.76162942  0.72393686  0.89494655  1
  Cl  Cl474  1  0.25771418  0.27529268  0.39701594  1
  Cl  Cl475  1  0.25350378  0.61662237  0.37087804  1
  Cl  Cl476  1  0.24700894  0.94902564  0.38239998  1
  Cl  Cl477  1  0.75595586  0.28527780  0.37449231  1
  Cl  Cl478  1  0.76153225  0.61074856  0.38526827  1
  Cl  Cl479  1  0.74868316  0.94599134  0.38003185  1
  Cl  Cl480  1  -0.00208284  0.21615185  0.62278923  1
  Cl  Cl481  1  -0.00826936  0.55917496  0.60949450  1
  Cl  Cl482  1  -0.00107757  0.88327488  0.62341685  1
  Cl  Cl483  1  0.49091604  0.22287319  0.61584889  1
  Cl  Cl484  1  0.48982315  0.54948790  0.62103652  1
  Cl  Cl485  1  0.50389461  0.88399504  0.62050031  1
  Cl  Cl486  1  -0.00019985  0.11598946  0.12956000  1
  Cl  Cl487  1  -0.00783373  0.44735624  0.12061880  1
  Cl  Cl488  1  -0.01171262  0.77712830  0.10661289  1
  Cl  Cl489  1  0.49353992  0.10715298  0.10007099  1
  Cl  Cl490  1  0.48680613  0.44150766  0.10766780  1
  Cl  Cl491  1  0.49058848  0.77962995  0.10843376  1
  Cl  Cl492  1  -0.00084801  0.22225476  0.88730548  1
  Cl  Cl493  1  0.00041604  0.55562681  0.88355045  1
  Cl  Cl494  1  0.00446209  0.88667897  0.88757028  1
  Cl  Cl495  1  0.50622817  0.22365533  0.89306222  1
  Cl  Cl496  1  0.49556390  0.55691674  0.89666937  1
  Cl  Cl497  1  0.50184712  0.89005686  0.88901012  1
  Cl  Cl498  1  0.00972026  0.10662521  0.39710712  1
  Cl  Cl499  1  -0.01470051  0.44410121  0.39051688  1
  Cl  Cl500  1  0.00185675  0.78066577  0.37585486  1
  Cl  Cl501  1  0.50780975  0.11281571  0.37732001  1
  Cl  Cl502  1  0.49088111  0.44720929  0.38065135  1
  Cl  Cl503  1  0.49732682  0.77899951  0.37828274  1
  Cl  Cl504  1  0.36204258  0.14548986  0.75365138  1
  Cl  Cl505  1  0.36242490  0.48080856  0.75335220  1
  Cl  Cl506  1  0.36075767  0.81058064  0.75134104  1
  Cl  Cl507  1  0.86110200  0.14636366  0.74958608  1
  Cl  Cl508  1  0.85903433  0.47733558  0.75039899  1
  Cl  Cl509  1  0.86366531  0.81188358  0.75511338  1
  Cl  Cl510  1  0.13660523  0.18890215  0.24972017  1
  Cl  Cl511  1  0.13472633  0.52171411  0.24963719  1
  Cl  Cl512  1  0.13685263  0.85395146  0.24692638  1
  Cl  Cl513  1  0.63884171  0.18912757  0.24781308  1
  Cl  Cl514  1  0.63550288  0.52130494  0.24725474  1
  Cl  Cl515  1  0.63548819  0.85458082  0.24741925  1
  Cl  Cl516  1  0.14247724  0.14354921  0.74826897  1
  Cl  Cl517  1  0.13808408  0.47828251  0.74993790  1
  Cl  Cl518  1  0.13746534  0.81069437  0.74997444  1
  Cl  Cl519  1  0.63721371  0.14531386  0.75251818  1
  Cl  Cl520  1  0.64089858  0.47577446  0.75304772  1
  Cl  Cl521  1  0.64036438  0.81112481  0.75461703  1
  Cl  Cl522  1  0.35868873  0.18817828  0.25170694  1
  Cl  Cl523  1  0.35507395  0.52092363  0.24529341  1
  Cl  Cl524  1  0.36148143  0.85535128  0.24947419  1
  Cl  Cl525  1  0.86136779  0.18999335  0.24900897  1
  Cl  Cl526  1  0.85980943  0.52053516  0.24805534  1
  Cl  Cl527  1  0.85892088  0.85653589  0.25008367  1
  Cl  Cl528  1  0.11605057  0.31160857  0.74876651  1
  Cl  Cl529  1  0.10981865  0.64282625  0.75294782  1
  Cl  Cl530  1  0.11138877  0.98005945  0.75048992  1
  Cl  Cl531  1  0.60928817  0.31074687  0.75383369  1
  Cl  Cl532  1  0.61505149  0.64512613  0.75399101  1
  Cl  Cl533  1  0.61150272  0.97860421  0.75324918  1
  Cl  Cl534  1  0.38775769  0.02294597  0.24941435  1
  Cl  Cl535  1  0.38668244  0.35374211  0.24714433  1
  Cl  Cl536  1  0.38791686  0.68612474  0.24617688  1
  Cl  Cl537  1  0.88535028  0.02298445  0.24962496  1
  Cl  Cl538  1  0.89016301  0.35417371  0.24795242  1
  Cl  Cl539  1  0.88756251  0.68712230  0.24668966  1
  Cl  Cl540  1  0.38947317  0.31244722  0.75006496  1
  Cl  Cl541  1  0.39090572  0.64379280  0.75408491  1
  Cl  Cl542  1  0.39103539  0.97744409  0.75086925  1
  Cl  Cl543  1  0.89519538  0.31294280  0.75032112  1
  Cl  Cl544  1  0.88732789  0.64439677  0.75200121  1
  Cl  Cl545  1  0.88770992  0.97877150  0.75017514  1
  Cl  Cl546  1  0.11093576  0.02280720  0.25107163  1
  Cl  Cl547  1  0.11414553  0.35656267  0.25213593  1
  Cl  Cl548  1  0.10980170  0.68785783  0.24934764  1
  Cl  Cl549  1  0.60777070  0.02336206  0.24497553  1
  Cl  Cl550  1  0.60872423  0.35751925  0.24970775  1
  Cl  Cl551  1  0.61226583  0.68846229  0.24613030  1
