# generated using pymatgen
data_H8PbC4(N3Cl2)2
_symmetry_space_group_name_H-M   'P 1'
_cell_length_a   16.62380777
_cell_length_b   22.51372710
_cell_length_c   21.59333002
_cell_angle_alpha   89.99992646
_cell_angle_beta   90.00685041
_cell_angle_gamma   90.00520864
_symmetry_Int_Tables_number   1
_chemical_formula_structural   H8PbC4(N3Cl2)2
_chemical_formula_sum   'H192 Pb24 C96 N144 Cl96'
_cell_volume   8081.60319842
_cell_formula_units_Z   24
loop_
 _symmetry_equiv_pos_site_id
 _symmetry_equiv_pos_as_xyz
  1  'x, y, z'
loop_
 _atom_site_type_symbol
 _atom_site_label
 _atom_site_symmetry_multiplicity
 _atom_site_fract_x
 _atom_site_fract_y
 _atom_site_fract_z
 _atom_site_occupancy
  H  H0  1  0.00338347  0.03034526  0.68185996  1
  H  H1  1  0.00120028  0.36253160  0.68246119  1
  H  H2  1  0.00354250  0.69542902  0.67719172  1
  H  H3  1  0.50318860  0.02109949  0.67612898  1
  H  H4  1  0.49407202  0.36033502  0.67478552  1
  H  H5  1  0.49111744  0.69895226  0.67882798  1
  H  H6  1  0.00446809  0.30709532  0.17653615  1
  H  H7  1  -0.00955199  0.63538432  0.17843426  1
  H  H8  1  -0.00867571  0.97201175  0.17907387  1
  H  H9  1  0.49568580  0.30459292  0.17957960  1
  H  H10  1  0.50862898  0.63877369  0.17694510  1
  H  H11  1  0.50377996  0.97204006  0.17515987  1
  H  H12  1  -0.00759569  0.03194875  0.82083162  1
  H  H13  1  0.00211764  0.36299353  0.82523708  1
  H  H14  1  -0.00492657  0.69395290  0.82218683  1
  H  H15  1  0.49743783  0.03042035  0.82179946  1
  H  H16  1  0.49027373  0.36519075  0.81859845  1
  H  H17  1  0.50875306  0.69762043  0.82288688  1
  H  H18  1  0.00221508  0.30354848  0.31952045  1
  H  H19  1  0.00051676  0.63765249  0.32191104  1
  H  H20  1  0.00842290  0.96741285  0.32059281  1
  H  H21  1  0.49090092  0.30426926  0.31873535  1
  H  H22  1  0.50238754  0.63651617  0.31907966  1
  H  H23  1  0.48909306  0.96521323  0.32306975  1
  H  H24  1  0.25232699  0.20019709  0.68257722  1
  H  H25  1  0.25781010  0.52833889  0.67994433  1
  H  H26  1  0.25846795  0.86168021  0.67612320  1
  H  H27  1  0.76528736  0.20142889  0.67532513  1
  H  H28  1  0.74246409  0.52989033  0.67824785  1
  H  H29  1  0.75866772  0.86226592  0.68184693  1
  H  H30  1  0.25489582  0.13733737  0.18077204  1
  H  H31  1  0.25803819  0.47047103  0.18062762  1
  H  H32  1  0.24748256  0.80318383  0.17504635  1
  H  H33  1  0.75670353  0.13520849  0.18225139  1
  H  H34  1  0.75693015  0.47034002  0.17719873  1
  H  H35  1  0.74150631  0.80181507  0.17997096  1
  H  H36  1  0.24366538  0.19553716  0.82018811  1
  H  H37  1  0.25998144  0.53191346  0.82116045  1
  H  H38  1  0.23945971  0.86258255  0.82320741  1
  H  H39  1  0.75609644  0.19651164  0.81862350  1
  H  H40  1  0.74729418  0.52928569  0.82199357  1
  H  H41  1  0.76177131  0.86169485  0.82414636  1
  H  H42  1  0.24439555  0.13584143  0.31762849  1
  H  H43  1  0.24674052  0.47109763  0.31850476  1
  H  H44  1  0.25329317  0.80363232  0.32162427  1
  H  H45  1  0.74922592  0.14652945  0.32392366  1
  H  H46  1  0.75152822  0.46969127  0.32100152  1
  H  H47  1  0.75368252  0.80487499  0.32397508  1
  H  H48  1  0.12519506  0.05476847  0.60776327  1
  H  H49  1  0.12769499  0.38647862  0.61570718  1
  H  H50  1  0.13276587  0.72228765  0.61205452  1
  H  H51  1  0.62332433  0.05836099  0.60797695  1
  H  H52  1  0.62793628  0.38360805  0.61664207  1
  H  H53  1  0.63144883  0.71548857  0.62507868  1
  H  H54  1  0.36763121  0.27896972  0.11341836  1
  H  H55  1  0.37383349  0.61661700  0.11804525  1
  H  H56  1  0.38119076  0.94530336  0.10488138  1
  H  H57  1  0.87004826  0.28429146  0.11643960  1
  H  H58  1  0.87782395  0.60619802  0.09881199  1
  H  H59  1  0.88426172  0.94163948  0.09574126  1
  H  H60  1  0.38356944  0.05399883  0.89934382  1
  H  H61  1  0.38640853  0.39014895  0.90260640  1
  H  H62  1  0.36900003  0.71779761  0.87626369  1
  H  H63  1  0.88768441  0.05805664  0.90346226  1
  H  H64  1  0.88252014  0.39089166  0.89905028  1
  H  H65  1  0.86702956  0.71918312  0.88980365  1
  H  H66  1  0.12785354  0.28004503  0.38879831  1
  H  H67  1  0.11787927  0.61079353  0.39687928  1
  H  H68  1  0.13630882  0.94401283  0.38926244  1
  H  H69  1  0.62450989  0.28062595  0.38178595  1
  H  H70  1  0.61766657  0.61173866  0.39707182  1
  H  H71  1  0.62735980  0.94828900  0.37542343  1
  H  H72  1  0.36869102  0.22439841  0.60373649  1
  H  H73  1  0.37823947  0.55504783  0.60578713  1
  H  H74  1  0.36618842  0.89124538  0.59434663  1
  H  H75  1  0.86978386  0.22598872  0.59076849  1
  H  H76  1  0.88035106  0.55214644  0.62154744  1
  H  H77  1  0.87182901  0.88848774  0.60317436  1
  H  H78  1  0.12113831  0.11327822  0.11734455  1
  H  H79  1  0.11846026  0.45040973  0.12469792  1
  H  H80  1  0.13403736  0.77435520  0.09840186  1
  H  H81  1  0.61587420  0.11823107  0.12910739  1
  H  H82  1  0.62267063  0.45023848  0.12046954  1
  H  H83  1  0.63182299  0.77574326  0.09702624  1
  H  H84  1  0.13478569  0.22323666  0.90071627  1
  H  H85  1  0.12658984  0.55263635  0.88265311  1
  H  H86  1  0.11977166  0.89004657  0.89648743  1
  H  H87  1  0.62867332  0.21858991  0.88730840  1
  H  H88  1  0.63084811  0.55489352  0.89618260  1
  H  H89  1  0.61750598  0.88047908  0.86965757  1
  H  H90  1  0.37566825  0.11091763  0.38229461  1
  H  H91  1  0.37092308  0.44450556  0.39019641  1
  H  H92  1  0.36524407  0.77877916  0.40159667  1
  H  H93  1  0.87307037  0.11454613  0.39098838  1
  H  H94  1  0.86726239  0.44329002  0.39844362  1
  H  H95  1  0.86324473  0.77330200  0.40269970  1
  H  H96  1  0.37669944  0.27624150  0.39846015  1
  H  H97  1  0.36907068  0.61604532  0.38340727  1
  H  H98  1  0.38220076  0.94111381  0.40644059  1
  H  H99  1  0.87878081  0.27792189  0.39174184  1
  H  H100  1  0.86956255  0.61453646  0.38624808  1
  H  H101  1  0.88767614  0.94284502  0.39433066  1
  H  H102  1  0.13316716  0.04818985  0.87211983  1
  H  H103  1  0.13117530  0.38874926  0.89203194  1
  H  H104  1  0.11699637  0.72139271  0.89283564  1
  H  H105  1  0.63043134  0.05055728  0.87977345  1
  H  H106  1  0.63204586  0.38187716  0.87045924  1
  H  H107  1  0.61429528  0.72528707  0.90767161  1
  H  H108  1  0.11657256  0.27571161  0.09696759  1
  H  H109  1  0.12496560  0.61601397  0.11818045  1
  H  H110  1  0.13004692  0.94968153  0.12617333  1
  H  H111  1  0.61644756  0.27907759  0.10564149  1
  H  H112  1  0.62135664  0.61007712  0.09809833  1
  H  H113  1  0.62991823  0.94516827  0.10730011  1
  H  H114  1  0.37603025  0.04877637  0.61105114  1
  H  H115  1  0.38070074  0.39020828  0.59726873  1
  H  H116  1  0.38485581  0.72555331  0.59712115  1
  H  H117  1  0.87602484  0.05495005  0.61570682  1
  H  H118  1  0.87816002  0.38450263  0.61150354  1
  H  H119  1  0.88302509  0.72186060  0.60474145  1
  H  H120  1  0.12734585  0.11169302  0.39337102  1
  H  H121  1  0.12253223  0.44670182  0.39068317  1
  H  H122  1  0.11808657  0.78046396  0.38097800  1
  H  H123  1  0.62555489  0.11128772  0.38969332  1
  H  H124  1  0.62002348  0.44507220  0.38480969  1
  H  H125  1  0.61689565  0.78386933  0.38135833  1
  H  H126  1  0.38143558  0.21324060  0.87488647  1
  H  H127  1  0.37435940  0.55870359  0.90064056  1
  H  H128  1  0.36862723  0.88829473  0.88832675  1
  H  H129  1  0.87798751  0.22202216  0.89254658  1
  H  H130  1  0.87973544  0.54951564  0.88451458  1
  H  H131  1  0.85894865  0.89466991  0.91196246  1
  H  H132  1  0.36885782  0.10891817  0.10166290  1
  H  H133  1  0.36491769  0.44434759  0.09766841  1
  H  H134  1  0.38162650  0.78209054  0.11446517  1
  H  H135  1  0.86193073  0.11127787  0.09942009  1
  H  H136  1  0.86939604  0.44612228  0.09818660  1
  H  H137  1  0.87823998  0.77939935  0.11991597  1
  H  H138  1  0.12020886  0.22022744  0.61547185  1
  H  H139  1  0.12917139  0.55208922  0.61329793  1
  H  H140  1  0.12005818  0.88374135  0.62091279  1
  H  H141  1  0.62577136  0.21706441  0.62492553  1
  H  H142  1  0.63309476  0.55745035  0.59834932  1
  H  H143  1  0.62383535  0.88505701  0.62046652  1
  H  H144  1  0.55315294  0.58500963  -0.00499689  1
  H  H145  1  0.95859125  0.08710743  1.00832228  1
  H  H146  1  0.45986452  0.41750531  1.00790981  1
  H  H147  1  0.63944692  0.24671771  0.50928646  1
  H  H148  1  0.58762788  0.91668543  0.00059332  1
  H  H149  1  0.09205386  0.91727360  0.49420575  1
  H  H150  1  0.29247561  0.41601433  -0.00599706  1
  H  H151  1  0.80681959  0.91797489  0.49734307  1
  H  H152  1  0.64025668  0.75071846  0.49079627  1
  H  H153  1  0.11192656  0.91899173  0.01306746  1
  H  H154  1  0.70060655  0.58804686  0.49266705  1
  H  H155  1  0.64563846  0.41769849  0.00530533  1
  H  H156  1  0.08788953  0.41781425  0.99699262  1
  H  H157  1  0.93617157  0.75348554  0.49624822  1
  H  H158  1  0.44508245  0.41807375  0.49543934  1
  H  H159  1  0.18483492  0.09646199  0.50529960  1
  H  H160  1  0.90987561  0.74409156  0.99575323  1
  H  H161  1  0.35176033  0.75098511  0.00612003  1
  H  H162  1  0.04571657  0.24920161  -0.00401092  1
  H  H163  1  0.43696698  0.04855699  0.50358249  1
  H  H164  1  0.85483589  0.57920759  0.51319995  1
  H  H165  1  0.33667923  0.10667427  0.49271211  1
  H  H166  1  0.08129547  0.25151606  0.49804453  1
  H  H167  1  0.17191101  0.58254002  0.50386711  1
  H  H168  1  0.20195679  0.24897858  1.00741395  1
  H  H169  1  0.45500882  0.75437576  0.49140713  1
  H  H170  1  0.67426665  0.24987985  0.99609782  1
  H  H171  1  0.09323375  0.74781327  0.50563891  1
  H  H172  1  0.11852688  0.07914882  -0.01451080  1
  H  H173  1  0.79033773  0.08446725  -0.00713817  1
  H  H174  1  0.68804259  0.58365752  1.00640921  1
  H  H175  1  0.15838192  0.58280410  0.99424332  1
  H  H176  1  0.60585246  0.08311272  0.99492047  1
  H  H177  1  0.77538063  0.91826502  1.00895547  1
  H  H178  1  0.07045431  0.06669928  0.50054524  1
  H  H179  1  0.60998986  0.91882867  0.49102428  1
  H  H180  1  0.95675613  0.91974107  -0.00473098  1
  H  H181  1  0.56324574  0.06498818  0.50186710  1
  H  H182  1  0.65539366  0.41766451  0.49147072  1
  H  H183  1  0.32736040  0.91818251  0.99428784  1
  H  H184  1  0.81100730  0.11206350  0.49784586  1
  H  H185  1  0.68375061  0.10675403  0.49696071  1
  H  H186  1  0.06778465  0.75000997  1.00222438  1
  H  H187  1  0.08764706  0.41529233  0.50460925  1
  H  H188  1  0.36392340  0.24303686  0.98842153  1
  H  H189  1  0.92446656  0.41219314  0.50121163  1
  H  H190  1  0.55416667  0.58432349  0.50395835  1
  H  H191  1  0.91761698  0.07142395  0.50115712  1
  Pb  Pb192  1  0.25342967  0.04573423  0.74281199  1
  Pb  Pb193  1  0.25535377  0.38175431  0.75365280  1
  Pb  Pb194  1  0.24903379  0.71416812  0.74940891  1
  Pb  Pb195  1  0.75403529  0.05001075  0.74884694  1
  Pb  Pb196  1  0.75392542  0.38033569  0.74829556  1
  Pb  Pb197  1  0.75128557  0.71359230  0.75147802  1
  Pb  Pb198  1  0.24503983  0.28535990  0.24863047  1
  Pb  Pb199  1  0.24817013  0.62133030  0.25220007  1
  Pb  Pb200  1  0.25130200  0.95222318  0.25178721  1
  Pb  Pb201  1  0.74828903  0.28676367  0.24874601  1
  Pb  Pb202  1  0.74238939  0.61683873  0.24885579  1
  Pb  Pb203  1  0.75294145  0.95343213  0.24715396  1
  Pb  Pb204  1  0.00530526  0.21516877  0.75204896  1
  Pb  Pb205  1  0.00275988  0.54680286  0.74739398  1
  Pb  Pb206  1  -0.00171762  0.88127970  0.75689557  1
  Pb  Pb207  1  0.50118179  0.21422312  0.74794704  1
  Pb  Pb208  1  0.50269945  0.54800706  0.75195029  1
  Pb  Pb209  1  0.49756180  0.87897919  0.74838223  1
  Pb  Pb210  1  -0.00155489  0.11979022  0.25475317  1
  Pb  Pb211  1  -0.00333134  0.45390829  0.25362127  1
  Pb  Pb212  1  -0.00273803  0.78356112  0.25010165  1
  Pb  Pb213  1  0.49757048  0.11826279  0.25354402  1
  Pb  Pb214  1  0.49229412  0.45129944  0.25036764  1
  Pb  Pb215  1  0.49864568  0.78802939  0.24926340  1
  C  C216  1  0.00201796  0.04512437  0.63393589  1
  C  C217  1  0.00242819  0.37790310  0.63474797  1
  C  C218  1  0.00690207  0.71258774  0.63017309  1
  C  C219  1  0.50097707  0.04080317  0.63031111  1
  C  C220  1  0.50060994  0.37723053  0.62802730  1
  C  C221  1  0.50239938  0.71316662  0.63156023  1
  C  C222  1  -0.00252967  0.29002117  0.12992500  1
  C  C223  1  -0.00250358  0.61980405  0.13138903  1
  C  C224  1  0.00176827  0.95592895  0.13221274  1
  C  C225  1  0.49342404  0.28783014  0.13269271  1
  C  C226  1  0.50164778  0.62318259  0.12985683  1
  C  C227  1  0.50549820  0.95521409  0.12818701  1
  C  C228  1  0.00508764  0.04638339  0.86784668  1
  C  C229  1  0.00582081  0.37997968  0.87210847  1
  C  C230  1  -0.00745638  0.71103038  0.86925234  1
  C  C231  1  0.50461040  0.04528815  0.86923771  1
  C  C232  1  0.50278031  0.37884697  0.86576817  1
  C  C233  1  0.49731862  0.71306199  0.86951021  1
  C  C234  1  0.00280232  0.28716361  0.36673351  1
  C  C235  1  -0.00443413  0.62117889  0.36870758  1
  C  C236  1  0.01118227  0.95162777  0.36798251  1
  C  C237  1  0.49725160  0.28783470  0.36567829  1
  C  C238  1  0.49614509  0.62122774  0.36649683  1
  C  C239  1  0.50054738  0.95157160  0.37032636  1
  C  C240  1  0.24687949  0.21438770  0.63468074  1
  C  C241  1  0.25513710  0.54482987  0.63284042  1
  C  C242  1  0.24782838  0.87836828  0.62993673  1
  C  C243  1  0.75255471  0.21506121  0.62822959  1
  C  C244  1  0.75278688  0.54575745  0.63130604  1
  C  C245  1  0.75115637  0.87831847  0.63475871  1
  C  C246  1  0.24809573  0.12081881  0.13380627  1
  C  C247  1  0.24671529  0.45499010  0.13378003  1
  C  C248  1  0.25486585  0.78696720  0.12814414  1
  C  C249  1  0.74493907  0.12159009  0.13492361  1
  C  C250  1  0.74888125  0.45552595  0.12982350  1
  C  C251  1  0.75059123  0.78615586  0.13287029  1
  C  C252  1  0.25372649  0.21070431  0.86733371  1
  C  C253  1  0.25370744  0.54743133  0.86844756  1
  C  C254  1  0.24313715  0.87954954  0.87012796  1
  C  C255  1  0.75441040  0.21185336  0.86620955  1
  C  C256  1  0.75240244  0.54444874  0.86939857  1
  C  C257  1  0.74627117  0.87736850  0.87017252  1
  C  C258  1  0.25009950  0.12127480  0.36540533  1
  C  C259  1  0.24686472  0.45488736  0.36582935  1
  C  C260  1  0.24504420  0.78816634  0.36852772  1
  C  C261  1  0.74918963  0.12635505  0.36955635  1
  C  C262  1  0.74580903  0.45323663  0.36800570  1
  C  C263  1  0.74392369  0.78809217  0.37039680  1
  C  C264  1  0.47688984  0.07314108  0.96453514  1
  C  C265  1  0.26826454  0.75829407  0.46355812  1
  C  C266  1  0.21753343  0.10019402  0.46187430  1
  C  C267  1  0.97182028  0.74237392  0.53689861  1
  C  C268  1  0.55672751  0.40695859  0.53994332  1
  C  C269  1  0.04597908  0.40435697  0.54182008  1
  C  C270  1  0.77497916  0.90683249  0.53987632  1
  C  C271  1  0.06876178  0.07108909  0.95374774  1
  C  C272  1  0.20662249  0.90984645  0.96417721  1
  C  C273  1  0.45071761  0.25786963  0.04190197  1
  C  C274  1  0.98802489  0.07468731  0.96515596  1
  C  C275  1  0.73007804  0.57578169  0.53579219  1
  C  C276  1  0.03010994  0.73956632  0.96242961  1
  C  C277  1  0.68098727  0.09815900  0.04859068  1
  C  C278  1  0.22661150  0.75547214  0.03288686  1
  C  C279  1  0.68942481  0.23871331  0.54097341  1
  C  C280  1  0.55805000  0.07249238  0.95940938  1
  C  C281  1  0.21329932  0.57264944  0.54174579  1
  C  C282  1  0.76098512  0.09530940  0.03650410  1
  C  C283  1  0.67510369  0.90410680  0.95219041  1
  C  C284  1  0.26341629  0.42737513  0.03772475  1
  C  C285  1  0.43893292  0.73917263  0.95593029  1
  C  C286  1  0.71442742  0.23884472  0.95806162  1
  C  C287  1  0.06322190  0.92727318  0.04698154  1
  C  C288  1  0.48060526  0.92599042  0.46785856  1
  C  C289  1  0.20443420  0.57357944  0.95814045  1
  C  C290  1  0.04136191  0.26085901  0.45926236  1
  C  C291  1  0.02542609  0.58952880  0.46212926  1
  C  C292  1  0.26621404  0.91048306  0.53509245  1
  C  C293  1  0.69384702  0.42840053  0.04020081  1
  C  C294  1  0.48519395  0.74129198  0.53401881  1
  C  C295  1  0.95658479  0.06802429  0.54127452  1
  C  C296  1  0.56547650  0.73696172  0.54497473  1
  C  C297  1  0.52145793  0.59470401  0.46166132  1
  C  C298  1  0.04933234  0.59227602  0.04251524  1
  C  C299  1  0.44516594  0.59263228  0.04215985  1
  C  C300  1  0.48835901  0.40551318  0.96426847  1
  C  C301  1  0.56121951  0.92781978  0.45854343  1
  C  C302  1  0.80383184  0.57016559  0.95942324  1
  C  C303  1  0.76730732  0.75444620  0.46558668  1
  C  C304  1  0.56805535  0.40174791  0.95139001  1
  C  C305  1  0.31416268  0.23457009  0.95538700  1
  C  C306  1  0.46603467  0.92507265  0.03470123  1
  C  C307  1  0.23281951  0.23793762  0.96447078  1
  C  C308  1  0.76982366  0.24128608  0.53053219  1
  C  C309  1  0.77480798  0.42787618  0.03418894  1
  C  C310  1  0.96378504  0.40310025  0.54026857  1
  C  C311  1  0.72275969  0.57251890  0.96530508  1
  N  N312  1  0.44258625  0.59587301  0.45700418  1
  N  N313  1  0.97342190  0.92560587  0.46231486  1
  N  N314  1  0.54506425  0.92576083  0.03683143  1
  N  N315  1  0.75204077  0.90914089  0.96530617  1
  N  N316  1  0.96194221  0.25948697  0.46048049  1
  N  N317  1  0.20811715  0.42605544  0.45869339  1
  N  N318  1  0.70771683  0.08764749  0.45766545  1
  N  N319  1  0.27479217  0.09108563  0.03892900  1
  N  N320  1  0.95042391  0.73945995  0.95994326  1
  N  N321  1  0.94059511  0.26079856  0.04282171  1
  N  N322  1  0.27601505  0.23955377  0.53863661  1
  N  N323  1  0.94770916  0.59129941  0.45963484  1
  N  N324  1  0.69617878  0.90616502  0.54599745  1
  N  N325  1  0.30508376  0.75897823  0.03956643  1
  N  N326  1  0.77767256  0.42427275  0.46243537  1
  N  N327  1  0.80878660  0.57385798  0.54511320  1
  N  N328  1  0.47766771  0.40915918  0.53452283  1
  N  N329  1  0.51519166  0.74231959  0.96725798  1
  N  N330  1  0.01813313  0.25776649  0.03770360  1
  N  N331  1  0.47154409  0.25660649  0.46028893  1
  N  N332  1  0.19109310  0.75896052  0.45773513  1
  N  N333  1  0.28467502  0.42510751  0.45860245  1
  N  N334  1  0.18496270  0.42913231  0.04673578  1
  N  N335  1  0.03630884  0.06958955  0.53991366  1
  N  N336  1  0.19908365  0.09243770  0.04431172  1
  N  N337  1  0.52367911  0.59205392  0.03618060  1
  N  N338  1  0.18930971  0.90816936  0.54269982  1
  N  N339  1  0.45403705  0.07407804  0.54114451  1
  N  N340  1  0.72887384  0.75619988  0.03714530  1
  N  N341  1  0.97231856  0.58913863  0.03502623  1
  N  N342  1  0.19970542  0.23812607  0.54242788  1
  N  N343  1  0.80476425  0.75758003  0.04462139  1
  N  N344  1  0.29717394  0.09995918  0.45703644  1
  N  N345  1  0.52817679  0.25749721  0.03804384  1
  N  N346  1  0.96954718  0.40959278  0.96536240  1
  N  N347  1  0.28580115  0.90918461  0.96036860  1
  N  N348  1  0.98440201  0.92437734  0.03787709  1
  N  N349  1  0.29240490  0.57466773  0.53887658  1
  N  N350  1  0.68937062  0.75921820  0.45733124  1
  N  N351  1  0.79355923  0.23943553  0.96037201  1
  N  N352  1  0.69943523  0.42488481  0.45640990  1
  N  N353  1  0.53740842  0.08116745  0.54186197  1
  N  N354  1  0.05137067  0.74275448  0.54080709  1
  N  N355  1  0.28344915  0.57540588  0.96461189  1
  N  N356  1  0.54731781  0.25809716  0.45450126  1
  N  N357  1  0.04760913  0.40872569  0.96141567  1
  N  N358  1  0.05163741  0.92596428  0.45861288  1
  N  N359  1  0.79125299  0.08999974  0.45874483  1
  N  N360  1  0.06425921  0.05141658  0.59639883  1
  N  N361  1  0.06840999  0.38880446  0.60083489  1
  N  N362  1  0.07275361  0.72282538  0.59768799  1
  N  N363  1  0.56296466  0.05547567  0.59527333  1
  N  N364  1  0.57066924  0.38843615  0.59829862  1
  N  N365  1  0.57539251  0.72034617  0.60450486  1
  N  N366  1  0.42694692  0.27592405  0.09929033  1
  N  N367  1  0.43136624  0.61124892  0.10034828  1
  N  N368  1  0.44140248  0.94279337  0.09147565  1
  N  N369  1  0.92822614  0.27949933  0.10091145  1
  N  N370  1  0.93972966  0.60689330  0.09164924  1
  N  N371  1  0.94660337  0.94535605  0.08939103  1
  N  N372  1  0.44468600  0.05693344  0.91030175  1
  N  N373  1  0.44841710  0.39088702  0.90935801  1
  N  N374  1  0.42528830  0.72208221  0.89615045  1
  N  N375  1  0.94973985  0.05903945  0.91117926  1
  N  N376  1  0.94401832  0.39221260  0.90932469  1
  N  N377  1  0.92753268  0.72029787  0.90303333  1
  N  N378  1  0.06784489  0.27711303  0.40188460  1
  N  N379  1  0.05674638  0.60762164  0.40727897  1
  N  N380  1  0.07596564  0.94175187  0.40189758  1
  N  N381  1  0.56495678  0.27726478  0.39610269  1
  N  N382  1  0.55611922  0.60975240  0.40634282  1
  N  N383  1  0.57224391  0.94383312  0.39684502  1
  N  N384  1  0.30662387  0.22492431  0.59550732  1
  N  N385  1  0.31695533  0.55721619  0.59611167  1
  N  N386  1  0.30429333  0.89262570  0.58737487  1
  N  N387  1  0.80797974  0.22715798  0.58310146  1
  N  N388  1  0.82241945  0.55388169  0.60337595  1
  N  N389  1  0.81016841  0.89022399  0.59417817  1
  N  N390  1  0.18072328  0.11046760  0.10298279  1
  N  N391  1  0.17636877  0.44602274  0.10697934  1
  N  N392  1  0.19510667  0.77288967  0.08778667  1
  N  N393  1  0.67168236  0.11381450  0.10821807  1
  N  N394  1  0.67912666  0.44577681  0.10113356  1
  N  N395  1  0.69398307  0.77383000  0.09151816  1
  N  N396  1  0.19653424  0.22320337  0.90917317  1
  N  N397  1  0.18503024  0.55698062  0.89915793  1
  N  N398  1  0.18007944  0.89217440  0.90796289  1
  N  N399  1  0.68878343  0.22213747  0.90058932  1
  N  N400  1  0.69154269  0.55630193  0.90784074  1
  N  N401  1  0.67134852  0.88586233  0.89275519  1
  N  N402  1  0.31704278  0.11631246  0.39791310  1
  N  N403  1  0.30997278  0.44274863  0.40104080  1
  N  N404  1  0.30353202  0.77613495  0.41005297  1
  N  N405  1  0.81318469  0.11605953  0.40426910  1
  N  N406  1  0.80574031  0.44114839  0.40697863  1
  N  N407  1  0.80155642  0.77235397  0.41181672  1
  N  N408  1  0.43879605  0.27523138  0.40540526  1
  N  N409  1  0.42854514  0.61218186  0.39768782  1
  N  N410  1  0.44404482  0.94007141  0.41462685  1
  N  N411  1  0.93985122  0.27605914  0.40258538  1
  N  N412  1  0.92909281  0.61104926  0.40035076  1
  N  N413  1  0.94888862  0.94107276  0.40520869  1
  N  N414  1  0.07775961  0.05399169  0.89328912  1
  N  N415  1  0.07124557  0.39004517  0.90527984  1
  N  N416  1  0.05639950  0.72324797  0.90570411  1
  N  N417  1  0.57381897  0.05493546  0.89871922  1
  N  N418  1  0.57651965  0.38594548  0.89182984  1
  N  N419  1  0.55176528  0.72563998  0.91204549  1
  N  N420  1  0.05468490  0.27722379  0.08956599  1
  N  N421  1  0.06715973  0.61062445  0.10103964  1
  N  N422  1  0.07379874  0.94496754  0.10618114  1
  N  N423  1  0.55490647  0.27656071  0.09592631  1
  N  N424  1  0.55971890  0.61295161  0.08939611  1
  N  N425  1  0.57002617  0.94515887  0.09417585  1
  N  N426  1  0.43546402  0.04876033  0.59685939  1
  N  N427  1  0.44244863  0.38917043  0.58844430  1
  N  N428  1  0.44670667  0.72592219  0.58920458  1
  N  N429  1  0.93507000  0.05533454  0.60001826  1
  N  N430  1  0.93824856  0.38690660  0.59830760  1
  N  N431  1  0.94392245  0.72464768  0.59270105  1
  N  N432  1  0.18823407  0.11129941  0.40478629  1
  N  N433  1  0.18339419  0.44458069  0.40142954  1
  N  N434  1  0.17655867  0.77772842  0.39729492  1
  N  N435  1  0.68538654  0.11370894  0.40346903  1
  N  N436  1  0.67917273  0.44351798  0.39962179  1
  N  N437  1  0.67459213  0.78014501  0.39882512  1
  N  N438  1  0.32511253  0.21799701  0.89482987  1
  N  N439  1  0.31245507  0.55901053  0.90821931  1
  N  N440  1  0.30867337  0.88954523  0.90276920  1
  N  N441  1  0.81685824  0.22274984  0.90278000  1
  N  N442  1  0.82134444  0.55366316  0.90151938  1
  N  N443  1  0.79674443  0.89026491  0.91532528  1
  N  N444  1  0.30669040  0.10879596  0.09405668  1
  N  N445  1  0.30260028  0.44289475  0.09077018  1
  N  N446  1  0.32299451  0.77844610  0.09821739  1
  N  N447  1  0.80013762  0.11013736  0.09178487  1
  N  N448  1  0.80808979  0.44399741  0.08800146  1
  N  N449  1  0.81952343  0.77606433  0.10412061  1
  N  N450  1  0.18035791  0.22268785  0.60212743  1
  N  N451  1  0.18884946  0.55499957  0.59920256  1
  N  N452  1  0.17785595  0.88817031  0.60313970  1
  N  N453  1  0.68031244  0.22243660  0.60277954  1
  N  N454  1  0.69488025  0.55908666  0.58949012  1
  N  N455  1  0.68286301  0.88830407  0.60517263  1
  Cl  Cl456  1  0.24990417  0.05935213  0.60459720  1
  Cl  Cl457  1  0.25815810  0.38861677  0.62293378  1
  Cl  Cl458  1  0.25744362  0.72546786  0.61718862  1
  Cl  Cl459  1  0.74842079  0.06552613  0.60677957  1
  Cl  Cl460  1  0.75199799  0.38703819  0.61641250  1
  Cl  Cl461  1  0.75999757  0.71997177  0.61697637  1
  Cl  Cl462  1  0.23908493  0.27656096  0.11266964  1
  Cl  Cl463  1  0.24892884  0.61894459  0.12055670  1
  Cl  Cl464  1  0.25881932  0.94303459  0.11626396  1
  Cl  Cl465  1  0.74060917  0.28101608  0.11657576  1
  Cl  Cl466  1  0.74654276  0.60612502  0.11413046  1
  Cl  Cl467  1  0.76120704  0.93875333  0.10328024  1
  Cl  Cl468  1  0.26286168  0.04688180  0.87327577  1
  Cl  Cl469  1  0.25819919  0.39109965  0.89046628  1
  Cl  Cl470  1  0.24071516  0.72544726  0.88420045  1
  Cl  Cl471  1  0.76792330  0.05336432  0.88196834  1
  Cl  Cl472  1  0.76107025  0.39015780  0.88020233  1
  Cl  Cl473  1  0.74216411  0.72149568  0.88332855  1
  Cl  Cl474  1  0.25375734  0.27757414  0.37944294  1
  Cl  Cl475  1  0.24103215  0.61646653  0.38481354  1
  Cl  Cl476  1  0.25896328  0.94593273  0.38611193  1
  Cl  Cl477  1  0.75207190  0.27695019  0.38310601  1
  Cl  Cl478  1  0.74192794  0.61311200  0.38772421  1
  Cl  Cl479  1  0.76519633  0.94405256  0.38038578  1
  Cl  Cl480  1  -0.00453472  0.21944356  0.61830474  1
  Cl  Cl481  1  0.00469486  0.55722242  0.61509082  1
  Cl  Cl482  1  -0.00632352  0.88587848  0.62415282  1
  Cl  Cl483  1  0.49103419  0.22213870  0.61794786  1
  Cl  Cl484  1  0.50902797  0.55283535  0.61635397  1
  Cl  Cl485  1  0.49153937  0.89054332  0.61669280  1
  Cl  Cl486  1  -0.01007143  0.11221006  0.12005288  1
  Cl  Cl487  1  -0.00713944  0.44693642  0.12126701  1
  Cl  Cl488  1  0.00747195  0.77682514  0.11333479  1
  Cl  Cl489  1  0.48743034  0.10965326  0.12214137  1
  Cl  Cl490  1  0.48691125  0.44883548  0.11690975  1
  Cl  Cl491  1  0.50733473  0.78357313  0.11775292  1
  Cl  Cl492  1  0.00917644  0.22614878  0.89156159  1
  Cl  Cl493  1  0.00333177  0.55112089  0.87714338  1
  Cl  Cl494  1  -0.01500569  0.89466011  0.89944607  1
  Cl  Cl495  1  0.50701887  0.21665126  0.87822565  1
  Cl  Cl496  1  0.50384194  0.56059268  0.89077806  1
  Cl  Cl497  1  0.49110643  0.89087494  0.88368185  1
  Cl  Cl498  1  0.00113735  0.10366059  0.39309874  1
  Cl  Cl499  1  -0.00503647  0.44490286  0.38933720  1
  Cl  Cl500  1  -0.01229750  0.77541961  0.38693346  1
  Cl  Cl501  1  0.50172742  0.09879180  0.39358173  1
  Cl  Cl502  1  0.49484871  0.44243843  0.38968146  1
  Cl  Cl503  1  0.48798249  0.78134202  0.38412327  1
  Cl  Cl504  1  0.36208514  0.14816590  0.74995661  1
  Cl  Cl505  1  0.36085731  0.48349391  0.75259302  1
  Cl  Cl506  1  0.35536902  0.81783871  0.75648292  1
  Cl  Cl507  1  0.85363540  0.14896240  0.74555723  1
  Cl  Cl508  1  0.86404861  0.48186021  0.74428898  1
  Cl  Cl509  1  0.85836134  0.81711495  0.75458535  1
  Cl  Cl510  1  0.13931338  0.18382366  0.24909551  1
  Cl  Cl511  1  0.13631045  0.52025477  0.24388030  1
  Cl  Cl512  1  0.13633985  0.85393761  0.25220818  1
  Cl  Cl513  1  0.63352594  0.18722502  0.25019970  1
  Cl  Cl514  1  0.64036175  0.52041572  0.25390686  1
  Cl  Cl515  1  0.64200140  0.85245680  0.25523741  1
  Cl  Cl516  1  0.13950924  0.14529200  0.75134775  1
  Cl  Cl517  1  0.13922372  0.48014092  0.75027336  1
  Cl  Cl518  1  0.13522332  0.81460334  0.74683160  1
  Cl  Cl519  1  0.63352790  0.14424927  0.73879555  1
  Cl  Cl520  1  0.64239950  0.48175055  0.75150841  1
  Cl  Cl521  1  0.63621988  0.81313972  0.74632719  1
  Cl  Cl522  1  0.35933455  0.18482779  0.25046123  1
  Cl  Cl523  1  0.35751497  0.51907138  0.25459850  1
  Cl  Cl524  1  0.35671480  0.84876854  0.24378502  1
  Cl  Cl525  1  0.85685371  0.18330756  0.25342398  1
  Cl  Cl526  1  0.85681922  0.51753625  0.25501548  1
  Cl  Cl527  1  0.86303077  0.85218946  0.24556262  1
  Cl  Cl528  1  0.10827377  0.31135830  0.75147350  1
  Cl  Cl529  1  0.10864314  0.64999956  0.75075523  1
  Cl  Cl530  1  0.11433489  0.97918026  0.75572822  1
  Cl  Cl531  1  0.61378760  0.31470826  0.74834277  1
  Cl  Cl532  1  0.61086551  0.65002489  0.74504984  1
  Cl  Cl533  1  0.61105699  0.97765653  0.75118471  1
  Cl  Cl534  1  0.39335805  0.01448257  0.25566013  1
  Cl  Cl535  1  0.39294046  0.35281169  0.24999457  1
  Cl  Cl536  1  0.38925228  0.68505381  0.24622810  1
  Cl  Cl537  1  0.89374575  0.01513315  0.25332973  1
  Cl  Cl538  1  0.88961148  0.34999222  0.24859848  1
  Cl  Cl539  1  0.89231437  0.68523471  0.25108646  1
  Cl  Cl540  1  0.39163618  0.31527586  0.75236214  1
  Cl  Cl541  1  0.38840343  0.64803000  0.75433135  1
  Cl  Cl542  1  0.39346810  0.98354239  0.74682736  1
  Cl  Cl543  1  0.89151248  0.31446344  0.75380875  1
  Cl  Cl544  1  0.89089335  0.64778153  0.74954116  1
  Cl  Cl545  1  0.89298930  0.98554415  0.74565065  1
  Cl  Cl546  1  0.11428202  0.02116880  0.24438144  1
  Cl  Cl547  1  0.10827315  0.35225599  0.24966004  1
  Cl  Cl548  1  0.11120665  0.68653461  0.24877502  1
  Cl  Cl549  1  0.61587925  0.02123337  0.25249702  1
  Cl  Cl550  1  0.61276196  0.35591305  0.25368270  1
  Cl  Cl551  1  0.60773249  0.68550630  0.25175954  1
