# generated using pymatgen
data_H8PbC4(N3Cl2)2
_symmetry_space_group_name_H-M   'P 1'
_cell_length_a   16.63207038
_cell_length_b   22.52308071
_cell_length_c   21.59834513
_cell_angle_alpha   90.00317988
_cell_angle_beta   89.95647197
_cell_angle_gamma   89.99969569
_symmetry_Int_Tables_number   1
_chemical_formula_structural   H8PbC4(N3Cl2)2
_chemical_formula_sum   'H192 Pb24 C96 N144 Cl96'
_cell_volume   8090.85574112
_cell_formula_units_Z   24
loop_
 _symmetry_equiv_pos_site_id
 _symmetry_equiv_pos_as_xyz
  1  'x, y, z'
loop_
 _atom_site_type_symbol
 _atom_site_label
 _atom_site_symmetry_multiplicity
 _atom_site_fract_x
 _atom_site_fract_y
 _atom_site_fract_z
 _atom_site_occupancy
  H  H0  1  -0.00794284  0.03116229  0.67943558  1
  H  H1  1  -0.00275981  0.35885990  0.67412403  1
  H  H2  1  0.01533872  0.69200933  0.68009358  1
  H  H3  1  0.48810070  0.02990295  0.67648478  1
  H  H4  1  0.49656785  0.36253361  0.68035780  1
  H  H5  1  0.48352924  0.69869729  0.67898088  1
  H  H6  1  -0.00272148  0.30604989  0.17908107  1
  H  H7  1  -0.00468440  0.63911108  0.18279074  1
  H  H8  1  -0.01085911  0.97018332  0.17535379  1
  H  H9  1  0.51996144  0.30094904  0.15726190  1
  H  H10  1  0.51357174  0.63596038  0.17775384  1
  H  H11  1  0.50739927  0.97394004  0.17518767  1
  H  H12  1  -0.00613831  0.02696859  0.82054223  1
  H  H13  1  -0.00168512  0.36246045  0.82378792  1
  H  H14  1  0.00781476  0.69869739  0.81630429  1
  H  H15  1  0.51078581  0.03017851  0.82468534  1
  H  H16  1  0.49490383  0.36083388  0.82241902  1
  H  H17  1  0.50546646  0.69554827  0.81994173  1
  H  H18  1  -0.00680066  0.30486103  0.31739897  1
  H  H19  1  -0.00080427  0.63506966  0.32678165  1
  H  H20  1  0.00259073  0.97527137  0.32550747  1
  H  H21  1  0.51207670  0.30158750  0.32003191  1
  H  H22  1  0.49915179  0.63267813  0.31503652  1
  H  H23  1  0.50029483  0.97282244  0.32167857  1
  H  H24  1  0.24750131  0.19386604  0.67831922  1
  H  H25  1  0.26705746  0.53099686  0.67980691  1
  H  H26  1  0.23898403  0.86646766  0.67643456  1
  H  H27  1  0.74288971  0.18726933  0.67839524  1
  H  H28  1  0.73170925  0.52970908  0.67595136  1
  H  H29  1  0.75968137  0.86350529  0.67936675  1
  H  H30  1  0.24754991  0.13511488  0.17843718  1
  H  H31  1  0.24960513  0.46966779  0.17607277  1
  H  H32  1  0.24568641  0.80634923  0.17461622  1
  H  H33  1  0.75707034  0.14496011  0.17475120  1
  H  H34  1  0.75382119  0.47108088  0.18287236  1
  H  H35  1  0.74531684  0.81040809  0.17712258  1
  H  H36  1  0.25171855  0.18956760  0.82301670  1
  H  H37  1  0.23491503  0.52814503  0.81950783  1
  H  H38  1  0.24900626  0.86161035  0.82426714  1
  H  H39  1  0.73559534  0.20044977  0.84960525  1
  H  H40  1  0.75941064  0.52697860  0.82299625  1
  H  H41  1  0.74646599  0.86550793  0.83152739  1
  H  H42  1  0.25990743  0.14086875  0.32269090  1
  H  H43  1  0.24279280  0.46782348  0.31958285  1
  H  H44  1  0.24051259  0.80357376  0.31686417  1
  H  H45  1  0.74912989  0.13514628  0.31447574  1
  H  H46  1  0.73446785  0.47047569  0.32459468  1
  H  H47  1  0.76731029  0.80971517  0.32358561  1
  H  H48  1  0.12923693  0.04667181  0.62334453  1
  H  H49  1  0.11843712  0.38845579  0.60242623  1
  H  H50  1  0.12978148  0.72216266  0.60186130  1
  H  H51  1  0.62693704  0.04710270  0.62489488  1
  H  H52  1  0.62308088  0.38715211  0.61058231  1
  H  H53  1  0.62495281  0.71650951  0.62961207  1
  H  H54  1  0.41635756  0.26415934  0.07534517  1
  H  H55  1  0.38066069  0.61626750  0.11902182  1
  H  H56  1  0.38237180  0.94537026  0.10575445  1
  H  H57  1  0.88135448  0.27609578  0.10498789  1
  H  H58  1  0.88420644  0.61003327  0.10292621  1
  H  H59  1  0.88716598  0.94013016  0.08878340  1
  H  H60  1  0.37093337  0.05093578  0.87944967  1
  H  H61  1  0.38729483  0.39398771  0.90258532  1
  H  H62  1  0.36670394  0.71629728  0.87656760  1
  H  H63  1  0.87057342  0.05215436  0.89340338  1
  H  H64  1  0.89163978  0.38687350  0.90595793  1
  H  H65  1  0.86959714  0.72046287  0.87375820  1
  H  H66  1  0.11935825  0.27963359  0.38657158  1
  H  H67  1  0.12024291  0.60959794  0.40000195  1
  H  H68  1  0.12377360  0.94625818  0.39647180  1
  H  H69  1  0.61061208  0.27606808  0.40772076  1
  H  H70  1  0.62379461  0.61053094  0.38609513  1
  H  H71  1  0.62421749  0.94711809  0.38930083  1
  H  H72  1  0.37929687  0.21562006  0.61745237  1
  H  H73  1  0.36585173  0.55614341  0.59150335  1
  H  H74  1  0.37526091  0.88664794  0.62182168  1
  H  H75  1  0.87980157  0.21395790  0.62525522  1
  H  H76  1  0.87777310  0.54897385  0.63189412  1
  H  H77  1  0.87165016  0.89068561  0.59812571  1
  H  H78  1  0.13701883  0.10791246  0.09719233  1
  H  H79  1  0.11289269  0.44901951  0.12146737  1
  H  H80  1  0.13519071  0.77502409  0.09613742  1
  H  H81  1  0.63056332  0.11516695  0.10776841  1
  H  H82  1  0.61931191  0.45232105  0.12483225  1
  H  H83  1  0.63276054  0.77899742  0.09873237  1
  H  H84  1  0.11399542  0.21597030  0.87635114  1
  H  H85  1  0.12611447  0.55721015  0.90315096  1
  H  H86  1  0.11534965  0.88631906  0.88558741  1
  H  H87  1  0.59720616  0.21928729  0.90039951  1
  H  H88  1  0.62001221  0.55080203  0.87678534  1
  H  H89  1  0.62312441  0.88979656  0.89978903  1
  H  H90  1  0.37216782  0.10814524  0.40036182  1
  H  H91  1  0.37423111  0.44635656  0.38404906  1
  H  H92  1  0.36910911  0.78253279  0.38495209  1
  H  H93  1  0.86962700  0.10983631  0.38985068  1
  H  H94  1  0.87463679  0.44998082  0.37767283  1
  H  H95  1  0.86922435  0.77567273  0.40813885  1
  H  H96  1  0.36758071  0.28515722  0.36633780  1
  H  H97  1  0.37447881  0.61489005  0.38620826  1
  H  H98  1  0.37526945  0.95062097  0.39049952  1
  H  H99  1  0.87130502  0.28024307  0.39194364  1
  H  H100  1  0.87190430  0.60927719  0.39236787  1
  H  H101  1  0.87487709  0.94606320  0.39071233  1
  H  H102  1  0.11988740  0.05351342  0.88807977  1
  H  H103  1  0.13740420  0.38278552  0.87524796  1
  H  H104  1  0.11575999  0.72542016  0.89849063  1
  H  H105  1  0.61581498  0.05701739  0.91011876  1
  H  H106  1  0.63343097  0.38160781  0.87753873  1
  H  H107  1  0.61267481  0.72478979  0.90207400  1
  H  H108  1  0.12851652  0.28195454  0.11495540  1
  H  H109  1  0.13159499  0.61712602  0.12327576  1
  H  H110  1  0.13091466  0.95190795  0.12487989  1
  H  H111  1  0.66138700  0.27960543  0.10793941  1
  H  H112  1  0.62831684  0.60945939  0.09966474  1
  H  H113  1  0.63105461  0.94629534  0.10430752  1
  H  H114  1  0.38210731  0.05463132  0.59257090  1
  H  H115  1  0.37411874  0.38675691  0.60776690  1
  H  H116  1  0.38138905  0.72930557  0.59265809  1
  H  H117  1  0.88266120  0.05624800  0.59902941  1
  H  H118  1  0.87028787  0.38656395  0.60723933  1
  H  H119  1  0.88230238  0.71979139  0.62211964  1
  H  H120  1  0.12484853  0.11439837  0.38081035  1
  H  H121  1  0.12643559  0.44248920  0.39826598  1
  H  H122  1  0.11927263  0.78264064  0.39123434  1
  H  H123  1  0.62101722  0.11134008  0.38433224  1
  H  H124  1  0.62987280  0.43835651  0.40687897  1
  H  H125  1  0.62668370  0.78711792  0.37482620  1
  H  H126  1  0.35991886  0.22382042  0.90267803  1
  H  H127  1  0.37186580  0.54968025  0.87793745  1
  H  H128  1  0.36295716  0.89217955  0.90204458  1
  H  H129  1  0.84135123  0.23101742  0.93110198  1
  H  H130  1  0.86496764  0.55643895  0.90804526  1
  H  H131  1  0.87150987  0.88865414  0.89747301  1
  H  H132  1  0.38398838  0.11450758  0.12082524  1
  H  H133  1  0.36002696  0.44387522  0.09602210  1
  H  H134  1  0.38145443  0.78351700  0.11653794  1
  H  H135  1  0.87905401  0.11429510  0.10205110  1
  H  H136  1  0.86681835  0.44263819  0.10629542  1
  H  H137  1  0.88002216  0.78472962  0.12082080  1
  H  H138  1  0.13115256  0.22068178  0.60420255  1
  H  H139  1  0.12313610  0.55021805  0.63221575  1
  H  H140  1  0.12857665  0.89189582  0.59581430  1
  H  H141  1  0.63295906  0.22166263  0.59916643  1
  H  H142  1  0.63663421  0.55779855  0.58620927  1
  H  H143  1  0.62434736  0.88567234  0.62116757  1
  H  H144  1  0.87259057  0.57557161  0.52073938  1
  H  H145  1  0.54106159  0.74843085  1.00694557  1
  H  H146  1  0.42082779  0.58719765  0.49710904  1
  H  H147  1  0.70261598  0.24906364  0.49881552  1
  H  H148  1  0.57274586  0.57179711  0.48758452  1
  H  H149  1  0.20623573  0.76074390  -0.00682039  1
  H  H150  1  0.53095321  0.24713796  0.50940252  1
  H  H151  1  0.29383456  0.41811215  -0.01125602  1
  H  H152  1  0.28672615  0.58224728  0.48980045  1
  H  H153  1  0.85330559  0.75223968  0.00877128  1
  H  H154  1  0.17289969  0.77296550  0.50429663  1
  H  H155  1  0.28975336  0.24923719  1.00444322  1
  H  H156  1  0.39258006  0.07814985  0.98962383  1
  H  H157  1  0.96243331  0.41661075  1.01138562  1
  H  H158  1  0.18694878  0.25077662  0.49582856  1
  H  H159  1  0.45972794  0.75433082  0.49496297  1
  H  H160  1  0.10908700  0.07512571  0.50972885  1
  H  H161  1  0.69975181  0.75734636  -0.00416062  1
  H  H162  1  0.13655126  0.25082715  0.98715498  1
  H  H163  1  0.78672359  0.58396470  1.00602555  1
  H  H164  1  0.14835417  0.91654240  0.99357411  1
  H  H165  1  0.72065879  0.58502098  0.48672648  1
  H  H166  1  0.85644168  0.25105364  0.51469175  1
  H  H167  1  0.12825232  0.41743160  0.00159555  1
  H  H168  1  0.06377261  0.73792366  0.49707183  1
  H  H169  1  0.61141250  0.75079378  0.51646506  1
  H  H170  1  0.91414963  0.75662676  0.51164262  1
  H  H171  1  0.46075008  0.41982905  1.00441137  1
  H  H172  1  0.43580462  0.91760211  0.00061875  1
  H  H173  1  0.95220080  0.57801150  -0.00041867  1
  H  H174  1  0.94882547  0.08224687  0.49171860  1
  H  H175  1  0.13575220  0.57539222  0.52212955  1
  H  H176  1  0.49141815  0.24304666  -0.02576843  1
  H  H177  1  0.80422174  0.41022310  -0.00061192  1
  H  H178  1  0.04447103  0.74929470  1.00396030  1
  H  H179  1  0.91576074  0.41462663  0.50225043  1
  H  H180  1  0.32479973  0.76883882  0.49424811  1
  H  H181  1  0.65156888  0.91914767  0.51046533  1
  H  H182  1  0.35538566  0.92176304  0.50815924  1
  H  H183  1  0.19091373  0.41177690  0.49920531  1
  H  H184  1  0.42592770  0.41434746  0.49968583  1
  H  H185  1  0.35278339  0.74607423  0.01160612  1
  H  H186  1  0.61097127  0.07516332  0.50902801  1
  H  H187  1  0.07249687  0.08716589  0.99630806  1
  H  H188  1  0.40916380  0.58218178  0.00568947  1
  H  H189  1  0.78822087  0.75272807  0.50615303  1
  H  H190  1  0.64367120  0.42157484  0.01122956  1
  H  H191  1  0.35206028  0.24769788  0.50428241  1
  Pb  Pb192  1  0.25177105  0.04899764  0.74433302  1
  Pb  Pb193  1  0.25224017  0.38039573  0.74434409  1
  Pb  Pb194  1  0.25457199  0.71942750  0.74613120  1
  Pb  Pb195  1  0.75560522  0.04954619  0.75289272  1
  Pb  Pb196  1  0.75381877  0.38090084  0.75182770  1
  Pb  Pb197  1  0.74914385  0.71583342  0.75377414  1
  Pb  Pb198  1  0.24588865  0.28176131  0.23429852  1
  Pb  Pb199  1  0.24935707  0.61977792  0.25724057  1
  Pb  Pb200  1  0.25221743  0.95294450  0.25061883  1
  Pb  Pb201  1  0.74802561  0.28714263  0.26626069  1
  Pb  Pb202  1  0.74991212  0.61809508  0.24383507  1
  Pb  Pb203  1  0.74971394  0.95206890  0.24256058  1
  Pb  Pb204  1  -0.00223336  0.21451003  0.75744209  1
  Pb  Pb205  1  -0.00034229  0.54798072  0.76319421  1
  Pb  Pb206  1  -0.00036808  0.88144918  0.74208721  1
  Pb  Pb207  1  0.50408808  0.21422783  0.74807121  1
  Pb  Pb208  1  0.50141122  0.54753713  0.73264788  1
  Pb  Pb209  1  0.50473812  0.88511029  0.76013153  1
  Pb  Pb210  1  -0.00448901  0.11624438  0.24405989  1
  Pb  Pb211  1  -0.00021029  0.45334485  0.25299397  1
  Pb  Pb212  1  0.00094223  0.78619768  0.25314313  1
  Pb  Pb213  1  0.49996520  0.11941204  0.25482076  1
  Pb  Pb214  1  0.49192466  0.44755873  0.24763308  1
  Pb  Pb215  1  0.49984767  0.78561111  0.25155654  1
  C  C216  1  0.00177394  0.04427512  0.63157602  1
  C  C217  1  -0.00488410  0.37684529  0.62763042  1
  C  C218  1  0.00976174  0.70907042  0.63320071  1
  C  C219  1  0.50010112  0.04332436  0.62919133  1
  C  C220  1  0.49799523  0.37869682  0.63304277  1
  C  C221  1  0.49660567  0.71329242  0.63195688  1
  C  C222  1  0.00297498  0.28876941  0.13266407  1
  C  C223  1  0.00387822  0.62231884  0.13618118  1
  C  C224  1  0.00242793  0.95452514  0.12912691  1
  C  C225  1  0.53187144  0.28380455  0.11105970  1
  C  C226  1  0.50681433  0.62033363  0.13061796  1
  C  C227  1  0.50649873  0.95646158  0.12846829  1
  C  C228  1  -0.00526403  0.04387793  0.86749724  1
  C  C229  1  0.00953096  0.37725587  0.87094618  1
  C  C230  1  -0.00284071  0.71336920  0.86351064  1
  C  C231  1  0.49868451  0.04561497  0.87135503  1
  C  C232  1  0.50485435  0.37748801  0.86892093  1
  C  C233  1  0.49440817  0.71053079  0.86696804  1
  C  C234  1  -0.00552244  0.28882253  0.36471289  1
  C  C235  1  -0.00259768  0.61808678  0.37359199  1
  C  C236  1  0.00025401  0.95625245  0.37135869  1
  C  C237  1  0.49664899  0.28778216  0.36671530  1
  C  C238  1  0.49958285  0.61822061  0.36310148  1
  C  C239  1  0.50003745  0.95687693  0.36894585  1
  C  C240  1  0.25300392  0.20991726  0.63102685  1
  C  C241  1  0.25131562  0.54612178  0.63355548  1
  C  C242  1  0.24838610  0.88211096  0.62955407  1
  C  C243  1  0.75167009  0.20608897  0.63248425  1
  C  C244  1  0.74957720  0.54526290  0.63022382  1
  C  C245  1  0.75197326  0.87985309  0.63252790  1
  C  C246  1  0.25611851  0.11924411  0.13160229  1
  C  C247  1  0.24045273  0.45470824  0.12873746  1
  C  C248  1  0.25435398  0.78903175  0.12804727  1
  C  C249  1  0.75573647  0.12559374  0.12878924  1
  C  C250  1  0.74607711  0.45570012  0.13555107  1
  C  C251  1  0.75252305  0.79274801  0.13057888  1
  C  C252  1  0.24189024  0.20779943  0.86905458  1
  C  C253  1  0.24394989  0.54479732  0.86619094  1
  C  C254  1  0.24202717  0.87981862  0.87045217  1
  C  C255  1  0.72408145  0.21629044  0.89616469  1
  C  C256  1  0.74849110  0.54396270  0.86929269  1
  C  C257  1  0.74706317  0.88165947  0.87876798  1
  C  C258  1  0.25196975  0.12214769  0.36833366  1
  C  C259  1  0.24742515  0.45236037  0.36699422  1
  C  C260  1  0.24338760  0.79016337  0.36521010  1
  C  C261  1  0.74660602  0.11993571  0.36220503  1
  C  C262  1  0.74680203  0.45362154  0.37043361  1
  C  C263  1  0.75452164  0.79187244  0.36921377  1
  C  C264  1  0.73176802  0.41984264  0.46489358  1
  C  C265  1  0.98314204  0.59131841  0.04191428  1
  C  C266  1  0.53579879  0.59045058  0.03573351  1
  C  C267  1  0.45891746  0.92917875  0.46130425  1
  C  C268  1  0.18317043  0.24092166  0.95320542  1
  C  C269  1  0.48130463  0.06840939  0.53153188  1
  C  C270  1  0.30595680  0.91093625  0.54154938  1
  C  C271  1  0.45834841  0.59527842  0.45679117  1
  C  C272  1  0.97979723  0.07050533  0.53429772  1
  C  C273  1  0.81018970  0.24026612  0.54851755  1
  C  C274  1  0.22470707  0.91226881  0.53403442  1
  C  C275  1  0.54055241  0.92800738  0.46106208  1
  C  C276  1  0.56185353  0.06651703  0.54122851  1
  C  C277  1  0.50491325  0.25985730  0.46507965  1
  C  C278  1  0.46370136  0.40468447  0.53941033  1
  C  C279  1  0.06107942  0.06705015  0.54313103  1
  C  C280  1  0.99183775  0.40513346  0.96800374  1
  C  C281  1  0.69043622  0.42959801  0.04651896  1
  C  C282  1  0.77197512  0.42489587  0.04042208  1
  C  C283  1  0.30971649  0.09102186  0.04394267  1
  C  C284  1  0.74322817  0.57351774  0.53256406  1
  C  C285  1  0.30478036  0.23718927  0.54070788  1
  C  C286  1  0.74461354  0.24789681  0.99290767  1
  C  C287  1  0.80828919  0.76205000  0.04405660  1
  C  C288  1  0.56291881  0.74156205  0.54893074  1
  C  C289  1  0.22286873  0.23905866  0.53608992  1
  C  C290  1  0.26237610  0.57278841  0.53559719  1
  C  C291  1  0.42602047  0.26370184  0.44971999  1
  C  C292  1  0.97419883  0.25643850  0.03943554  1
  C  C293  1  0.69966812  0.90879709  0.54499258  1
  C  C294  1  0.06428487  0.92773730  0.04441503  1
  C  C295  1  0.07253690  0.40369362  0.95713954  1
  C  C296  1  0.26248594  0.42809659  0.03176581  1
  C  C297  1  0.20693129  0.77156062  0.46126587  1
  C  C298  1  0.51193777  0.73620509  0.96357072  1
  C  C299  1  0.95675493  0.74122039  0.54630293  1
  C  C300  1  0.56589726  0.40837036  0.95395560  1
  C  C301  1  0.66198381  0.24275174  0.98394480  1
  C  C302  1  0.01532116  0.73885125  0.96005819  1
  C  C303  1  0.59726185  0.25395717  0.02738351  1
  C  C304  1  0.27502703  0.08650852  0.46092365  1
  C  C305  1  0.95503161  0.58928711  0.46502709  1
  C  C306  1  0.03333680  0.07468863  0.95823985  1
  C  C307  1  0.70799822  0.91206095  0.96984956  1
  C  C308  1  0.18124284  0.42937263  0.04089383  1
  C  C309  1  0.45455654  0.59210818  0.04059312  1
  C  C310  1  0.03349339  0.92090744  0.46177464  1
  C  C311  1  0.78863802  0.91161490  0.96917060  1
  N  N312  1  0.06182169  0.59361092  0.04838258  1
  N  N313  1  0.71442223  0.09047986  0.03901463  1
  N  N314  1  0.95421458  0.07447380  0.96024947  1
  N  N315  1  0.29981425  0.42618552  0.45666970  1
  N  N316  1  0.53805835  0.59373859  0.45587740  1
  N  N317  1  0.77830650  0.91061576  0.53661982  1
  N  N318  1  0.43373475  0.73165187  0.95560664  1
  N  N319  1  0.48498446  0.74608277  0.53765441  1
  N  N320  1  0.18517153  0.57230467  0.55087087  1
  N  N321  1  0.47061968  0.92487261  0.03893427  1
  N  N322  1  0.78025610  0.09226812  0.45653146  1
  N  N323  1  0.29920682  0.57292218  0.95413940  1
  N  N324  1  0.70407335  0.09257520  0.45422023  1
  N  N325  1  0.03347476  0.40808248  0.53542901  1
  N  N326  1  0.23133721  0.75394573  0.03612040  1
  N  N327  1  0.76563201  0.75763990  0.46201021  1
  N  N328  1  0.95505644  0.40783322  0.53860915  1
  N  N329  1  0.68890778  0.76241260  0.45229458  1
  N  N330  1  0.27121072  0.91061693  0.96475770  1
  N  N331  1  0.76267843  0.57623255  0.96241826  1
  N  N332  1  0.68568473  0.57451255  0.95321709  1
  N  N333  1  0.54292671  0.40486133  0.53990264  1
  N  N334  1  0.22383754  0.57603586  0.96177366  1
  N  N335  1  0.26183841  0.24407674  0.96131258  1
  N  N336  1  0.93696467  0.73729730  0.95155817  1
  N  N337  1  0.51783132  0.07408401  0.96792358  1
  N  N338  1  0.19347271  0.90857626  0.95804448  1
  N  N339  1  0.22180703  0.42496493  0.46033206  1
  N  N340  1  0.03594442  0.73992089  0.53946744  1
  N  N341  1  0.05142614  0.25880707  0.04202780  1
  N  N342  1  0.44104917  0.07145600  0.95661435  1
  N  N343  1  0.48781126  0.41214990  0.96201428  1
  N  N344  1  0.73122872  0.24327261  0.54078514  1
  N  N345  1  0.79034977  0.09048701  0.03725595  1
  N  N346  1  0.54854437  0.92485703  0.03733533  1
  N  N347  1  0.51769204  0.24647088  0.01819271  1
  N  N348  1  0.19818555  0.08903679  0.45564523  1
  N  N349  1  0.98844983  0.92256621  0.03208347  1
  N  N350  1  0.95626496  0.92070932  0.46120850  1
  N  N351  1  0.72911748  0.75972173  0.03767582  1
  N  N352  1  0.30936508  0.76500123  0.04081348  1
  N  N353  1  0.03534589  0.25949962  0.45682162  1
  N  N354  1  0.95894338  0.25998181  0.45833704  1
  N  N355  1  0.80830388  0.42405335  0.45666539  1
  N  N356  1  0.23281057  0.08852480  0.03500155  1
  N  N357  1  0.28628075  0.76785597  0.45741697  1
  N  N358  1  0.03300326  0.58901483  0.46863679  1
  N  N359  1  0.81982143  0.57104151  0.54925068  1
  N  N360  1  0.07309798  0.05098481  0.60347432  1
  N  N361  1  0.05750223  0.39012980  0.59166069  1
  N  N362  1  0.06865064  0.71681362  0.59256180  1
  N  N363  1  0.57193178  0.05088004  0.60301392  1
  N  N364  1  0.56235872  0.38898537  0.59849649  1
  N  N365  1  0.57039067  0.72209207  0.60767839  1
  N  N366  1  0.47789285  0.26991717  0.06835063  1
  N  N367  1  0.43793444  0.61058886  0.10084550  1
  N  N368  1  0.44309527  0.94550162  0.09339703  1
  N  N369  1  0.94244152  0.27465116  0.09390907  1
  N  N370  1  0.94600796  0.60873288  0.09530943  1
  N  N371  1  0.94985401  0.94009583  0.08595610  1
  N  N372  1  0.42822278  0.05416549  0.89811109  1
  N  N373  1  0.44914313  0.38996901  0.91048623  1
  N  N374  1  0.42420815  0.71622256  0.89500340  1
  N  N375  1  0.93180045  0.05518439  0.90342672  1
  N  N376  1  0.95358179  0.38863856  0.91351989  1
  N  N377  1  0.92722148  0.72152732  0.89135048  1
  N  N378  1  0.05865741  0.27719662  0.39890022  1
  N  N379  1  0.05910871  0.60736503  0.41012258  1
  N  N380  1  0.06343023  0.94205652  0.40765181  1
  N  N381  1  0.54826559  0.27541782  0.41203215  1
  N  N382  1  0.56304976  0.60457141  0.39693406  1
  N  N383  1  0.56474410  0.94457921  0.40417259  1
  N  N384  1  0.32162329  0.21929931  0.60006627  1
  N  N385  1  0.30390076  0.55771819  0.58716417  1
  N  N386  1  0.31886698  0.89214044  0.60211863  1
  N  N387  1  0.82291583  0.21904136  0.60603551  1
  N  N388  1  0.82308511  0.55296899  0.60897438  1
  N  N389  1  0.80939828  0.89241986  0.59197644  1
  N  N390  1  0.19934034  0.10643995  0.09111843  1
  N  N391  1  0.16913506  0.44578901  0.10107812  1
  N  N392  1  0.19692225  0.77885709  0.08692591  1
  N  N393  1  0.69119578  0.11215031  0.09570218  1
  N  N394  1  0.67594710  0.44837586  0.10595862  1
  N  N395  1  0.69474729  0.78184047  0.09011015  1
  N  N396  1  0.17060632  0.22036612  0.89541647  1
  N  N397  1  0.18800746  0.55888338  0.90741498  1
  N  N398  1  0.17456468  0.88958533  0.90110321  1
  N  N399  1  0.65231914  0.22333139  0.92242700  1
  N  N400  1  0.67742126  0.55594621  0.89478541  1
  N  N401  1  0.68206923  0.89373713  0.91461731  1
  N  N402  1  0.31050349  0.10654311  0.40838672  1
  N  N403  1  0.31499697  0.44333066  0.39861255  1
  N  N404  1  0.30875774  0.78242085  0.39889414  1
  N  N405  1  0.80813756  0.10939795  0.39965815  1
  N  N406  1  0.81766080  0.44539117  0.39640914  1
  N  N407  1  0.80706897  0.77868742  0.41294702  1
  N  N408  1  0.42134222  0.28014807  0.39007500  1
  N  N409  1  0.43426568  0.61174403  0.39968983  1
  N  N410  1  0.43499335  0.94647672  0.40443493  1
  N  N411  1  0.93214600  0.27810586  0.40130511  1
  N  N412  1  0.93121618  0.60649020  0.40727316  1
  N  N413  1  0.93522429  0.94311604  0.40373757  1
  N  N414  1  0.05996205  0.05629678  0.90159939  1
  N  N415  1  0.08224742  0.38668653  0.89709659  1
  N  N416  1  0.05369456  0.72407179  0.90639611  1
  N  N417  1  0.55343548  0.05825517  0.91445911  1
  N  N418  1  0.57696949  0.38803965  0.89606698  1
  N  N419  1  0.55052326  0.72327567  0.90956708  1
  N  N420  1  0.06979330  0.27890410  0.10111004  1
  N  N421  1  0.07284351  0.61237557  0.10726416  1
  N  N422  1  0.07551986  0.94644584  0.10398421  1
  N  N423  1  0.60508005  0.27520794  0.08619690  1
  N  N424  1  0.56721560  0.60739544  0.09006224  1
  N  N425  1  0.57040996  0.94362879  0.09375651  1
  N  N426  1  0.44424406  0.05469257  0.58459419  1
  N  N427  1  0.43449760  0.38911961  0.59632765  1
  N  N428  1  0.44390543  0.72547312  0.58789397  1
  N  N429  1  0.94425251  0.05604334  0.58972133  1
  N  N430  1  0.93036410  0.38760404  0.59388706  1
  N  N431  1  0.94041323  0.72316152  0.60446961  1
  N  N432  1  0.18337517  0.11153346  0.39715840  1
  N  N433  1  0.18835891  0.44032193  0.40594161  1
  N  N434  1  0.17977872  0.78289160  0.40350546  1
  N  N435  1  0.68174567  0.10974155  0.39605488  1
  N  N436  1  0.69166281  0.43770299  0.41349316  1
  N  N437  1  0.68269015  0.78087337  0.39353606  1
  N  N438  1  0.29793007  0.21998577  0.91063507  1
  N  N439  1  0.31330704  0.55394797  0.89473479  1
  N  N440  1  0.30090814  0.89355510  0.90969814  1
  N  N441  1  0.78007511  0.23163909  0.93979731  1
  N  N442  1  0.80251691  0.55569166  0.91260401  1
  N  N443  1  0.81279864  0.89319401  0.91368708  1
  N  N444  1  0.32656426  0.10904058  0.10293675  1
  N  N445  1  0.29810560  0.44383207  0.08716124  1
  N  N446  1  0.32353656  0.77735880  0.10037318  1
  N  N447  1  0.81782097  0.11240759  0.09278217  1
  N  N448  1  0.80527480  0.44138260  0.09597689  1
  N  N449  1  0.82297825  0.78052912  0.10233746  1
  N  N450  1  0.19201913  0.22215653  0.59265106  1
  N  N451  1  0.17890719  0.55492626  0.61082345  1
  N  N452  1  0.19013737  0.89493408  0.58711664  1
  N  N453  1  0.69521235  0.21899008  0.59151745  1
  N  N454  1  0.69909457  0.55830518  0.58295221  1
  N  N455  1  0.68221442  0.89052908  0.60367355  1
  Cl  Cl456  1  0.26116073  0.05708797  0.61250472  1
  Cl  Cl457  1  0.24175164  0.39141241  0.60767828  1
  Cl  Cl458  1  0.25762269  0.73065136  0.60184287  1
  Cl  Cl459  1  0.75980861  0.05848761  0.62199777  1
  Cl  Cl460  1  0.74738543  0.38789632  0.61775013  1
  Cl  Cl461  1  0.75801191  0.72586235  0.61364617  1
  Cl  Cl462  1  0.28697422  0.26783622  0.09832193  1
  Cl  Cl463  1  0.25515932  0.62346479  0.12986492  1
  Cl  Cl464  1  0.25990141  0.94176888  0.11818484  1
  Cl  Cl465  1  0.77066726  0.28034124  0.13404850  1
  Cl  Cl466  1  0.75941796  0.60904724  0.10405689  1
  Cl  Cl467  1  0.75870116  0.94008247  0.10579044  1
  Cl  Cl468  1  0.24631233  0.05363493  0.87581061  1
  Cl  Cl469  1  0.26852452  0.39068818  0.87830638  1
  Cl  Cl470  1  0.23751186  0.73303672  0.88615980  1
  Cl  Cl471  1  0.74087409  0.05253557  0.88605202  1
  Cl  Cl472  1  0.76609435  0.38578211  0.88666005  1
  Cl  Cl473  1  0.73501494  0.72968293  0.89127157  1
  Cl  Cl474  1  0.23864813  0.28448803  0.36786635  1
  Cl  Cl475  1  0.24722160  0.61262042  0.39390410  1
  Cl  Cl476  1  0.24950554  0.94800626  0.38333269  1
  Cl  Cl477  1  0.73807329  0.27590769  0.40332611  1
  Cl  Cl478  1  0.74697443  0.61184044  0.38237584  1
  Cl  Cl479  1  0.75112517  0.94448023  0.37403870  1
  Cl  Cl480  1  0.00656499  0.22103659  0.62531487  1
  Cl  Cl481  1  0.00085468  0.55222302  0.63056759  1
  Cl  Cl482  1  0.00024225  0.88499543  0.60920528  1
  Cl  Cl483  1  0.51156595  0.22317413  0.61638029  1
  Cl  Cl484  1  0.50575031  0.55813925  0.59491143  1
  Cl  Cl485  1  0.50069731  0.88029036  0.63068510  1
  Cl  Cl486  1  0.00920004  0.11204460  0.11001836  1
  Cl  Cl487  1  -0.01473294  0.44431490  0.11976769  1
  Cl  Cl488  1  0.01505516  0.77322164  0.11805388  1
  Cl  Cl489  1  0.50826245  0.12023114  0.12233270  1
  Cl  Cl490  1  0.48302687  0.43856357  0.10462179  1
  Cl  Cl491  1  0.51015507  0.77538391  0.11411227  1
  Cl  Cl492  1  -0.02215561  0.22510232  0.88833856  1
  Cl  Cl493  1  -0.01059030  0.55622693  0.89859965  1
  Cl  Cl494  1  -0.00396144  0.88346118  0.87404871  1
  Cl  Cl495  1  0.47538656  0.22668295  0.88430530  1
  Cl  Cl496  1  0.49583155  0.54718611  0.86511189  1
  Cl  Cl497  1  0.48541919  0.89049293  0.89609457  1
  Cl  Cl498  1  -0.00665567  0.10771738  0.37868578  1
  Cl  Cl499  1  0.00433376  0.44662357  0.38580910  1
  Cl  Cl500  1  -0.00534396  0.77050899  0.39656773  1
  Cl  Cl501  1  0.49666714  0.10795081  0.38835508  1
  Cl  Cl502  1  0.50250068  0.44563864  0.38158354  1
  Cl  Cl503  1  0.49088675  0.77717657  0.39106162  1
  Cl  Cl504  1  0.36274047  0.15011287  0.75226748  1
  Cl  Cl505  1  0.36092625  0.48353203  0.74280254  1
  Cl  Cl506  1  0.35645759  0.81420936  0.75651078  1
  Cl  Cl507  1  0.85633529  0.15372852  0.75583313  1
  Cl  Cl508  1  0.86074121  0.48421333  0.74651900  1
  Cl  Cl509  1  0.85877608  0.81674967  0.75246882  1
  Cl  Cl510  1  0.14294209  0.18689309  0.24737175  1
  Cl  Cl511  1  0.13664177  0.52072012  0.24386530  1
  Cl  Cl512  1  0.14095042  0.85102811  0.24648620  1
  Cl  Cl513  1  0.63802200  0.18655876  0.25146291  1
  Cl  Cl514  1  0.63894312  0.51922162  0.24482477  1
  Cl  Cl515  1  0.63773145  0.85136839  0.25673235  1
  Cl  Cl516  1  0.13950141  0.14743121  0.75001126  1
  Cl  Cl517  1  0.13602324  0.47873149  0.74865096  1
  Cl  Cl518  1  0.13599260  0.81280749  0.74144657  1
  Cl  Cl519  1  0.64012536  0.14898191  0.75741309  1
  Cl  Cl520  1  0.64133703  0.48238806  0.75104057  1
  Cl  Cl521  1  0.63928776  0.81709771  0.75280372  1
  Cl  Cl522  1  0.36348073  0.18685131  0.25501670  1
  Cl  Cl523  1  0.35623795  0.51594730  0.25523963  1
  Cl  Cl524  1  0.36172513  0.84997340  0.24652762  1
  Cl  Cl525  1  0.85983714  0.18570602  0.25549759  1
  Cl  Cl526  1  0.86005118  0.51826877  0.26065258  1
  Cl  Cl527  1  0.86048998  0.84944945  0.24438615  1
  Cl  Cl528  1  0.11771472  0.31185462  0.75690748  1
  Cl  Cl529  1  0.11183733  0.64610751  0.75113078  1
  Cl  Cl530  1  0.11981028  0.97704722  0.74213640  1
  Cl  Cl531  1  0.61305275  0.31598565  0.75896813  1
  Cl  Cl532  1  0.61186946  0.64910027  0.74351779  1
  Cl  Cl533  1  0.60556746  0.98256635  0.74709018  1
  Cl  Cl534  1  0.39034544  0.01870825  0.23988905  1
  Cl  Cl535  1  0.39081564  0.35308847  0.25189835  1
  Cl  Cl536  1  0.39100807  0.68309015  0.25396274  1
  Cl  Cl537  1  0.89450982  0.01549937  0.24813156  1
  Cl  Cl538  1  0.88608873  0.35419769  0.25981858  1
  Cl  Cl539  1  0.88907605  0.68504724  0.25001014  1
  Cl  Cl540  1  0.39318207  0.31596665  0.74658253  1
  Cl  Cl541  1  0.38892845  0.64864417  0.75034331  1
  Cl  Cl542  1  0.38806231  0.98245279  0.75302939  1
  Cl  Cl543  1  0.89538097  0.31947626  0.74495211  1
  Cl  Cl544  1  0.88627957  0.64825491  0.74966505  1
  Cl  Cl545  1  0.89609993  0.98635862  0.74925877  1
  Cl  Cl546  1  0.11498444  0.01961208  0.24488520  1
  Cl  Cl547  1  0.11250714  0.35352457  0.23697133  1
  Cl  Cl548  1  0.10929489  0.68432560  0.26200556  1
  Cl  Cl549  1  0.60947190  0.01730907  0.24969048  1
  Cl  Cl550  1  0.60967998  0.35033850  0.24047912  1
  Cl  Cl551  1  0.61186131  0.68450105  0.25380358  1
