# generated using pymatgen
data_H8PbC4(N3Cl2)2
_symmetry_space_group_name_H-M   'P 1'
_cell_length_a   16.62620043
_cell_length_b   22.50946023
_cell_length_c   21.59227327
_cell_angle_alpha   89.99950468
_cell_angle_beta   90.01246760
_cell_angle_gamma   89.99578335
_symmetry_Int_Tables_number   1
_chemical_formula_structural   H8PbC4(N3Cl2)2
_chemical_formula_sum   'H192 Pb24 C96 N144 Cl96'
_cell_volume   8080.83890845
_cell_formula_units_Z   24
loop_
 _symmetry_equiv_pos_site_id
 _symmetry_equiv_pos_as_xyz
  1  'x, y, z'
loop_
 _atom_site_type_symbol
 _atom_site_label
 _atom_site_symmetry_multiplicity
 _atom_site_fract_x
 _atom_site_fract_y
 _atom_site_fract_z
 _atom_site_occupancy
  H  H0  1  0.00942913  0.03072784  0.68129272  1
  H  H1  1  0.01005510  0.36398454  0.67691505  1
  H  H2  1  0.01358104  0.69830111  0.68042897  1
  H  H3  1  0.50063539  0.03034980  0.68123759  1
  H  H4  1  0.49652229  0.36126581  0.67859402  1
  H  H5  1  0.48752376  0.69889655  0.68284888  1
  H  H6  1  -0.00755759  0.30070536  0.18093924  1
  H  H7  1  0.00259414  0.63764817  0.17903019  1
  H  H8  1  0.00091360  0.96988298  0.18119029  1
  H  H9  1  0.50196724  0.30366494  0.18080795  1
  H  H10  1  0.49312429  0.63658847  0.18095153  1
  H  H11  1  0.51026100  0.96903332  0.17411452  1
  H  H12  1  -0.00198752  0.02956085  0.81874266  1
  H  H13  1  0.00821715  0.36505709  0.81715470  1
  H  H14  1  0.00762077  0.69943807  0.82303454  1
  H  H15  1  0.49559237  0.03004521  0.82286856  1
  H  H16  1  0.49080177  0.36481633  0.81674631  1
  H  H17  1  0.50228650  0.69764501  0.82062257  1
  H  H18  1  -0.00529842  0.30148939  0.31993548  1
  H  H19  1  -0.00711557  0.63494594  0.32326585  1
  H  H20  1  0.00407730  0.97016396  0.31857029  1
  H  H21  1  0.51448212  0.30415660  0.32513134  1
  H  H22  1  0.49746101  0.63585287  0.31905806  1
  H  H23  1  0.49570010  0.96963285  0.31851477  1
  H  H24  1  0.24248180  0.19817774  0.67408100  1
  H  H25  1  0.25537882  0.53237844  0.67950257  1
  H  H26  1  0.24416796  0.86447184  0.67998994  1
  H  H27  1  0.75714892  0.19424702  0.67758900  1
  H  H28  1  0.74183360  0.53075232  0.67842670  1
  H  H29  1  0.75996661  0.86291816  0.68038915  1
  H  H30  1  0.24663401  0.13586301  0.17969516  1
  H  H31  1  0.24674478  0.46653390  0.18455962  1
  H  H32  1  0.24733304  0.80454056  0.17796713  1
  H  H33  1  0.75845617  0.13556604  0.17887741  1
  H  H34  1  0.76219931  0.46872692  0.18253199  1
  H  H35  1  0.74678266  0.80320674  0.17873753  1
  H  H36  1  0.24898528  0.19394129  0.82230784  1
  H  H37  1  0.25716574  0.53276416  0.81905839  1
  H  H38  1  0.24238930  0.86476240  0.82088091  1
  H  H39  1  0.75529725  0.19855589  0.81800700  1
  H  H40  1  0.74289296  0.53135372  0.82062702  1
  H  H41  1  0.75096703  0.86111387  0.82196164  1
  H  H42  1  0.24925407  0.13853560  0.32248417  1
  H  H43  1  0.24975315  0.46829213  0.31952566  1
  H  H44  1  0.25510859  0.79987340  0.31549215  1
  H  H45  1  0.74662542  0.13515959  0.32211140  1
  H  H46  1  0.74458200  0.47046952  0.32461857  1
  H  H47  1  0.75277829  0.80442989  0.32206448  1
  H  H48  1  0.11615081  0.05873849  0.59835040  1
  H  H49  1  0.11428697  0.39119738  0.59219330  1
  H  H50  1  0.11795546  0.72369589  0.59523316  1
  H  H51  1  0.61792663  0.05632359  0.60611690  1
  H  H52  1  0.61984934  0.38764027  0.60616561  1
  H  H53  1  0.62418280  0.71562192  0.62596329  1
  H  H54  1  0.37736460  0.27854088  0.11151550  1
  H  H55  1  0.38442829  0.61060112  0.09909691  1
  H  H56  1  0.37041787  0.94878261  0.12078416  1
  H  H57  1  0.88183376  0.27504884  0.10111193  1
  H  H58  1  0.88152974  0.61366458  0.10635013  1
  H  H59  1  0.87127830  0.94646443  0.11249856  1
  H  H60  1  0.37700403  0.05532385  0.89643837  1
  H  H61  1  0.37964249  0.38673335  0.89722609  1
  H  H62  1  0.37120787  0.72112242  0.88423310  1
  H  H63  1  0.88334075  0.05494643  0.89729508  1
  H  H64  1  0.87679379  0.38903736  0.88133712  1
  H  H65  1  0.87461087  0.71773956  0.88255750  1
  H  H66  1  0.12830296  0.28146745  0.38113395  1
  H  H67  1  0.12900231  0.61362640  0.38203807  1
  H  H68  1  0.11794314  0.94359191  0.39691228  1
  H  H69  1  0.62162758  0.27430222  0.40752884  1
  H  H70  1  0.63098455  0.61350328  0.38289474  1
  H  H71  1  0.62340974  0.94897881  0.38647455  1
  H  H72  1  0.37495422  0.22059767  0.61183052  1
  H  H73  1  0.36743958  0.55536848  0.59955563  1
  H  H74  1  0.37863272  0.88542250  0.61872650  1
  H  H75  1  0.87018459  0.22343287  0.59815122  1
  H  H76  1  0.87122391  0.55219909  0.61172894  1
  H  H77  1  0.87596418  0.89020100  0.60174731  1
  H  H78  1  0.12315657  0.11040320  0.10685351  1
  H  H79  1  0.12403979  0.44732248  0.11269657  1
  H  H80  1  0.13182506  0.77739411  0.10001987  1
  H  H81  1  0.61958251  0.11520301  0.12417280  1
  H  H82  1  0.62338127  0.44815350  0.12574657  1
  H  H83  1  0.63155768  0.77885957  0.09980283  1
  H  H84  1  0.12376837  0.22014016  0.89078539  1
  H  H85  1  0.11955860  0.55311195  0.87693007  1
  H  H86  1  0.13297908  0.88781077  0.90140360  1
  H  H87  1  0.62091364  0.21622065  0.87780559  1
  H  H88  1  0.61802166  0.55619199  0.89150220  1
  H  H89  1  0.63088963  0.88915403  0.89540351  1
  H  H90  1  0.38399221  0.11811220  0.38297775  1
  H  H91  1  0.38174233  0.44808229  0.38276533  1
  H  H92  1  0.37618690  0.78062167  0.38862477  1
  H  H93  1  0.88076287  0.11594902  0.37931445  1
  H  H94  1  0.87918417  0.44836509  0.38459812  1
  H  H95  1  0.87722022  0.77754954  0.39287700  1
  H  H96  1  0.37584339  0.28423072  0.38054263  1
  H  H97  1  0.38223205  0.60917186  0.39612845  1
  H  H98  1  0.37453255  0.94383954  0.39259432  1
  H  H99  1  0.87966847  0.27831214  0.39637272  1
  H  H100  1  0.88203536  0.60695947  0.40319266  1
  H  H101  1  0.86967847  0.94948519  0.38113734  1
  H  H102  1  0.13167978  0.05123514  0.88113900  1
  H  H103  1  0.12630652  0.38650901  0.89294683  1
  H  H104  1  0.12225118  0.72539683  0.89968970  1
  H  H105  1  0.62505016  0.05058554  0.88538485  1
  H  H106  1  0.62675339  0.38401539  0.87335604  1
  H  H107  1  0.62025561  0.72331790  0.89744773  1
  H  H108  1  0.12946347  0.28127897  0.12216590  1
  H  H109  1  0.13120166  0.61417621  0.11151421  1
  H  H110  1  0.11971443  0.94329787  0.10588725  1
  H  H111  1  0.62611300  0.27764931  0.11042657  1
  H  H112  1  0.63105927  0.61725442  0.12317141  1
  H  H113  1  0.61530759  0.94076789  0.09048001  1
  H  H114  1  0.36952353  0.05382582  0.61590382  1
  H  H115  1  0.37121142  0.38731939  0.60766410  1
  H  H116  1  0.37686908  0.72143349  0.60192505  1
  H  H117  1  0.86999679  0.05007715  0.62533068  1
  H  H118  1  0.86970087  0.38516537  0.62569403  1
  H  H119  1  0.87259457  0.71479137  0.62551580  1
  H  H120  1  0.13682748  0.10996579  0.40095269  1
  H  H121  1  0.13280037  0.44380342  0.39354121  1
  H  H122  1  0.12683705  0.77939726  0.38131179  1
  H  H123  1  0.63398733  0.11204148  0.40098557  1
  H  H124  1  0.63199598  0.44249045  0.40239171  1
  H  H125  1  0.62895346  0.77917890  0.39257457  1
  H  H126  1  0.37176954  0.21941034  0.89502239  1
  H  H127  1  0.36589371  0.55846453  0.90101153  1
  H  H128  1  0.38036246  0.88461491  0.87676334  1
  H  H129  1  0.86908349  0.22224941  0.89583197  1
  H  H130  1  0.86641889  0.55589925  0.89235945  1
  H  H131  1  0.87974966  0.88558467  0.88938448  1
  H  H132  1  0.37162397  0.11205737  0.10803115  1
  H  H133  1  0.37375651  0.44663742  0.11730611  1
  H  H134  1  0.38015873  0.78297449  0.11549290  1
  H  H135  1  0.86599848  0.10771595  0.09566849  1
  H  H136  1  0.86986359  0.44389138  0.09928494  1
  H  H137  1  0.87942593  0.78023512  0.11710368  1
  H  H138  1  0.12691480  0.22635794  0.59821450  1
  H  H139  1  0.11909780  0.55045773  0.61917375  1
  H  H140  1  0.13145781  0.89113836  0.59903118  1
  H  H141  1  0.62292183  0.21761448  0.61609436  1
  H  H142  1  0.62248294  0.55560875  0.60394217  1
  H  H143  1  0.62826581  0.88603629  0.61555349  1
  H  H144  1  0.20171398  0.91734853  0.49794222  1
  H  H145  1  0.59292505  0.08282844  0.99842033  1
  H  H146  1  0.82693176  0.74824788  0.49678486  1
  H  H147  1  0.80852821  0.24840439  1.00458989  1
  H  H148  1  0.55977377  0.08546183  0.49879538  1
  H  H149  1  0.03829769  0.41609723  0.49243249  1
  H  H150  1  0.44509577  0.40871795  1.00627681  1
  H  H151  1  0.83392130  0.91375609  0.99451142  1
  H  H152  1  0.16558017  0.75558402  0.49503542  1
  H  H153  1  0.31783452  0.24521603  0.99937152  1
  H  H154  1  0.57943755  0.91845889  0.49612665  1
  H  H155  1  0.60388633  0.41016893  0.98795711  1
  H  H156  1  0.94773638  0.24777493  -0.00610116  1
  H  H157  1  0.45466319  0.58239286  -0.00537848  1
  H  H158  1  0.04386497  0.08628836  0.49489846  1
  H  H159  1  0.40777903  0.75144241  0.99497679  1
  H  H160  1  0.30275890  0.58010523  0.49146307  1
  H  H161  1  0.79601285  0.41885399  -0.00602880  1
  H  H162  1  0.09011251  0.58752439  0.00530731  1
  H  H163  1  0.29585540  0.58665206  1.00550851  1
  H  H164  1  0.32534129  0.76060122  0.50139513  1
  H  H165  1  0.35339995  0.08104258  0.48735993  1
  H  H166  1  0.44549305  0.58071511  0.50301678  1
  H  H167  1  0.14797997  0.57858141  0.51117987  1
  H  H168  1  0.10191675  0.24986441  0.01540875  1
  H  H169  1  0.19853207  0.91604055  1.00860065  1
  H  H170  1  0.33172612  0.42534373  0.00270104  1
  H  H171  1  0.33989111  0.25249751  0.50531135  1
  H  H172  1  0.60239108  0.74412319  0.51264382  1
  H  H173  1  0.93952377  0.24888310  0.50575298  1
  H  H174  1  0.06720655  0.40365450  1.00510370  1
  H  H175  1  0.04147023  0.74921033  0.49162406  1
  H  H176  1  0.91612965  0.40924168  0.99008307  1
  H  H177  1  0.17363347  0.43202756  -0.00167156  1
  H  H178  1  0.79199137  0.08136464  -0.00477282  1
  H  H179  1  0.18931597  0.41399705  0.50373406  1
  H  H180  1  0.84998075  0.42019834  0.49421823  1
  H  H181  1  0.94751918  0.08230722  1.00354626  1
  H  H182  1  0.80014492  0.24800798  0.49587446  1
  H  H183  1  0.20603309  0.09333551  0.50416634  1
  H  H184  1  0.38825125  0.91837426  0.01007384  1
  H  H185  1  0.05349600  0.91413242  0.50253319  1
  H  H186  1  0.64717656  0.24565751  0.99019311  1
  H  H187  1  0.90085068  0.74964538  0.99645685  1
  H  H188  1  0.44232421  0.74576972  0.49396735  1
  H  H189  1  0.66715601  0.58418082  0.99592461  1
  H  H190  1  0.85451173  0.08436669  0.49393860  1
  H  H191  1  0.93270675  0.58624102  -0.00329236  1
  Pb  Pb192  1  0.24833099  0.04589783  0.74148168  1
  Pb  Pb193  1  0.25206235  0.38253431  0.74931710  1
  Pb  Pb194  1  0.24933711  0.71432812  0.74400401  1
  Pb  Pb195  1  0.75299756  0.04925679  0.75791219  1
  Pb  Pb196  1  0.74772649  0.37923957  0.74808951  1
  Pb  Pb197  1  0.74926094  0.71213518  0.75097297  1
  Pb  Pb198  1  0.25377699  0.28806023  0.24876050  1
  Pb  Pb199  1  0.25274258  0.62045891  0.24954370  1
  Pb  Pb200  1  0.24917446  0.95350459  0.25689368  1
  Pb  Pb201  1  0.74691058  0.28424926  0.25385116  1
  Pb  Pb202  1  0.75391832  0.62126201  0.24923807  1
  Pb  Pb203  1  0.74959732  0.95489648  0.24267063  1
  Pb  Pb204  1  0.00309691  0.21551988  0.74937169  1
  Pb  Pb205  1  -0.00368165  0.54686350  0.75258642  1
  Pb  Pb206  1  -0.00055725  0.87944981  0.74608422  1
  Pb  Pb207  1  0.49701790  0.21157767  0.75003066  1
  Pb  Pb208  1  0.50148655  0.54818024  0.75001123  1
  Pb  Pb209  1  0.50388521  0.88165832  0.75176468  1
  Pb  Pb210  1  0.00149258  0.12103517  0.24811623  1
  Pb  Pb211  1  -0.00162913  0.45113551  0.24836359  1
  Pb  Pb212  1  0.00113811  0.78686378  0.24942156  1
  Pb  Pb213  1  0.49971095  0.12067145  0.25343169  1
  Pb  Pb214  1  0.50302770  0.45515297  0.25144918  1
  Pb  Pb215  1  0.50325976  0.78780828  0.24980581  1
  C  C216  1  -0.00175171  0.04588735  0.63442528  1
  C  C217  1  -0.00181004  0.37931127  0.63007053  1
  C  C218  1  0.00102678  0.71227423  0.63324312  1
  C  C219  1  0.49556662  0.04589094  0.63377684  1
  C  C220  1  0.49574501  0.37819305  0.63161002  1
  C  C221  1  0.49660115  0.71244690  0.63506097  1
  C  C222  1  0.00197480  0.28605525  0.13346102  1
  C  C223  1  0.00573261  0.62151190  0.13158566  1
  C  C224  1  -0.00282316  0.95399505  0.13378749  1
  C  C225  1  0.50208125  0.28706949  0.13391398  1
  C  C226  1  0.50322851  0.62157309  0.13381003  1
  C  C227  1  0.49804205  0.95356848  0.12757018  1
  C  C228  1  0.00445487  0.04509065  0.86601749  1
  C  C229  1  0.00320131  0.37990417  0.86491688  1
  C  C230  1  0.00077174  0.71429397  0.87047453  1
  C  C231  1  0.49991259  0.04558860  0.87023243  1
  C  C232  1  0.49953234  0.37857175  0.86452947  1
  C  C233  1  0.49789012  0.71398121  0.86771561  1
  C  C234  1  0.00073690  0.28714123  0.36759052  1
  C  C235  1  0.00174496  0.61910759  0.37002389  1
  C  C236  1  -0.00299947  0.95441997  0.36571481  1
  C  C237  1  0.50363270  0.28814020  0.37155849  1
  C  C238  1  0.50380349  0.61997186  0.36626519  1
  C  C239  1  0.49767710  0.95405403  0.36598767  1
  C  C240  1  0.24852491  0.21463613  0.62713811  1
  C  C241  1  0.24665545  0.54661128  0.63179626  1
  C  C242  1  0.25120016  0.87986793  0.63267901  1
  C  C243  1  0.75051390  0.21066325  0.63060045  1
  C  C244  1  0.74538037  0.54605063  0.63109063  1
  C  C245  1  0.75493236  0.87890865  0.63313830  1
  C  C246  1  0.24692658  0.12017635  0.13220876  1
  C  C247  1  0.24809445  0.45296954  0.13627247  1
  C  C248  1  0.25295367  0.78871229  0.13091510  1
  C  C249  1  0.74833388  0.12036768  0.13184330  1
  C  C250  1  0.75143506  0.45405470  0.13532035  1
  C  C251  1  0.75244644  0.78763240  0.13157975  1
  C  C252  1  0.24846055  0.21072610  0.86940339  1
  C  C253  1  0.24704992  0.54760313  0.86632727  1
  C  C254  1  0.25163270  0.87893341  0.86835191  1
  C  C255  1  0.74808016  0.21262911  0.86581642  1
  C  C256  1  0.74201190  0.54738787  0.86799687  1
  C  C257  1  0.75423961  0.87791963  0.86896352  1
  C  C258  1  0.25703580  0.12213477  0.36955986  1
  C  C259  1  0.25455044  0.45356904  0.36709128  1
  C  C260  1  0.25252312  0.78636269  0.36373671  1
  C  C261  1  0.75469084  0.12090595  0.36958175  1
  C  C262  1  0.75247837  0.45454483  0.37158106  1
  C  C263  1  0.75352694  0.78762475  0.36911324  1
  C  C264  1  0.93358805  0.40702792  0.54521167  1
  C  C265  1  0.55717814  0.40093509  0.95389752  1
  C  C266  1  0.45238699  0.74137939  0.95802977  1
  C  C267  1  0.48456670  0.59382820  0.03791639  1
  C  C268  1  0.47826875  0.59206251  0.46095435  1
  C  C269  1  0.03598350  0.40273270  0.96083875  1
  C  C270  1  0.69354431  0.23664678  0.95587278  1
  C  C271  1  0.72513796  0.42345771  0.46693286  1
  C  C272  1  0.98005174  0.07212606  0.96106113  1
  C  C273  1  0.27203158  0.57105732  0.53496485  1
  C  C274  1  0.21022056  0.43464553  0.03996546  1
  C  C275  1  0.01464638  0.73871575  0.53636836  1
  C  C276  1  0.94809124  0.74074400  0.96116593  1
  C  C277  1  0.05445169  0.26139741  0.45723010  1
  C  C278  1  0.21739987  0.24713070  0.53268601  1
  C  C279  1  0.53864929  0.92807428  0.45792677  1
  C  C280  1  0.72782096  0.09304395  0.46517381  1
  C  C281  1  0.54793823  0.07316453  0.96214206  1
  C  C282  1  0.46345887  0.25675407  0.04202371  1
  C  C283  1  0.22425753  0.42583224  0.46293112  1
  C  C284  1  0.97967320  0.58807148  0.46476977  1
  C  C285  1  0.46655371  0.07463489  0.96427263  1
  C  C286  1  0.30160272  0.76104798  0.04109933  1
  C  C287  1  0.47352297  0.73667980  0.53726140  1
  C  C288  1  0.96938890  0.59518269  0.03742777  1
  C  C289  1  0.20696420  0.76467479  0.45725083  1
  C  C290  1  0.55475708  0.73536419  0.54605414  1
  C  C291  1  0.02941920  0.74331887  0.96548123  1
  C  C292  1  0.29206609  0.43305432  0.04186941  1
  C  C293  1  0.02103078  0.92585664  0.46036859  1
  C  C294  1  0.80122703  0.75933890  0.04217169  1
  C  C295  1  0.71427691  0.57496554  0.53768353  1
  C  C296  1  0.51634207  0.92265080  0.03080959  1
  C  C297  1  0.52464262  0.07309157  0.53940917  1
  C  C298  1  0.28884822  0.76592194  0.45997505  1
  C  C299  1  0.01498573  0.07413400  0.53849248  1
  C  C300  1  0.26584616  0.57511874  0.96225977  1
  C  C301  1  0.68623534  0.09310057  0.04549186  1
  C  C302  1  0.80876677  0.09432135  0.45928316  1
  C  C303  1  0.47593426  0.40125451  0.96255863  1
  C  C304  1  0.23080345  0.90527328  0.96617890  1
  C  C305  1  0.52108818  0.25586791  0.46632203  1
  C  C306  1  0.30544044  0.42796298  0.45737415  1
  C  C307  1  0.97783780  0.25888682  0.03715764  1
  C  C308  1  0.97317024  0.26006825  0.46411615  1
  C  C309  1  0.31137675  0.90357170  0.95586475  1
  C  C310  1  0.77516815  0.23846140  0.96259026  1
  C  C311  1  0.76849599  0.42778756  0.03885877  1
  N  N312  1  0.76427509  0.09089303  0.03672178  1
  N  N313  1  0.02950206  0.92466615  0.03953457  1
  N  N314  1  0.20375419  0.23869803  0.96114945  1
  N  N315  1  0.53263102  0.40871287  0.53890110  1
  N  N316  1  0.45654110  0.40872675  0.53939682  1
  N  N317  1  0.22970086  0.90744000  0.53895966  1
  N  N318  1  0.28598208  0.09247614  0.03909327  1
  N  N319  1  0.77262318  0.24144314  0.53786112  1
  N  N320  1  0.55717905  0.59327609  0.45639469  1
  N  N321  1  0.53151529  0.74245461  0.96289601  1
  N  N322  1  0.20974660  0.09157301  0.03883661  1
  N  N323  1  0.78319434  0.90943339  0.53858091  1
  N  N324  1  0.93684907  0.07160577  0.54769437  1
  N  N325  1  0.78357852  0.57362956  0.96113874  1
  N  N326  1  0.43893932  0.92671885  0.04181964  1
  N  N327  1  0.44428007  0.25948151  0.45898054  1
  N  N328  1  0.95690794  0.40656993  0.95482779  1
  N  N329  1  0.31033892  0.09885526  0.45759979  1
  N  N330  1  0.05671856  0.26221964  0.04543772  1
  N  N331  1  0.94208767  0.92747427  0.45526516  1
  N  N332  1  0.28228170  0.23978699  0.96079277  1
  N  N333  1  0.30731438  0.90521117  0.54393325  1
  N  N334  1  0.45939892  0.92583482  0.46025318  1
  N  N335  1  0.69028825  0.42786436  0.04822802  1
  N  N336  1  0.71121649  0.75900963  0.46129679  1
  N  N337  1  0.23218694  0.08767092  0.46130141  1
  N  N338  1  0.05681041  0.59081797  0.45910584  1
  N  N339  1  0.72408771  0.75828158  0.03531711  1
  N  N340  1  0.44544812  0.07083023  0.54191655  1
  N  N341  1  0.80342448  0.42714234  0.46021395  1
  N  N342  1  0.29616503  0.24434084  0.53835669  1
  N  N343  1  0.18728185  0.57348525  0.95434269  1
  N  N344  1  0.70516589  0.57384081  0.95951212  1
  N  N345  1  0.01145262  0.40893474  0.53466854  1
  N  N346  1  0.95294448  0.92580274  0.04203439  1
  N  N347  1  0.56313720  0.59587194  0.04575689  1
  N  N348  1  0.69511510  0.23913877  0.54279153  1
  N  N349  1  0.78949208  0.75806577  0.45988754  1
  N  N350  1  0.22435330  0.75913523  0.03486991  1
  N  N351  1  0.93659935  0.73654348  0.54659994  1
  N  N352  1  0.54124378  0.25673966  0.04061180  1
  N  N353  1  0.19320018  0.56999451  0.54319477  1
  N  N354  1  0.70688173  0.90798526  0.54294958  1
  N  N355  1  0.79506214  0.90717138  0.95822579  1
  N  N356  1  0.71702882  0.90771552  0.96200574  1
  N  N357  1  0.05897507  0.07172877  0.95585647  1
  N  N358  1  0.04898306  0.59462945  0.04057664  1
  N  N359  1  0.79148871  0.57389653  0.53879206  1
  N  N360  1  0.05403448  0.05849318  0.59149820  1
  N  N361  1  0.05201538  0.38940899  0.58649791  1
  N  N362  1  0.05569513  0.72422299  0.58921360  1
  N  N363  1  0.55667897  0.05766885  0.59517773  1
  N  N364  1  0.55860148  0.38993121  0.59598503  1
  N  N365  1  0.56737072  0.72051774  0.60679575  1
  N  N366  1  0.43743278  0.27518196  0.09844895  1
  N  N367  1  0.44639370  0.60928302  0.09157297  1
  N  N368  1  0.42717025  0.94630360  0.10128397  1
  N  N369  1  0.94350812  0.27429696  0.09161343  1
  N  N370  1  0.94229582  0.61080714  0.09414206  1
  N  N371  1  0.93180515  0.94369018  0.10056350  1
  N  N372  1  0.43758429  0.05796843  0.90908518  1
  N  N373  1  0.44111971  0.38761911  0.90638548  1
  N  N374  1  0.43039236  0.72444715  0.89964445  1
  N  N375  1  0.94500640  0.05650843  0.90620255  1
  N  N376  1  0.93667443  0.39000632  0.89640251  1
  N  N377  1  0.93186416  0.72267485  0.90066436  1
  N  N378  1  0.07032333  0.27756978  0.39882773  1
  N  N379  1  0.07071916  0.61029856  0.39877029  1
  N  N380  1  0.05632720  0.94198926  0.40578915  1
  N  N381  1  0.55987630  0.27316800  0.41409267  1
  N  N382  1  0.57130398  0.61043780  0.39734226  1
  N  N383  1  0.56365318  0.94520949  0.40044085  1
  N  N384  1  0.31584317  0.22408246  0.59644778  1
  N  N385  1  0.30572490  0.55674541  0.59005538  1
  N  N386  1  0.32008088  0.88888695  0.60277533  1
  N  N387  1  0.80832859  0.22207851  0.59012998  1
  N  N388  1  0.81113824  0.55582795  0.59836665  1
  N  N389  1  0.81435919  0.89151838  0.59438414  1
  N  N390  1  0.18394941  0.10876733  0.09652375  1
  N  N391  1  0.18387745  0.44646886  0.09913743  1
  N  N392  1  0.19383109  0.77692094  0.09195192  1
  N  N393  1  0.67611406  0.11047768  0.10465574  1
  N  N394  1  0.68134646  0.44419636  0.10834452  1
  N  N395  1  0.69353735  0.77655091  0.09231434  1
  N  N396  1  0.18376952  0.22266623  0.90330908  1
  N  N397  1  0.17738514  0.55641452  0.89420182  1
  N  N398  1  0.19447522  0.88945830  0.91021335  1
  N  N399  1  0.67835810  0.22079946  0.89572257  1
  N  N400  1  0.67851981  0.55755769  0.90332300  1
  N  N401  1  0.69213487  0.89070119  0.90568411  1
  N  N402  1  0.32574408  0.11055269  0.39799964  1
  N  N403  1  0.32334003  0.44430185  0.39950122  1
  N  N404  1  0.31599568  0.77894095  0.40146711  1
  N  N405  1  0.82431184  0.11169200  0.39870658  1
  N  N406  1  0.82091136  0.44699243  0.40140569  1
  N  N407  1  0.81651981  0.77619677  0.40432660  1
  N  N408  1  0.43348104  0.27996994  0.39856056  1
  N  N409  1  0.44373989  0.60830602  0.40596994  1
  N  N410  1  0.43562749  0.94196047  0.40245595  1
  N  N411  1  0.94061438  0.27621489  0.40703955  1
  N  N412  1  0.94372089  0.60510019  0.41133560  1
  N  N413  1  0.92901522  0.94515900  0.39623713  1
  N  N414  1  0.07235597  0.05472540  0.89657354  1
  N  N415  1  0.06543423  0.38818467  0.90451185  1
  N  N416  1  0.06124409  0.72729092  0.91104135  1
  N  N417  1  0.56730922  0.05516252  0.90208767  1
  N  N418  1  0.57023662  0.38695076  0.89303179  1
  N  N419  1  0.55820466  0.72546676  0.90612155  1
  N  N420  1  0.07125899  0.27799261  0.10497484  1
  N  N421  1  0.07108993  0.61141770  0.09842949  1
  N  N422  1  0.05813839  0.94233817  0.09612320  1
  N  N423  1  0.56546927  0.27570955  0.09890553  1
  N  N424  1  0.57300620  0.61307860  0.10592427  1
  N  N425  1  0.55348221  0.93937434  0.08373983  1
  N  N426  1  0.42890584  0.05431781  0.60151651  1
  N  N427  1  0.43192540  0.38982668  0.59680685  1
  N  N428  1  0.43835161  0.72243998  0.59320051  1
  N  N429  1  0.92781840  0.05411700  0.60743101  1
  N  N430  1  0.92520443  0.38983442  0.60468431  1
  N  N431  1  0.93002264  0.72017825  0.60706368  1
  N  N432  1  0.19886635  0.11224978  0.41017654  1
  N  N433  1  0.19350218  0.44210466  0.40540659  1
  N  N434  1  0.18575202  0.77730030  0.39715550  1
  N  N435  1  0.69531689  0.10928560  0.41117625  1
  N  N436  1  0.69322730  0.44023632  0.41225708  1
  N  N437  1  0.68953116  0.77660997  0.40433242  1
  N  N438  1  0.31064969  0.22066630  0.90599813  1
  N  N439  1  0.30393453  0.55915159  0.90874261  1
  N  N440  1  0.32349623  0.88799977  0.89639798  1
  N  N441  1  0.80790717  0.22350269  0.90598806  1
  N  N442  1  0.80564395  0.55770203  0.90385017  1
  N  N443  1  0.81942237  0.88760355  0.90255397  1
  N  N444  1  0.31059745  0.11009970  0.09682920  1
  N  N445  1  0.31430590  0.44422734  0.10195931  1
  N  N446  1  0.32155307  0.77852274  0.09958300  1
  N  N447  1  0.80365211  0.10942929  0.08946058  1
  N  N448  1  0.80768351  0.44345246  0.09208989  1
  N  N449  1  0.82122717  0.77665557  0.10062084  1
  N  N450  1  0.18757468  0.22874737  0.58758556  1
  N  N451  1  0.17778697  0.55563200  0.60293083  1
  N  N452  1  0.19363564  0.89119353  0.59205715  1
  N  N453  1  0.68191769  0.22167938  0.60104742  1
  N  N454  1  0.68294614  0.55805496  0.59302917  1
  N  N455  1  0.68811127  0.88900260  0.60147312  1
  Cl  Cl456  1  0.23853222  0.06273062  0.60249567  1
  Cl  Cl457  1  0.23929763  0.38860950  0.61319682  1
  Cl  Cl458  1  0.24621534  0.72230293  0.60755798  1
  Cl  Cl459  1  0.74067581  0.05556935  0.62634732  1
  Cl  Cl460  1  0.74330169  0.38742981  0.61469320  1
  Cl  Cl461  1  0.74934696  0.71617412  0.61783461  1
  Cl  Cl462  1  0.25505269  0.27781537  0.11299919  1
  Cl  Cl463  1  0.25932609  0.61241832  0.11368537  1
  Cl  Cl464  1  0.24214587  0.94292318  0.12342589  1
  Cl  Cl465  1  0.75717749  0.27596030  0.11851607  1
  Cl  Cl466  1  0.75782684  0.61354988  0.11595732  1
  Cl  Cl467  1  0.74604871  0.94650667  0.10757187  1
  Cl  Cl468  1  0.25583995  0.05164004  0.87109649  1
  Cl  Cl469  1  0.25256892  0.38776823  0.88484619  1
  Cl  Cl470  1  0.24655164  0.71974045  0.87510709  1
  Cl  Cl471  1  0.76105157  0.05728443  0.89661418  1
  Cl  Cl472  1  0.75623010  0.39129698  0.88326639  1
  Cl  Cl473  1  0.74361119  0.71813497  0.88114874  1
  Cl  Cl474  1  0.25182724  0.27923185  0.38151396  1
  Cl  Cl475  1  0.25835518  0.60845643  0.38493542  1
  Cl  Cl476  1  0.24213957  0.94467676  0.39423877  1
  Cl  Cl477  1  0.75211055  0.27687627  0.39220315  1
  Cl  Cl478  1  0.75796240  0.61247204  0.38107077  1
  Cl  Cl479  1  0.74578944  0.95162252  0.37306398  1
  Cl  Cl480  1  -0.00577402  0.22363231  0.61419421  1
  Cl  Cl481  1  -0.00424912  0.54811658  0.62047303  1
  Cl  Cl482  1  0.00822697  0.88980486  0.60883477  1
  Cl  Cl483  1  0.49885861  0.21890256  0.61724970  1
  Cl  Cl484  1  0.49105138  0.55637526  0.61592191  1
  Cl  Cl485  1  0.50427921  0.88706370  0.62006412  1
  Cl  Cl486  1  -0.01005522  0.11192987  0.11141558  1
  Cl  Cl487  1  -0.00570599  0.44189593  0.10915271  1
  Cl  Cl488  1  0.00774808  0.77600412  0.11723631  1
  Cl  Cl489  1  0.49400718  0.11326669  0.12077921  1
  Cl  Cl490  1  0.49633849  0.44606902  0.11802257  1
  Cl  Cl491  1  0.50518905  0.78397056  0.11757232  1
  Cl  Cl492  1  -0.00361795  0.22392695  0.88763830  1
  Cl  Cl493  1  -0.00962314  0.55547063  0.88867997  1
  Cl  Cl494  1  0.00304263  0.88570260  0.87775986  1
  Cl  Cl495  1  0.49166724  0.21798074  0.88168835  1
  Cl  Cl496  1  0.49104089  0.55808393  0.88693304  1
  Cl  Cl497  1  0.50772875  0.89098494  0.88575356  1
  Cl  Cl498  1  0.01701588  0.11072790  0.38400781  1
  Cl  Cl499  1  0.00717119  0.44125224  0.38916531  1
  Cl  Cl500  1  0.00056656  0.77649298  0.38560363  1
  Cl  Cl501  1  0.51181387  0.11479040  0.38861745  1
  Cl  Cl502  1  0.50929221  0.44796491  0.37908759  1
  Cl  Cl503  1  0.50403573  0.77803595  0.38419104  1
  Cl  Cl504  1  0.35845882  0.14706931  0.74071800  1
  Cl  Cl505  1  0.35149055  0.48046006  0.74812151  1
  Cl  Cl506  1  0.36191790  0.81332816  0.74839843  1
  Cl  Cl507  1  0.85509853  0.14540763  0.75040028  1
  Cl  Cl508  1  0.86065540  0.47850338  0.74984951  1
  Cl  Cl509  1  0.86021394  0.81244752  0.74994485  1
  Cl  Cl510  1  0.13974469  0.18887277  0.24937737  1
  Cl  Cl511  1  0.13880576  0.52116566  0.24622356  1
  Cl  Cl512  1  0.13778541  0.85254940  0.25488556  1
  Cl  Cl513  1  0.64229729  0.18740650  0.24689427  1
  Cl  Cl514  1  0.64061560  0.52110229  0.24596620  1
  Cl  Cl515  1  0.64425288  0.85101199  0.25050860  1
  Cl  Cl516  1  0.14048045  0.14935909  0.74905760  1
  Cl  Cl517  1  0.13173523  0.47834394  0.75422355  1
  Cl  Cl518  1  0.14042958  0.81645606  0.74845595  1
  Cl  Cl519  1  0.63554123  0.14666671  0.75282972  1
  Cl  Cl520  1  0.63702292  0.48107708  0.75374333  1
  Cl  Cl521  1  0.63766873  0.81240142  0.74811501  1
  Cl  Cl522  1  0.36117588  0.18597929  0.25558301  1
  Cl  Cl523  1  0.36284281  0.51862426  0.25185321  1
  Cl  Cl524  1  0.36254130  0.85297462  0.25050560  1
  Cl  Cl525  1  0.86437702  0.18625028  0.25598022  1
  Cl  Cl526  1  0.86235190  0.51754252  0.25382694  1
  Cl  Cl527  1  0.86393743  0.85510804  0.24665802  1
  Cl  Cl528  1  0.10354997  0.31252600  0.74939699  1
  Cl  Cl529  1  0.10947695  0.64626125  0.75135203  1
  Cl  Cl530  1  0.10749158  0.98272592  0.74723111  1
  Cl  Cl531  1  0.61153661  0.31118206  0.75269299  1
  Cl  Cl532  1  0.60868227  0.64413373  0.74920539  1
  Cl  Cl533  1  0.60562052  0.97947889  0.75431949  1
  Cl  Cl534  1  0.38665202  0.02024520  0.25300242  1
  Cl  Cl535  1  0.39014610  0.35482541  0.25473241  1
  Cl  Cl536  1  0.39181810  0.68659951  0.25063783  1
  Cl  Cl537  1  0.88863388  0.02089718  0.25304863  1
  Cl  Cl538  1  0.89623033  0.35306422  0.25036314  1
  Cl  Cl539  1  0.89556070  0.68337013  0.24879520  1
  Cl  Cl540  1  0.38921904  0.31501182  0.74813598  1
  Cl  Cl541  1  0.38647615  0.64751594  0.75049071  1
  Cl  Cl542  1  0.38574796  0.97861274  0.74568491  1
  Cl  Cl543  1  0.88393873  0.31233187  0.74873481  1
  Cl  Cl544  1  0.88813366  0.64818157  0.75033691  1
  Cl  Cl545  1  0.88577733  0.97962992  0.74559989  1
  Cl  Cl546  1  0.11196986  0.01868961  0.24999156  1
  Cl  Cl547  1  0.11587856  0.35449433  0.24653554  1
  Cl  Cl548  1  0.11514526  0.68712434  0.25695300  1
  Cl  Cl549  1  0.60823122  0.01856807  0.24308276  1
  Cl  Cl550  1  0.61203597  0.35277543  0.24653442  1
  Cl  Cl551  1  0.61327042  0.68541607  0.24952513  1
