# generated using pymatgen
data_H8PbC4(N3Cl2)2
_symmetry_space_group_name_H-M   'P 1'
_cell_length_a   16.61973242
_cell_length_b   22.50297157
_cell_length_c   21.58853154
_cell_angle_alpha   89.99995118
_cell_angle_beta   90.00263582
_cell_angle_gamma   90.00048736
_symmetry_Int_Tables_number   1
_chemical_formula_structural   H8PbC4(N3Cl2)2
_chemical_formula_sum   'H192 Pb24 C96 N144 Cl96'
_cell_volume   8073.96757090
_cell_formula_units_Z   24
loop_
 _symmetry_equiv_pos_site_id
 _symmetry_equiv_pos_as_xyz
  1  'x, y, z'
loop_
 _atom_site_type_symbol
 _atom_site_label
 _atom_site_symmetry_multiplicity
 _atom_site_fract_x
 _atom_site_fract_y
 _atom_site_fract_z
 _atom_site_occupancy
  H  H0  1  0.00552094  0.03253664  0.67980646  1
  H  H1  1  0.00252292  0.36420071  0.67809061  1
  H  H2  1  0.00682243  0.70101688  0.67700325  1
  H  H3  1  0.50103486  0.03127008  0.68177992  1
  H  H4  1  0.49483212  0.36420030  0.68193031  1
  H  H5  1  0.50802628  0.70029611  0.67755320  1
  H  H6  1  0.00057873  0.30182175  0.17639647  1
  H  H7  1  0.00589753  0.63695833  0.17819587  1
  H  H8  1  0.00793399  0.96803989  0.18261559  1
  H  H9  1  0.49985084  0.30102039  0.18067411  1
  H  H10  1  0.49720657  0.63508023  0.17884689  1
  H  H11  1  0.49568274  0.96751246  0.17980485  1
  H  H12  1  -0.00233887  0.03189341  0.81807997  1
  H  H13  1  -0.00725434  0.36487323  0.81992016  1
  H  H14  1  -0.00206616  0.70091227  0.82339765  1
  H  H15  1  0.50317947  0.03126262  0.81818676  1
  H  H16  1  0.50029292  0.36562678  0.81894838  1
  H  H17  1  0.50504520  0.69781011  0.81915350  1
  H  H18  1  0.00035992  0.30191756  0.32080087  1
  H  H19  1  0.00205388  0.63424164  0.31697517  1
  H  H20  1  -0.00203832  0.96828774  0.32258837  1
  H  H21  1  0.50231707  0.30121762  0.31742968  1
  H  H22  1  0.49396265  0.63475216  0.32267839  1
  H  H23  1  0.50502119  0.96812395  0.31979250  1
  H  H24  1  0.25371128  0.19778321  0.68223362  1
  H  H25  1  0.24107585  0.53221950  0.67968992  1
  H  H26  1  0.24911081  0.86630192  0.67782421  1
  H  H27  1  0.74340770  0.19969563  0.67945124  1
  H  H28  1  0.75800522  0.53308010  0.67977251  1
  H  H29  1  0.75085560  0.86371098  0.67941480  1
  H  H30  1  0.25916087  0.13449801  0.18041050  1
  H  H31  1  0.24349772  0.46915388  0.18254021  1
  H  H32  1  0.24686228  0.80170933  0.18195572  1
  H  H33  1  0.74125056  0.13369008  0.18167995  1
  H  H34  1  0.75627537  0.46815924  0.18131900  1
  H  H35  1  0.74933481  0.79950337  0.18062334  1
  H  H36  1  0.26237635  0.19821659  0.82037248  1
  H  H37  1  0.24060382  0.53221134  0.82047882  1
  H  H38  1  0.24572587  0.86515145  0.81776438  1
  H  H39  1  0.73842190  0.19867814  0.82253728  1
  H  H40  1  0.75306654  0.53119097  0.81961041  1
  H  H41  1  0.75735939  0.86492862  0.81772621  1
  H  H42  1  0.25336335  0.13643967  0.31939312  1
  H  H43  1  0.24841787  0.46935826  0.31776324  1
  H  H44  1  0.24948626  0.80214763  0.31989194  1
  H  H45  1  0.74690970  0.13459567  0.32186285  1
  H  H46  1  0.74753054  0.46839959  0.32171184  1
  H  H47  1  0.74446859  0.80100423  0.32178832  1
  H  H48  1  0.11800624  0.05474076  0.60089906  1
  H  H49  1  0.12216930  0.38964139  0.60497736  1
  H  H50  1  0.11918396  0.72451478  0.59693933  1
  H  H51  1  0.62300379  0.05502831  0.60947913  1
  H  H52  1  0.62499074  0.38590074  0.61541940  1
  H  H53  1  0.62036278  0.72297061  0.59946546  1
  H  H54  1  0.37510138  0.27988919  0.11012314  1
  H  H55  1  0.37250756  0.61087073  0.10814087  1
  H  H56  1  0.37641275  0.94524757  0.10361359  1
  H  H57  1  0.87537173  0.27803128  0.10672236  1
  H  H58  1  0.86962970  0.61662745  0.12070728  1
  H  H59  1  0.87305675  0.94765720  0.12009286  1
  H  H60  1  0.37118660  0.05273037  0.88308074  1
  H  H61  1  0.37801951  0.38804386  0.89072639  1
  H  H62  1  0.37143883  0.71822831  0.88028054  1
  H  H63  1  0.87511125  0.05479043  0.88941161  1
  H  H64  1  0.87679311  0.38992034  0.89681739  1
  H  H65  1  0.87281455  0.72033634  0.89180592  1
  H  H66  1  0.11483142  0.27658303  0.40014210  1
  H  H67  1  0.12611864  0.61320228  0.38696221  1
  H  H68  1  0.12445761  0.94979169  0.39228355  1
  H  H69  1  0.61988394  0.27856303  0.39397513  1
  H  H70  1  0.62742318  0.61526145  0.38543569  1
  H  H71  1  0.62124413  0.94394439  0.39648280  1
  H  H72  1  0.37833903  0.22154646  0.61080817  1
  H  H73  1  0.37633438  0.55325731  0.62046644  1
  H  H74  1  0.37689449  0.88509909  0.61114077  1
  H  H75  1  0.88347660  0.21699883  0.62615963  1
  H  H76  1  0.86831181  0.55657270  0.59877129  1
  H  H77  1  0.87761312  0.88745356  0.61230209  1
  H  H78  1  0.12591815  0.11520585  0.11658633  1
  H  H79  1  0.12224283  0.44596362  0.10939312  1
  H  H80  1  0.12800134  0.77743874  0.10518337  1
  H  H81  1  0.62912621  0.10970424  0.09977469  1
  H  H82  1  0.62352825  0.44741946  0.11581399  1
  H  H83  1  0.63308596  0.77783203  0.10479293  1
  H  H84  1  0.12330102  0.21873968  0.87560418  1
  H  H85  1  0.13286911  0.55955237  0.90510630  1
  H  H86  1  0.12818261  0.88649600  0.89473562  1
  H  H87  1  0.63521317  0.22691845  0.90856599  1
  H  H88  1  0.62837677  0.55316758  0.88898433  1
  H  H89  1  0.62670414  0.88664809  0.88361319  1
  H  H90  1  0.37714184  0.11172172  0.39155793  1
  H  H91  1  0.37424844  0.44788825  0.38861349  1
  H  H92  1  0.37886102  0.78039611  0.38652624  1
  H  H93  1  0.87899425  0.11355870  0.38500271  1
  H  H94  1  0.87576984  0.44536850  0.38784138  1
  H  H95  1  0.87935962  0.78195839  0.38172537  1
  H  H96  1  0.37110266  0.27981662  0.38324926  1
  H  H97  1  0.37961960  0.61038198  0.40156201  1
  H  H98  1  0.37222635  0.94734746  0.38343189  1
  H  H99  1  0.86766762  0.28045758  0.38406058  1
  H  H100  1  0.87623341  0.61357942  0.38535776  1
  H  H101  1  0.87600241  0.94185333  0.39414594  1
  H  H102  1  0.12460288  0.05276509  0.88494241  1
  H  H103  1  0.12519274  0.38556941  0.88385095  1
  H  H104  1  0.12153626  0.72051149  0.89254603  1
  H  H105  1  0.62006744  0.05613357  0.89476078  1
  H  H106  1  0.62801822  0.38627004  0.88775364  1
  H  H107  1  0.62030315  0.72367846  0.89728117  1
  H  H108  1  0.12384387  0.27776107  0.10623116  1
  H  H109  1  0.11685057  0.60943328  0.09679837  1
  H  H110  1  0.12129185  0.94469117  0.10299051  1
  H  H111  1  0.62338998  0.27725873  0.10961014  1
  H  H112  1  0.62162872  0.61117632  0.10954804  1
  H  H113  1  0.62477963  0.94585694  0.11213573  1
  H  H114  1  0.37364014  0.05202611  0.61186038  1
  H  H115  1  0.37631272  0.38915962  0.60683630  1
  H  H116  1  0.37305308  0.71691189  0.61848326  1
  H  H117  1  0.86989218  0.05198017  0.62107407  1
  H  H118  1  0.87331777  0.38681919  0.61186814  1
  H  H119  1  0.87141037  0.71993759  0.61723818  1
  H  H120  1  0.12851076  0.11284513  0.38995348  1
  H  H121  1  0.12512420  0.44454311  0.38910059  1
  H  H122  1  0.12987062  0.77916876  0.39628598  1
  H  H123  1  0.63115087  0.10974088  0.39840614  1
  H  H124  1  0.62655773  0.44473565  0.39540919  1
  H  H125  1  0.63222878  0.77586175  0.40278312  1
  H  H126  1  0.36946872  0.22393939  0.90350712  1
  H  H127  1  0.37819930  0.55091365  0.87738821  1
  H  H128  1  0.37704528  0.88675617  0.88344400  1
  H  H129  1  0.87927042  0.21844734  0.87289419  1
  H  H130  1  0.87766305  0.55439506  0.88845646  1
  H  H131  1  0.87536654  0.88624291  0.89420366  1
  H  H132  1  0.37418721  0.10933435  0.10245393  1
  H  H133  1  0.37129914  0.44709065  0.11347758  1
  H  H134  1  0.37640933  0.77876042  0.11314567  1
  H  H135  1  0.87610106  0.11613703  0.11968131  1
  H  H136  1  0.87129323  0.44378911  0.10166760  1
  H  H137  1  0.88219139  0.78069198  0.11765232  1
  H  H138  1  0.12885419  0.22020327  0.61162930  1
  H  H139  1  0.12860204  0.55740379  0.59923378  1
  H  H140  1  0.12821852  0.88783158  0.60622473  1
  H  H141  1  0.63715033  0.22341903  0.59723016  1
  H  H142  1  0.62076494  0.55327468  0.62158324  1
  H  H143  1  0.62879402  0.88674565  0.60548473  1
  H  H144  1  0.40433335  0.91709679  0.48908558  1
  H  H145  1  0.04599647  0.58586980  -0.00545822  1
  H  H146  1  0.18876710  0.91376132  1.00271143  1
  H  H147  1  0.67995918  0.41462040  0.49854789  1
  H  H148  1  0.42026281  0.58253484  0.00360157  1
  H  H149  1  0.43332016  0.41729151  0.49952286  1
  H  H150  1  0.92153683  0.08164494  0.99950606  1
  H  H151  1  0.81854399  0.91329268  1.00153685  1
  H  H152  1  0.89878070  0.74892282  0.50840765  1
  H  H153  1  0.42807826  0.23636647  0.01259370  1
  H  H154  1  0.80154720  0.58305754  0.49159109  1
  H  H155  1  0.34150149  0.75106081  0.49690233  1
  H  H156  1  0.91967787  0.58886737  0.49849188  1
  H  H157  1  0.20858457  0.58556460  1.00410842  1
  H  H158  1  0.05559171  0.91512927  -0.00303388  1
  H  H159  1  0.17772400  0.24863076  0.50248645  1
  H  H160  1  0.08588580  0.08065972  0.99660607  1
  H  H161  1  0.71387616  0.24961893  1.00781114  1
  H  H162  1  0.64747253  0.58278280  0.51377378  1
  H  H163  1  0.29852382  0.24962056  1.00917968  1
  H  H164  1  0.56945136  0.26790683  0.00230227  1
  H  H165  1  0.58042324  0.91757255  0.00660687  1
  H  H166  1  0.56396342  0.91254297  0.50326666  1
  H  H167  1  0.83728776  0.58268214  0.99899482  1
  H  H168  1  0.17485689  0.41674399  0.00150559  1
  H  H169  1  0.57139216  0.08407835  0.50116864  1
  H  H170  1  0.84774051  0.08377776  0.49286747  1
  H  H171  1  0.19763559  0.58339643  0.49641025  1
  H  H172  1  0.69130372  0.75143074  -0.00609848  1
  H  H173  1  0.91281271  0.41504251  0.50563221  1
  H  H174  1  0.58472382  0.41933243  0.99192035  1
  H  H175  1  0.70761590  0.25061627  0.49062977  1
  H  H176  1  0.32485934  0.08369258  0.49524809  1
  H  H177  1  0.91858461  0.25154683  0.00065702  1
  H  H178  1  0.55726413  0.74538446  1.00143987  1
  H  H179  1  0.17496082  0.41624978  0.49770392  1
  H  H180  1  0.40267895  0.75025390  0.99176985  1
  H  H181  1  0.55995041  0.25170375  0.50193212  1
  H  H182  1  0.14382304  0.24502567  0.98451428  1
  H  H183  1  0.89872435  0.25096648  0.49225754  1
  H  H184  1  0.67038275  0.58131772  0.99961217  1
  H  H185  1  0.69995075  0.08169739  -0.00085632  1
  H  H186  1  0.42659097  0.41698106  1.00024917  1
  H  H187  1  0.07913959  0.58788845  0.49982381  1
  H  H188  1  0.05811730  0.08344987  0.49399906  1
  H  H189  1  0.08094958  0.91168600  0.49193175  1
  H  H190  1  0.92637352  0.92575735  0.49881102  1
  H  H191  1  0.55856559  0.08174616  1.00288868  1
  Pb  Pb192  1  0.25022747  0.04502437  0.74553702  1
  Pb  Pb193  1  0.24718002  0.38166096  0.74851173  1
  Pb  Pb194  1  0.24983747  0.71354861  0.74571666  1
  Pb  Pb195  1  0.74536972  0.04892483  0.75336448  1
  Pb  Pb196  1  0.75300908  0.38068081  0.74747032  1
  Pb  Pb197  1  0.74764469  0.71306604  0.75185623  1
  Pb  Pb198  1  0.24454194  0.28584840  0.24892601  1
  Pb  Pb199  1  0.24735838  0.61847978  0.25055695  1
  Pb  Pb200  1  0.25035750  0.95371038  0.24634413  1
  Pb  Pb201  1  0.74736587  0.28423317  0.24721089  1
  Pb  Pb202  1  0.74825171  0.62103863  0.25205302  1
  Pb  Pb203  1  0.74793442  0.95226647  0.25269921  1
  Pb  Pb204  1  0.00265822  0.21223258  0.75036589  1
  Pb  Pb205  1  0.00139359  0.55125982  0.74958143  1
  Pb  Pb206  1  -0.00187573  0.88067947  0.74954305  1
  Pb  Pb207  1  0.49796051  0.21679670  0.75460275  1
  Pb  Pb208  1  0.50015982  0.54581350  0.75336301  1
  Pb  Pb209  1  0.50013871  0.87822089  0.74714998  1
  Pb  Pb210  1  0.00072499  0.11801494  0.24974555  1
  Pb  Pb211  1  -0.00454525  0.45203335  0.25082204  1
  Pb  Pb212  1  0.00113305  0.78714030  0.25421811  1
  Pb  Pb213  1  0.49706418  0.11871197  0.24873336  1
  Pb  Pb214  1  0.49787346  0.45280376  0.24917862  1
  Pb  Pb215  1  0.49889350  0.78568458  0.24651974  1
  C  C216  1  -0.00194815  0.04662047  0.63217186  1
  C  C217  1  -0.00116745  0.37982431  0.63069863  1
  C  C218  1  -0.00136372  0.71541561  0.62946175  1
  C  C219  1  0.49900616  0.04623898  0.63409483  1
  C  C220  1  0.49890151  0.37955575  0.63439556  1
  C  C221  1  0.50019321  0.71383474  0.62973240  1
  C  C222  1  -0.00059164  0.28646856  0.12878959  1
  C  C223  1  -0.00220457  0.62207737  0.13080440  1
  C  C224  1  0.00050279  0.95341674  0.13504448  1
  C  C225  1  0.49951570  0.28626461  0.13260533  1
  C  C226  1  0.49656918  0.61962456  0.13131352  1
  C  C227  1  0.49924099  0.95263088  0.13214877  1
  C  C228  1  -0.00090448  0.04670416  0.86596783  1
  C  C229  1  -0.00139137  0.38021862  0.86712294  1
  C  C230  1  -0.00260634  0.71427474  0.87160635  1
  C  C231  1  0.49794043  0.04660176  0.86561682  1
  C  C232  1  0.50255048  0.38090350  0.86673278  1
  C  C233  1  0.49918334  0.71269139  0.86689534  1
  C  C234  1  -0.00610588  0.28643587  0.36816878  1
  C  C235  1  0.00149011  0.62007348  0.36509776  1
  C  C236  1  -0.00048675  0.95297781  0.37039414  1
  C  C237  1  0.49756119  0.28648929  0.36510130  1
  C  C238  1  0.50070912  0.62066656  0.37023211  1
  C  C239  1  0.49905090  0.95282691  0.36737294  1
  C  C240  1  0.25373475  0.21296374  0.63457525  1
  C  C241  1  0.24837802  0.54680255  0.63220370  1
  C  C242  1  0.25135822  0.88009727  0.62983420  1
  C  C243  1  0.75459584  0.21334516  0.63201963  1
  C  C244  1  0.74846313  0.54773832  0.63228995  1
  C  C245  1  0.75220312  0.87918472  0.63207272  1
  C  C246  1  0.25274911  0.11970143  0.13303881  1
  C  C247  1  0.24588276  0.45383814  0.13496777  1
  C  C248  1  0.25065646  0.78664971  0.13426334  1
  C  C249  1  0.74851309  0.11918558  0.13410505  1
  C  C250  1  0.75024827  0.45319463  0.13371487  1
  C  C251  1  0.75465817  0.78610322  0.13262331  1
  C  C252  1  0.25113175  0.21309257  0.86756768  1
  C  C253  1  0.25027241  0.54671514  0.86783745  1
  C  C254  1  0.25044795  0.87953089  0.86554441  1
  C  C255  1  0.75083287  0.21342228  0.86944612  1
  C  C256  1  0.75304264  0.54636228  0.86740520  1
  C  C257  1  0.75285967  0.87966987  0.86545300  1
  C  C258  1  0.25341371  0.12066910  0.36683522  1
  C  C259  1  0.24939898  0.45393113  0.36533242  1
  C  C260  1  0.25266347  0.78738843  0.36759207  1
  C  C261  1  0.75286404  0.11946689  0.36933215  1
  C  C262  1  0.74954913  0.45280409  0.36918079  1
  C  C263  1  0.75194286  0.78637144  0.36913716  1
  C  C264  1  0.03677432  0.73896934  0.96434860  1
  C  C265  1  0.27052672  0.23928787  0.96493762  1
  C  C266  1  0.77196562  0.57371623  0.53544794  1
  C  C267  1  0.30551231  0.57422350  0.54352855  1
  C  C268  1  0.96117121  0.07142654  0.96092570  1
  C  C269  1  0.02247060  0.07259687  0.53471711  1
  C  C270  1  0.46904747  0.40630156  0.54005499  1
  C  C271  1  0.52517851  0.07255970  0.96058902  1
  C  C272  1  0.80690935  0.76245746  0.04185143  1
  C  C273  1  0.02479721  0.74335189  0.53279253  1
  C  C274  1  0.52929371  0.92450784  0.46235576  1
  C  C275  1  0.79386585  0.90918245  0.54098335  1
  C  C276  1  0.02407029  0.92639468  0.03968488  1
  C  C277  1  0.97090947  0.40993258  0.96121907  1
  C  C278  1  0.53323026  0.07309489  0.54067382  1
  C  C279  1  0.78242119  0.90405569  0.96058648  1
  C  C280  1  0.52561557  0.73969487  0.53425861  1
  C  C281  1  0.03480744  0.40925447  0.53613184  1
  C  C282  1  0.52564770  0.26146068  0.46019541  1
  C  C283  1  0.94132951  0.07082406  0.54308378  1
  C  C284  1  0.44478286  0.73755113  0.54057278  1
  C  C285  1  0.72554569  0.76146665  0.03561834  1
  C  C286  1  0.22247441  0.90452288  0.96057114  1
  C  C287  1  0.79462884  0.57218631  0.96140287  1
  C  C288  1  0.21668885  0.23866398  0.54163053  1
  C  C289  1  0.04032099  0.25858186  0.03491681  1
  C  C290  1  0.95916575  0.59716206  0.45925861  1
  C  C291  1  0.21390137  0.42703612  0.45845409  1
  C  C292  1  0.72215836  0.09075623  0.46531515  1
  C  C293  1  0.21258556  0.42721818  0.04129437  1
  C  C294  1  0.95603235  0.73873583  0.96404069  1
  C  C295  1  0.04339866  0.07096930  0.95944182  1
  C  C296  1  0.44642489  0.74047632  0.95572491  1
  C  C297  1  0.81766426  0.24048348  0.95413053  1
  C  C298  1  0.47472862  0.59367652  0.46576625  1
  C  C299  1  0.53906258  0.59027558  0.03835282  1
  C  C300  1  0.46453761  0.40680721  0.96062992  1
  C  C301  1  0.81807751  0.23665090  0.54552074  1
  C  C302  1  0.79690691  0.42476296  0.46106676  1
  C  C303  1  0.29682768  0.90468762  0.53767536  1
  C  C304  1  0.93860102  0.59441718  0.04309269  1
  C  C305  1  0.27939194  0.09075167  0.03848779  1
  C  C306  1  0.73776066  0.23936403  0.53379513  1
  C  C307  1  0.80428793  0.76094200  0.45843800  1
  C  C308  1  0.21491340  0.90544998  0.53571970  1
  C  C309  1  0.04122362  0.59697700  0.45985445  1
  C  C310  1  0.29621221  0.76163962  0.45918600  1
  C  C311  1  0.71231741  0.57175775  0.96160710  1
  N  N312  1  0.29332728  0.42807160  0.45888307  1
  N  N313  1  0.45965486  0.59134453  0.03907543  1
  N  N314  1  0.55202011  0.59509466  0.46162013  1
  N  N315  1  0.45897523  0.26621044  0.03935699  1
  N  N316  1  0.04121254  0.93455830  0.46377049  1
  N  N317  1  0.71750489  0.42454688  0.46237649  1
  N  N318  1  0.94635405  0.74107089  0.54081328  1
  N  N319  1  0.54843936  0.40510663  0.54233779  1
  N  N320  1  0.30152865  0.90526381  0.95686253  1
  N  N321  1  0.21686478  0.76108812  0.46294057  1
  N  N322  1  0.95565359  0.40751962  0.53988999  1
  N  N323  1  0.96093006  0.25948585  0.03628272  1
  N  N324  1  0.02328089  0.25909277  0.46365174  1
  N  N325  1  0.29599941  0.23946434  0.54080295  1
  N  N326  1  0.44993845  0.92607547  0.45664167  1
  N  N327  1  0.31201898  0.57168751  0.95449205  1
  N  N328  1  0.94548061  0.26064335  0.45698312  1
  N  N329  1  0.80080398  0.09268958  0.45931065  1
  N  N330  1  0.54094988  0.92853494  0.04140375  1
  N  N331  1  0.53892284  0.25651173  0.04185144  1
  N  N332  1  0.23464954  0.57465120  0.96236293  1
  N  N333  1  0.73980045  0.24303797  0.96505131  1
  N  N334  1  0.01715887  0.59238135  0.03611690  1
  N  N335  1  0.29459972  0.76021072  0.04187057  1
  N  N336  1  0.94512964  0.92725937  0.04543451  1
  N  N337  1  0.72723840  0.75832857  0.46648558  1
  N  N338  1  0.54437419  0.40521639  0.95882379  1
  N  N339  1  0.44659837  0.26156044  0.45674375  1
  N  N340  1  0.46288657  0.92764656  0.03725291  1
  N  N341  1  0.72780712  0.09536007  0.03904308  1
  N  N342  1  0.77775989  0.42683198  0.03761968  1
  N  N343  1  0.96315680  0.91973195  0.46068710  1
  N  N344  1  0.29213129  0.42743968  0.04230849  1
  N  N345  1  0.70299547  0.90443050  0.95761454  1
  N  N346  1  0.19209407  0.23771985  0.95401084  1
  N  N347  1  0.70142388  0.42856076  0.04219896  1
  N  N348  1  0.69331141  0.57274197  0.54469367  1
  N  N349  1  0.22702748  0.57472871  0.53716378  1
  N  N350  1  0.80534893  0.09677526  0.04492167  1
  N  N351  1  0.45374832  0.07202449  0.54087288  1
  N  N352  1  0.44605610  0.07255088  0.95664877  1
  N  N353  1  0.28827709  0.09287835  0.45817705  1
  N  N354  1  0.04846400  0.40839596  0.95844542  1
  N  N355  1  0.20993813  0.09343203  0.45925751  1
  N  N356  1  0.71618330  0.90892042  0.53759987  1
  N  N357  1  0.21840751  0.75962851  0.03931407  1
  N  N358  1  0.52592560  0.74269722  0.96053227  1
  N  N359  1  0.20205098  0.09293056  0.04166050  1
  N  N360  1  0.05666132  0.05702619  0.59152883  1
  N  N361  1  0.06164744  0.39225478  0.59253638  1
  N  N362  1  0.05762010  0.72735568  0.58761567  1
  N  N363  1  0.56229462  0.05743252  0.59745491  1
  N  N364  1  0.56501519  0.38855270  0.60162546  1
  N  N365  1  0.55931707  0.72532008  0.58851692  1
  N  N366  1  0.43542086  0.27303345  0.09901752  1
  N  N367  1  0.43291259  0.61024025  0.09616653  1
  N  N368  1  0.43742746  0.94300479  0.09402586  1
  N  N369  1  0.93551600  0.27744980  0.09397906  1
  N  N370  1  0.92658950  0.61169802  0.10202404  1
  N  N371  1  0.93235932  0.94394564  0.10492043  1
  N  N372  1  0.43101618  0.05633477  0.89739602  1
  N  N373  1  0.43835685  0.39108723  0.90365070  1
  N  N374  1  0.42974051  0.72327818  0.89726512  1
  N  N375  1  0.93507879  0.05650563  0.90241530  1
  N  N376  1  0.93786063  0.39303668  0.90653599  1
  N  N377  1  0.93178169  0.72379756  0.90730486  1
  N  N378  1  0.05294927  0.27514861  0.40822819  1
  N  N379  1  0.06632193  0.61113381  0.40095785  1
  N  N380  1  0.06436053  0.94375816  0.40456188  1
  N  N381  1  0.55870305  0.27632117  0.40424469  1
  N  N382  1  0.56836359  0.61233999  0.40083624  1
  N  N383  1  0.56022529  0.94116630  0.40685769  1
  N  N384  1  0.31750398  0.22348750  0.59922359  1
  N  N385  1  0.31879160  0.55728782  0.60236676  1
  N  N386  1  0.31800904  0.88914501  0.59559542  1
  N  N387  1  0.82750409  0.22118393  0.60524223  1
  N  N388  1  0.80682204  0.55821315  0.58985830  1
  N  N389  1  0.81822062  0.89124998  0.59813715  1
  N  N390  1  0.18537062  0.11098557  0.10205372  1
  N  N391  1  0.18283741  0.44296956  0.09789799  1
  N  N392  1  0.18968555  0.77584006  0.09619604  1
  N  N393  1  0.69127969  0.10737242  0.09337217  1
  N  N394  1  0.68326156  0.44451039  0.10192895  1
  N  N395  1  0.69387962  0.77635777  0.09339235  1
  N  N396  1  0.18081092  0.22110794  0.89441261  1
  N  N397  1  0.19545099  0.55827628  0.91046850  1
  N  N398  1  0.18936554  0.88905313  0.90491380  1
  N  N399  1  0.69758382  0.22382124  0.91351337  1
  N  N400  1  0.68820658  0.55589900  0.90272264  1
  N  N401  1  0.68664164  0.88944777  0.89777831  1
  N  N402  1  0.31634016  0.10988744  0.40260085  1
  N  N403  1  0.31359470  0.44475121  0.40043429  1
  N  N404  1  0.31933246  0.77745495  0.40087076  1
  N  N405  1  0.82004476  0.11038793  0.40040838  1
  N  N406  1  0.81661663  0.44194908  0.40319816  1
  N  N407  1  0.82174522  0.77744384  0.39905114  1
  N  N408  1  0.43078975  0.27704816  0.39726554  1
  N  N409  1  0.44094246  0.60903018  0.41083302  1
  N  N410  1  0.43172566  0.94346998  0.39830829  1
  N  N411  1  0.92664775  0.27697378  0.39917268  1
  N  N412  1  0.93582889  0.61127051  0.40002860  1
  N  N413  1  0.93670436  0.94219928  0.40628152  1
  N  N414  1  0.06525663  0.05581681  0.90015207  1
  N  N415  1  0.06567991  0.38984264  0.89822882  1
  N  N416  1  0.06227305  0.72421875  0.90797877  1
  N  N417  1  0.55868573  0.05739343  0.90494513  1
  N  N418  1  0.56755525  0.39112691  0.90029567  1
  N  N419  1  0.55828554  0.72237805  0.90660927  1
  N  N420  1  0.06415217  0.27501102  0.09242526  1
  N  N421  1  0.05470895  0.61204445  0.08941528  1
  N  N422  1  0.05960903  0.94230044  0.09432472  1
  N  N423  1  0.56326123  0.28042164  0.09630764  1
  N  N424  1  0.56188012  0.60764823  0.09546178  1
  N  N425  1  0.56469370  0.94256968  0.09903963  1
  N  N426  1  0.43427742  0.05529093  0.59973122  1
  N  N427  1  0.43722428  0.39105202  0.59613854  1
  N  N428  1  0.42992149  0.72187680  0.59959754  1
  N  N429  1  0.92739159  0.05558334  0.60230961  1
  N  N430  1  0.93304852  0.38900914  0.59792284  1
  N  N431  1  0.92981551  0.72399202  0.60045865  1
  N  N432  1  0.18904092  0.11023483  0.40189732  1
  N  N433  1  0.18553634  0.44269191  0.40134431  1
  N  N434  1  0.19157476  0.77728969  0.40558469  1
  N  N435  1  0.69207655  0.10749054  0.40950944  1
  N  N436  1  0.68770995  0.44204028  0.40576666  1
  N  N437  1  0.69443690  0.77480116  0.40958816  1
  N  N438  1  0.30778302  0.22446500  0.91116188  1
  N  N439  1  0.32090056  0.55507091  0.89531644  1
  N  N440  1  0.31719661  0.88966543  0.89752861  1
  N  N441  1  0.82424986  0.22323266  0.89455100  1
  N  N442  1  0.81818955  0.55645687  0.90238586  1
  N  N443  1  0.81432998  0.88926593  0.90441907  1
  N  N444  1  0.31312480  0.10717839  0.09309494  1
  N  N445  1  0.31092556  0.44383489  0.10102843  1
  N  N446  1  0.31611790  0.77693166  0.10087191  1
  N  N447  1  0.81756004  0.11209595  0.10385753  1
  N  N448  1  0.80928395  0.44177795  0.09412242  1
  N  N449  1  0.82381358  0.77715008  0.10052676  1
  N  N450  1  0.18917488  0.22272065  0.59881758  1
  N  N451  1  0.19039041  0.55648085  0.59139988  1
  N  N452  1  0.18816455  0.89056552  0.59235981  1
  N  N453  1  0.69892101  0.22443950  0.58913092  1
  N  N454  1  0.67914464  0.55719400  0.60429106  1
  N  N455  1  0.69013574  0.88966171  0.59551291  1
  Cl  Cl456  1  0.24864600  0.05271384  0.61119972  1
  Cl  Cl457  1  0.24688724  0.38894210  0.61605285  1
  Cl  Cl458  1  0.24287826  0.71647335  0.61380686  1
  Cl  Cl459  1  0.74574952  0.05451669  0.62016578  1
  Cl  Cl460  1  0.74925077  0.38925267  0.61078007  1
  Cl  Cl461  1  0.74737204  0.71642113  0.62092188  1
  Cl  Cl462  1  0.25146525  0.27723203  0.11134564  1
  Cl  Cl463  1  0.24096935  0.60643107  0.10620327  1
  Cl  Cl464  1  0.24742647  0.94674681  0.11228086  1
  Cl  Cl465  1  0.74622203  0.27154799  0.10544206  1
  Cl  Cl466  1  0.74422210  0.61468003  0.11999312  1
  Cl  Cl467  1  0.74785654  0.94817199  0.11731364  1
  Cl  Cl468  1  0.24788213  0.05186223  0.87606477  1
  Cl  Cl469  1  0.25172763  0.38439641  0.88241147  1
  Cl  Cl470  1  0.24710622  0.71464312  0.87640955  1
  Cl  Cl471  1  0.74354287  0.05890701  0.89140519  1
  Cl  Cl472  1  0.75123285  0.38194400  0.87918229  1
  Cl  Cl473  1  0.74231511  0.72245413  0.88596170  1
  Cl  Cl474  1  0.23891494  0.27912401  0.38147204  1
  Cl  Cl475  1  0.25194102  0.60870520  0.38749380  1
  Cl  Cl476  1  0.24752649  0.94931029  0.38005328  1
  Cl  Cl477  1  0.74374120  0.28156583  0.38155070  1
  Cl  Cl478  1  0.75247171  0.61020845  0.38749883  1
  Cl  Cl479  1  0.75164876  0.94886218  0.38403260  1
  Cl  Cl480  1  0.00758233  0.22063768  0.62068215  1
  Cl  Cl481  1  -0.00002713  0.55502020  0.61352710  1
  Cl  Cl482  1  0.00160269  0.88769911  0.61154764  1
  Cl  Cl483  1  0.50881992  0.22128236  0.62045959  1
  Cl  Cl484  1  0.49909413  0.55278951  0.62250454  1
  Cl  Cl485  1  0.50444505  0.88693381  0.61192699  1
  Cl  Cl486  1  0.00087284  0.11708265  0.11691901  1
  Cl  Cl487  1  -0.00524350  0.44963562  0.11818353  1
  Cl  Cl488  1  0.00677840  0.78109212  0.12315216  1
  Cl  Cl489  1  0.50572446  0.11380417  0.11163478  1
  Cl  Cl490  1  0.49889642  0.44568880  0.11100489  1
  Cl  Cl491  1  0.50550918  0.77368312  0.10630731  1
  Cl  Cl492  1  0.00165502  0.22447783  0.88516811  1
  Cl  Cl493  1  0.01166960  0.55944062  0.89291472  1
  Cl  Cl494  1  0.00288162  0.88605782  0.88281771  1
  Cl  Cl495  1  0.50600959  0.22888790  0.90098039  1
  Cl  Cl496  1  0.50279336  0.55377276  0.88847538  1
  Cl  Cl497  1  0.50284932  0.88512930  0.88022801  1
  Cl  Cl498  1  0.00404928  0.11271193  0.38378487  1
  Cl  Cl499  1  -0.00090616  0.44264633  0.38650593  1
  Cl  Cl500  1  0.00522574  0.78007157  0.38997581  1
  Cl  Cl501  1  0.50411542  0.11159454  0.38282806  1
  Cl  Cl502  1  0.50137354  0.44869413  0.38211159  1
  Cl  Cl503  1  0.50548786  0.78151810  0.37840244  1
  Cl  Cl504  1  0.36155037  0.14605966  0.75058631  1
  Cl  Cl505  1  0.36492091  0.47792466  0.75283695  1
  Cl  Cl506  1  0.36196125  0.81124088  0.75071479  1
  Cl  Cl507  1  0.86624963  0.14413708  0.74971562  1
  Cl  Cl508  1  0.85649969  0.47859006  0.74828475  1
  Cl  Cl509  1  0.86335800  0.81047651  0.74727951  1
  Cl  Cl510  1  0.13993306  0.18854097  0.24767043  1
  Cl  Cl511  1  0.14026803  0.52353704  0.25256716  1
  Cl  Cl512  1  0.13774370  0.85545719  0.25378387  1
  Cl  Cl513  1  0.64199915  0.18966111  0.24880731  1
  Cl  Cl514  1  0.63881630  0.52166128  0.24945623  1
  Cl  Cl515  1  0.64027213  0.85524998  0.24923727  1
  Cl  Cl516  1  0.13825516  0.14523874  0.75452120  1
  Cl  Cl517  1  0.14249783  0.47831438  0.75033074  1
  Cl  Cl518  1  0.13770240  0.81139904  0.74617296  1
  Cl  Cl519  1  0.64447866  0.14531885  0.75222407  1
  Cl  Cl520  1  0.63605672  0.47757034  0.74814972  1
  Cl  Cl521  1  0.63816098  0.81185274  0.75254640  1
  Cl  Cl522  1  0.36376173  0.18956912  0.24959558  1
  Cl  Cl523  1  0.36284675  0.52133436  0.24548536  1
  Cl  Cl524  1  0.36400170  0.85614833  0.24881107  1
  Cl  Cl525  1  0.86033853  0.18944999  0.24910014  1
  Cl  Cl526  1  0.86184318  0.52163835  0.25459771  1
  Cl  Cl527  1  0.86552540  0.85579589  0.25033170  1
  Cl  Cl528  1  0.11258856  0.31267863  0.75331399  1
  Cl  Cl529  1  0.10827066  0.64352494  0.74960638  1
  Cl  Cl530  1  0.11151488  0.97923530  0.74884295  1
  Cl  Cl531  1  0.61114319  0.31189351  0.75063257  1
  Cl  Cl532  1  0.61157934  0.64504835  0.74981615  1
  Cl  Cl533  1  0.61265231  0.97826002  0.75124159  1
  Cl  Cl534  1  0.38980788  0.02225979  0.25105637  1
  Cl  Cl535  1  0.39106994  0.35636835  0.24923894  1
  Cl  Cl536  1  0.38920687  0.68903703  0.24726235  1
  Cl  Cl537  1  0.88802657  0.02320455  0.24855480  1
  Cl  Cl538  1  0.88976415  0.35544110  0.25080188  1
  Cl  Cl539  1  0.88822006  0.68788897  0.24873096  1
  Cl  Cl540  1  0.39138314  0.30900553  0.75331424  1
  Cl  Cl541  1  0.38606381  0.64453514  0.75149836  1
  Cl  Cl542  1  0.38864306  0.97866148  0.75101133  1
  Cl  Cl543  1  0.88763084  0.31046321  0.74648678  1
  Cl  Cl544  1  0.88863088  0.64309029  0.75074804  1
  Cl  Cl545  1  0.88973907  0.97690663  0.74690494  1
  Cl  Cl546  1  0.10767326  0.02202665  0.25206123  1
  Cl  Cl547  1  0.11059245  0.35406759  0.24826579  1
  Cl  Cl548  1  0.11360526  0.68730932  0.25311402  1
  Cl  Cl549  1  0.61277625  0.02079101  0.24887262  1
  Cl  Cl550  1  0.61205545  0.35446526  0.24435421  1
  Cl  Cl551  1  0.61188588  0.68724122  0.25035458  1
