# generated using pymatgen
data_H8PbC4(N3Cl2)2
_symmetry_space_group_name_H-M   'P 1'
_cell_length_a   16.62967123
_cell_length_b   22.51909144
_cell_length_c   21.59516792
_cell_angle_alpha   90.00124990
_cell_angle_beta   90.01327531
_cell_angle_gamma   89.99731738
_symmetry_Int_Tables_number   1
_chemical_formula_structural   H8PbC4(N3Cl2)2
_chemical_formula_sum   'H192 Pb24 C96 N144 Cl96'
_cell_volume   8087.06811051
_cell_formula_units_Z   24
loop_
 _symmetry_equiv_pos_site_id
 _symmetry_equiv_pos_as_xyz
  1  'x, y, z'
loop_
 _atom_site_type_symbol
 _atom_site_label
 _atom_site_symmetry_multiplicity
 _atom_site_fract_x
 _atom_site_fract_y
 _atom_site_fract_z
 _atom_site_occupancy
  H  H0  1  -0.01154698  0.02499706  0.67667523  1
  H  H1  1  0.01086629  0.36631210  0.68078166  1
  H  H2  1  0.01236259  0.69284188  0.67605868  1
  H  H3  1  0.51115108  0.03314022  0.67558521  1
  H  H4  1  0.50491431  0.36472409  0.68065269  1
  H  H5  1  0.49017524  0.70010078  0.68466702  1
  H  H6  1  -0.00956958  0.30408229  0.17493636  1
  H  H7  1  -0.00190456  0.63837533  0.17989390  1
  H  H8  1  0.00907416  0.97714866  0.17744763  1
  H  H9  1  0.51419031  0.30386529  0.17666275  1
  H  H10  1  0.50729328  0.63452470  0.17621847  1
  H  H11  1  0.47796956  0.96656575  0.15462322  1
  H  H12  1  0.00330638  0.03219476  0.82685846  1
  H  H13  1  0.01673586  0.36641301  0.81962367  1
  H  H14  1  -0.01795891  0.69711262  0.82564614  1
  H  H15  1  0.50770859  0.03103751  0.82146233  1
  H  H16  1  0.48284947  0.35707526  0.82477056  1
  H  H17  1  0.51167788  0.69505077  0.82206817  1
  H  H18  1  -0.02116618  0.30420226  0.32077842  1
  H  H19  1  0.00151807  0.63866261  0.32698238  1
  H  H20  1  -0.00851937  0.96825902  0.32203119  1
  H  H21  1  0.51728465  0.30490760  0.32191328  1
  H  H22  1  0.49781999  0.63534388  0.32042415  1
  H  H23  1  0.48979989  0.97078551  0.31647823  1
  H  H24  1  0.24962483  0.19396645  0.67648859  1
  H  H25  1  0.26098182  0.52743390  0.67729366  1
  H  H26  1  0.25714853  0.86574227  0.68256034  1
  H  H27  1  0.75330299  0.19964454  0.68095490  1
  H  H28  1  0.73920915  0.53423932  0.67797057  1
  H  H29  1  0.75733088  0.86114543  0.67773205  1
  H  H30  1  0.24444256  0.13825628  0.18128784  1
  H  H31  1  0.25499205  0.47499447  0.18103394  1
  H  H32  1  0.25463820  0.80392978  0.17217310  1
  H  H33  1  0.75178729  0.14137530  0.17308679  1
  H  H34  1  0.73900589  0.47033453  0.17681615  1
  H  H35  1  0.74237496  0.80471070  0.17810603  1
  H  H36  1  0.24554451  0.19563490  0.82505334  1
  H  H37  1  0.25434487  0.53022107  0.81886298  1
  H  H38  1  0.27382793  0.86824570  0.84139367  1
  H  H39  1  0.74904340  0.18839417  0.82581969  1
  H  H40  1  0.74204944  0.52605314  0.82282721  1
  H  H41  1  0.74783770  0.86388197  0.81971807  1
  H  H42  1  0.22838235  0.13684992  0.33127644  1
  H  H43  1  0.25387837  0.47347417  0.32279543  1
  H  H44  1  0.26161705  0.79745293  0.31387875  1
  H  H45  1  0.76507705  0.13670169  0.32382559  1
  H  H46  1  0.74819385  0.47395617  0.32323248  1
  H  H47  1  0.74102601  0.80514978  0.32055784  1
  H  H48  1  0.12686253  0.05010314  0.62176174  1
  H  H49  1  0.12258361  0.39231402  0.60122728  1
  H  H50  1  0.11680020  0.72508554  0.59269620  1
  H  H51  1  0.62179437  0.05626348  0.59577450  1
  H  H52  1  0.61853649  0.38994019  0.59947323  1
  H  H53  1  0.62109600  0.71885415  0.62182669  1
  H  H54  1  0.38051316  0.28207425  0.11738269  1
  H  H55  1  0.37389761  0.61590057  0.11771847  1
  H  H56  1  0.33847309  0.94501387  0.10337862  1
  H  H57  1  0.88929332  0.27063469  0.09093063  1
  H  H58  1  0.87323435  0.61565851  0.11098343  1
  H  H59  1  0.87080424  0.95142231  0.12494124  1
  H  H60  1  0.37702895  0.05147656  0.88318895  1
  H  H61  1  0.38150561  0.39144958  0.91076934  1
  H  H62  1  0.37042580  0.71933085  0.87266067  1
  H  H63  1  0.87451591  0.05305306  0.89011973  1
  H  H64  1  0.87258823  0.38030238  0.86647408  1
  H  H65  1  0.87732616  0.72610728  0.90988671  1
  H  H66  1  0.12087138  0.28396480  0.36913832  1
  H  H67  1  0.11800121  0.60859662  0.40090599  1
  H  H68  1  0.12479553  0.95133342  0.38057198  1
  H  H69  1  0.61873419  0.27650457  0.40842268  1
  H  H70  1  0.62248671  0.61077145  0.39161991  1
  H  H71  1  0.62890054  0.94985963  0.37332744  1
  H  H72  1  0.37622491  0.22174137  0.60840814  1
  H  H73  1  0.37599864  0.55626655  0.59999096  1
  H  H74  1  0.36086257  0.89241385  0.59859642  1
  H  H75  1  0.87222340  0.22533893  0.60705413  1
  H  H76  1  0.87992610  0.55172827  0.62654438  1
  H  H77  1  0.87018925  0.88876926  0.60076003  1
  H  H78  1  0.12568236  0.11029103  0.10586069  1
  H  H79  1  0.12569068  0.45004912  0.11719955  1
  H  H80  1  0.12804635  0.78341899  0.10342717  1
  H  H81  1  0.62902990  0.11190468  0.10227250  1
  H  H82  1  0.62943985  0.44201863  0.09382487  1
  H  H83  1  0.63189655  0.77275890  0.09852644  1
  H  H84  1  0.11345104  0.21618318  0.88725326  1
  H  H85  1  0.13037879  0.55559455  0.89044397  1
  H  H86  1  0.16268861  0.89700816  0.92011718  1
  H  H87  1  0.61559514  0.21645136  0.88522087  1
  H  H88  1  0.62899360  0.55667482  0.90026372  1
  H  H89  1  0.63739167  0.89516339  0.89936995  1
  H  H90  1  0.37314299  0.11882067  0.37692257  1
  H  H91  1  0.38084430  0.44626028  0.39073922  1
  H  H92  1  0.38048828  0.78174604  0.39041399  1
  H  H93  1  0.86388736  0.10206584  0.40985828  1
  H  H94  1  0.87600566  0.45065376  0.39063388  1
  H  H95  1  0.87850331  0.78342417  0.37949369  1
  H  H96  1  0.37489554  0.28396635  0.37232414  1
  H  H97  1  0.37383155  0.61070449  0.39386061  1
  H  H98  1  0.38217724  0.94664086  0.40012201  1
  H  H99  1  0.87719082  0.27186754  0.40650995  1
  H  H100  1  0.86981627  0.61414713  0.38908865  1
  H  H101  1  0.87825219  0.94295329  0.39934761  1
  H  H102  1  0.12287897  0.05457730  0.89905664  1
  H  H103  1  0.11529388  0.39299615  0.90694358  1
  H  H104  1  0.12198011  0.71731986  0.87902454  1
  H  H105  1  0.62549730  0.05683647  0.89561877  1
  H  H106  1  0.62467350  0.38218864  0.87332813  1
  H  H107  1  0.61471599  0.72209823  0.90797152  1
  H  H108  1  0.13341114  0.28468154  0.12466606  1
  H  H109  1  0.12282267  0.61548558  0.11143559  1
  H  H110  1  0.11370826  0.94565261  0.09375228  1
  H  H111  1  0.62741574  0.27359434  0.09765757  1
  H  H112  1  0.62158179  0.61039142  0.09815022  1
  H  H113  1  0.58405611  0.93510686  0.07242018  1
  H  H114  1  0.37458239  0.05142616  0.61830811  1
  H  H115  1  0.37127690  0.38823811  0.61846793  1
  H  H116  1  0.37250825  0.71535837  0.60714351  1
  H  H117  1  0.88162967  0.05441615  0.59217424  1
  H  H118  1  0.87579107  0.38605595  0.62006717  1
  H  H119  1  0.87231201  0.71922518  0.62690243  1
  H  H120  1  0.13242643  0.10192696  0.41820751  1
  H  H121  1  0.13269992  0.44700760  0.39522523  1
  H  H122  1  0.13129481  0.78008533  0.37881010  1
  H  H123  1  0.62149419  0.11711622  0.37016483  1
  H  H124  1  0.62804026  0.44435680  0.39446700  1
  H  H125  1  0.63152533  0.77739233  0.40143197  1
  H  H126  1  0.36226991  0.21999551  0.89940810  1
  H  H127  1  0.37943345  0.55547913  0.88748568  1
  H  H128  1  0.40947214  0.89017103  0.89636808  1
  H  H129  1  0.86292482  0.22032320  0.90382401  1
  H  H130  1  0.87662934  0.55108345  0.88260527  1
  H  H131  1  0.88352009  0.88459393  0.87625193  1
  H  H132  1  0.37405036  0.11476205  0.11265062  1
  H  H133  1  0.37480918  0.44473942  0.10763748  1
  H  H134  1  0.37583486  0.77241119  0.10240755  1
  H  H135  1  0.87790063  0.11076260  0.10826668  1
  H  H136  1  0.87528710  0.44910938  0.12012810  1
  H  H137  1  0.87863229  0.78317815  0.12121722  1
  H  H138  1  0.12846371  0.22119859  0.60431541  1
  H  H139  1  0.12832167  0.55329971  0.61483432  1
  H  H140  1  0.11510084  0.88131730  0.63080332  1
  H  H141  1  0.62462003  0.21695313  0.61347502  1
  H  H142  1  0.63621011  0.56096885  0.59088295  1
  H  H143  1  0.62359689  0.88296308  0.62106400  1
  H  H144  1  0.70268498  0.74310498  -0.00205920  1
  H  H145  1  0.56141901  0.08303382  0.48854251  1
  H  H146  1  0.78111721  0.07587881  0.50655180  1
  H  H147  1  0.05687412  0.42088871  0.49595799  1
  H  H148  1  0.30767828  0.24854557  1.00870757  1
  H  H149  1  0.45367197  0.91692752  0.50312427  1
  H  H150  1  0.28709380  0.92165742  0.49442901  1
  H  H151  1  0.51100680  0.91330875  -0.02930649  1
  H  H152  1  0.16652422  0.76050296  0.49357174  1
  H  H153  1  0.10835933  0.24957540  0.48127057  1
  H  H154  1  0.12685297  0.24946105  0.01359316  1
  H  H155  1  0.36602154  0.08429804  0.48733931  1
  H  H156  1  0.95587781  0.24931411  0.50480099  1
  H  H157  1  0.70298949  0.75103976  0.50715145  1
  H  H158  1  0.95888000  0.08030869  0.49333642  1
  H  H159  1  0.91565902  0.58524499  0.00117365  1
  H  H160  1  0.83401082  0.41333212  0.49237587  1
  H  H161  1  0.03590137  0.91919882  -0.00601149  1
  H  H162  1  0.03905910  0.75431195  0.49473297  1
  H  H163  1  0.17148544  0.74457965  0.00304340  1
  H  H164  1  0.10090567  0.91800017  0.49515788  1
  H  H165  1  0.40014763  0.58508685  0.00297549  1
  H  H166  1  0.80760057  0.27133079  0.51402968  1
  H  H167  1  0.68492826  0.43190748  0.49983487  1
  H  H168  1  0.96624024  0.24035002  -0.01032560  1
  H  H169  1  0.22464423  0.92649344  1.02655857  1
  H  H170  1  0.46597557  0.41827330  1.00680321  1
  H  H171  1  0.16540939  0.42202492  0.00443175  1
  H  H172  1  0.32957618  0.25033787  0.50349431  1
  H  H173  1  0.03501185  0.41866352  1.01008362  1
  H  H174  1  0.64895034  0.91600513  0.50734896  1
  H  H175  1  0.67565400  0.21968868  0.50513126  1
  H  H176  1  0.70502109  0.91958439  1.00188867  1
  H  H177  1  0.58718602  0.73492096  0.50500018  1
  H  H178  1  0.32595814  0.75366527  -0.00271117  1
  H  H179  1  0.31811487  0.42395882  0.00229229  1
  H  H180  1  0.90367220  0.58387362  0.49696460  1
  H  H181  1  0.33465445  0.42083105  0.49584757  1
  H  H182  1  0.40989254  0.08545706  0.99556745  1
  H  H183  1  0.53918447  0.25035999  0.50974428  1
  H  H184  1  0.16687100  0.57930955  0.50812381  1
  H  H185  1  0.79332687  0.24891370  1.00486091  1
  H  H186  1  0.07944734  0.58487233  0.00100526  1
  H  H187  1  0.32598332  0.77021094  0.50313348  1
  H  H188  1  0.42900784  0.72251681  0.49440034  1
  H  H189  1  0.85079995  0.41746706  0.00677944  1
  H  H190  1  0.53774633  0.75057692  1.00904477  1
  H  H191  1  0.85820905  0.91845866  0.98858869  1
  Pb  Pb192  1  0.24621808  0.04824875  0.75175156  1
  Pb  Pb193  1  0.24914471  0.38124648  0.75834973  1
  Pb  Pb194  1  0.24399637  0.71831894  0.74441555  1
  Pb  Pb195  1  0.75006464  0.04655594  0.74100299  1
  Pb  Pb196  1  0.74232627  0.38406258  0.73635402  1
  Pb  Pb197  1  0.74759757  0.71484283  0.76263133  1
  Pb  Pb198  1  0.25223031  0.28615963  0.25320371  1
  Pb  Pb199  1  0.24885303  0.61974533  0.25603146  1
  Pb  Pb200  1  0.25199518  0.95206683  0.25797337  1
  Pb  Pb201  1  0.74677187  0.28169059  0.24955488  1
  Pb  Pb202  1  0.75026486  0.61946519  0.24691426  1
  Pb  Pb203  1  0.74536815  0.95347130  0.23733975  1
  Pb  Pb204  1  -0.00648247  0.21691032  0.74708790  1
  Pb  Pb205  1  0.00033979  0.54839661  0.75110243  1
  Pb  Pb206  1  0.00169348  0.88105022  0.76293395  1
  Pb  Pb207  1  0.49700622  0.21265721  0.74946384  1
  Pb  Pb208  1  0.49568872  0.55053155  0.74827567  1
  Pb  Pb209  1  0.49673297  0.88215661  0.74239118  1
  Pb  Pb210  1  0.00021385  0.11732645  0.25995223  1
  Pb  Pb211  1  0.00133219  0.45253254  0.25493687  1
  Pb  Pb212  1  0.00113742  0.78722939  0.25303164  1
  Pb  Pb213  1  0.49700816  0.11930796  0.24187905  1
  Pb  Pb214  1  0.50150889  0.45284111  0.24360974  1
  Pb  Pb215  1  0.50179775  0.78498660  0.25019087  1
  C  C216  1  -0.00145857  0.04203467  0.63036284  1
  C  C217  1  0.00264873  0.38097950  0.63333773  1
  C  C218  1  0.00063782  0.71085014  0.63048501  1
  C  C219  1  0.50278529  0.04696755  0.62791523  1
  C  C220  1  0.49834049  0.38049610  0.63341064  1
  C  C221  1  0.49474743  0.71151570  0.63592804  1
  C  C222  1  0.00529053  0.28677804  0.12916316  1
  C  C223  1  -0.00194294  0.62265253  0.13232232  1
  C  C224  1  -0.00215610  0.95985053  0.13138218  1
  C  C225  1  0.50767850  0.28702763  0.13010647  1
  C  C226  1  0.50011158  0.61977491  0.12880238  1
  C  C227  1  0.46695274  0.95012217  0.10804565  1
  C  C228  1  0.00001037  0.04645530  0.87491348  1
  C  C229  1  0.00164287  0.37974901  0.86652106  1
  C  C230  1  -0.00587912  0.71309896  0.87190533  1
  C  C231  1  0.50267647  0.04638819  0.86884013  1
  C  C232  1  0.49586574  0.37554316  0.87005241  1
  C  C233  1  0.49850503  0.71173110  0.86813073  1
  C  C234  1  -0.00765900  0.28787878  0.36712031  1
  C  C235  1  -0.00407393  0.62144436  0.37359874  1
  C  C236  1  -0.00100376  0.95358819  0.36946081  1
  C  C237  1  0.50331545  0.28893566  0.36812679  1
  C  C238  1  0.49775254  0.61983613  0.36799071  1
  C  C239  1  0.50068272  0.95541500  0.36346511  1
  C  C240  1  0.25190872  0.21165094  0.62978082  1
  C  C241  1  0.25461750  0.54442536  0.63066066  1
  C  C242  1  0.24450217  0.87949280  0.63540361  1
  C  C243  1  0.74986063  0.21420099  0.63305134  1
  C  C244  1  0.75171163  0.54826408  0.63107512  1
  C  C245  1  0.74946724  0.87771269  0.63101906  1
  C  C246  1  0.24819614  0.12197773  0.13402625  1
  C  C247  1  0.25239464  0.45820043  0.13385616  1
  C  C248  1  0.25288057  0.78697245  0.12499632  1
  C  C249  1  0.75266272  0.12179242  0.12741000  1
  C  C250  1  0.74781078  0.45453899  0.12994080  1
  C  C251  1  0.75065817  0.78824297  0.13151594  1
  C  C252  1  0.24075325  0.21068037  0.87264910  1
  C  C253  1  0.25431044  0.54668055  0.86583263  1
  C  C254  1  0.28233420  0.88421517  0.88848977  1
  C  C255  1  0.74302286  0.20711325  0.87182363  1
  C  C256  1  0.74954900  0.54398045  0.86892162  1
  C  C257  1  0.75631284  0.87946784  0.86688204  1
  C  C258  1  0.24521800  0.12009330  0.37648535  1
  C  C259  1  0.25616550  0.45639220  0.36968842  1
  C  C260  1  0.25757366  0.78635682  0.36277574  1
  C  C261  1  0.75020778  0.12028583  0.36955372  1
  C  C262  1  0.75084302  0.45640496  0.37006909  1
  C  C263  1  0.75063824  0.78961685  0.36754587  1
  C  C264  1  0.52560166  0.07301410  0.53013350  1
  C  C265  1  0.02798615  0.58864235  0.46776288  1
  C  C266  1  0.79277594  0.08511969  0.03913887  1
  C  C267  1  0.95673281  0.59558903  0.03897085  1
  C  C268  1  0.48316994  0.92796189  0.45945796  1
  C  C269  1  0.20919560  0.76878482  0.45639075  1
  C  C270  1  0.05884199  0.25831390  0.44955989  1
  C  C271  1  0.02463469  0.40831940  0.53793488  1
  C  C272  1  0.44687142  0.59360712  0.03833833  1
  C  C273  1  0.99274421  0.25408758  0.03365280  1
  C  C274  1  0.03892702  0.59553590  0.03891104  1
  C  C275  1  0.34010099  0.91057510  0.97777073  1
  C  C276  1  0.52829963  0.59154883  0.03334036  1
  C  C277  1  0.81340733  0.90930950  0.95322133  1
  C  C278  1  0.53539275  0.07575114  0.96299848  1
  C  C279  1  0.72530664  0.57861730  0.96174404  1
  C  C280  1  0.68012401  0.08977791  0.45109098  1
  C  C281  1  0.20510684  0.42991985  0.04351829  1
  C  C282  1  0.03401595  0.07333916  0.96807811  1
  C  C283  1  0.45667925  0.25592026  0.04281082  1
  C  C284  1  0.93604566  0.74570456  0.54812528  1
  C  C285  1  0.80211324  0.42742289  0.04221911  1
  C  C286  1  0.25760884  0.91386665  0.98502184  1
  C  C287  1  0.51067516  0.74062325  0.96417333  1
  C  C288  1  0.29078905  0.77137541  0.46082983  1
  C  C289  1  0.44473172  0.07086618  0.53925460  1
  C  C290  1  0.18818416  0.23610504  0.96347266  1
  C  C291  1  0.69537276  0.90634985  0.54168111  1
  C  C292  1  0.51340095  0.26073017  0.46459646  1
  C  C293  1  0.17891513  0.90375378  0.55028933  1
  C  C294  1  0.40389629  0.92236440  0.02233922  1
  C  C295  1  0.97901256  0.74417489  0.96751815  1
  C  C296  1  0.25851923  0.90820322  0.53754598  1
  C  C297  1  0.81304740  0.57304584  0.54539062  1
  C  C298  1  0.93097018  0.40164600  0.95000439  1
  C  C299  1  0.97180471  0.92466448  0.46453972  1
  C  C300  1  0.05294092  0.92734946  0.45966686  1
  C  C301  1  0.95369355  0.07262941  0.96514418  1
  C  C302  1  0.54466608  0.72786993  0.54253950  1
  C  C303  1  0.80945407  0.75637156  0.04531562  1
  C  C304  1  0.46302605  0.72442261  0.53729933  1
  C  C305  1  0.73162061  0.76149463  0.46322357  1
  C  C306  1  0.27008893  0.23795269  0.96853680  1
  C  C307  1  0.00970047  0.40628741  0.96544602  1
  C  C308  1  0.29371992  0.57656512  0.95762152  1
  C  C309  1  0.77648589  0.90818839  0.53628242  1
  C  C310  1  0.45388495  0.07439061  0.96005400  1
  C  C311  1  0.23645216  0.08511429  0.47271159  1
  N  N312  1  0.79479474  0.43237895  0.46109640  1
  N  N313  1  0.94565745  0.40542369  0.54362945  1
  N  N314  1  0.73114551  0.75423615  0.03864530  1
  N  N315  1  0.20795650  0.57368232  0.54312922  1
  N  N316  1  0.73465343  0.91297029  0.95985444  1
  N  N317  1  0.80999607  0.76307792  0.45551390  1
  N  N318  1  0.71546405  0.08532397  0.03598012  1
  N  N319  1  0.01354793  0.74618837  0.53734023  1
  N  N320  1  0.98315982  0.07370456  0.53716931  1
  N  N321  1  0.21131790  0.76620285  0.03214994  1
  N  N322  1  0.06021398  0.07241334  0.54588722  1
  N  N323  1  0.75745904  0.08513498  0.46303495  1
  N  N324  1  0.29543771  0.42713022  0.45955410  1
  N  N325  1  0.44740321  0.40843193  0.54383097  1
  N  N326  1  0.01230978  0.92649589  0.03853527  1
  N  N327  1  0.48376062  0.91642465  0.01409503  1
  N  N328  1  0.21699213  0.42745285  0.46272463  1
  N  N329  1  0.56294990  0.40929885  0.95053281  1
  N  N330  1  0.56140312  0.92903698  0.45050175  1
  N  N331  1  0.70297688  0.23924969  0.54255988  1
  N  N332  1  0.73716324  0.57688009  0.53274220  1
  N  N333  1  0.53344500  0.25347814  0.03517449  1
  N  N334  1  0.05558592  0.74034976  0.95928833  1
  N  N335  1  0.07062724  0.25840239  0.04594853  1
  N  N336  1  0.21636029  0.09130331  0.04020445  1
  N  N337  1  0.21590657  0.57657808  0.95987463  1
  N  N338  1  0.43578342  0.26199932  0.45245215  1
  N  N339  1  0.53706027  0.59260584  0.46116962  1
  N  N340  1  0.48659574  0.41143676  0.96197142  1
  N  N341  1  0.29090830  0.24265623  0.54024516  1
  N  N342  1  0.76572895  0.24254914  0.96254672  1
  N  N343  1  0.68815566  0.24152945  0.95741546  1
  N  N344  1  0.80247426  0.57687581  0.95723934  1
  N  N345  1  0.72395547  0.42466047  0.03336730  1
  N  N346  1  0.94917494  0.59172829  0.46266989  1
  N  N347  1  0.28558379  0.57442752  0.53633076  1
  N  N348  1  0.98079130  0.25412680  0.46136747  1
  N  N349  1  0.21266802  0.24187138  0.53729755  1
  N  N350  1  0.43287980  0.74102577  0.95236154  1
  N  N351  1  0.93565332  0.92824130  0.04801746  1
  N  N352  1  0.28884377  0.75110225  0.03576872  1
  N  N353  1  0.71598393  0.42168268  0.46016420  1
  N  N354  1  0.52372839  0.40913098  0.53782463  1
  N  N355  1  0.28460810  0.42673941  0.04194978  1
  N  N356  1  0.46082754  0.59289957  0.46182139  1
  N  N357  1  0.31249473  0.09201205  0.45826763  1
  N  N358  1  0.29240778  0.09363065  0.04242151  1
  N  N359  1  0.78498223  0.23599328  0.53853228  1
  N  N360  1  0.06907100  0.05442383  0.60439577  1
  N  N361  1  0.06094045  0.39312589  0.59237062  1
  N  N362  1  0.05462475  0.72278043  0.58726274  1
  N  N363  1  0.56070264  0.05786594  0.58698712  1
  N  N364  1  0.55645403  0.39181891  0.59316795  1
  N  N365  1  0.56295447  0.72006007  0.60398950  1
  N  N366  1  0.43808515  0.27605180  0.10020105  1
  N  N367  1  0.43096254  0.61090007  0.09908175  1
  N  N368  1  0.39445864  0.94106504  0.08213863  1
  N  N369  1  0.95179619  0.27154345  0.08494249  1
  N  N370  1  0.93290142  0.61216272  0.09734293  1
  N  N371  1  0.92696078  0.94712645  0.10632995  1
  N  N372  1  0.43493491  0.05576525  0.90036872  1
  N  N373  1  0.44392616  0.38853096  0.91445567  1
  N  N374  1  0.42720305  0.72258906  0.89251804  1
  N  N375  1  0.93240164  0.05659594  0.90810347  1
  N  N376  1  0.92648457  0.38584534  0.89016839  1
  N  N377  1  0.93899522  0.72777540  0.91535776  1
  N  N378  1  0.06594192  0.27753417  0.39070062  1
  N  N379  1  0.05713348  0.60694965  0.41242449  1
  N  N380  1  0.06831427  0.94521002  0.39911681  1
  N  N381  1  0.55641028  0.27663113  0.41314599  1
  N  N382  1  0.56154202  0.60926461  0.40310578  1
  N  N383  1  0.57072171  0.94574554  0.39061991  1
  N  N384  1  0.31603319  0.22297501  0.59571452  1
  N  N385  1  0.31430579  0.55778590  0.59180579  1
  N  N386  1  0.29860307  0.89251071  0.59197707  1
  N  N387  1  0.81092909  0.23059638  0.59782569  1
  N  N388  1  0.82454615  0.55601723  0.60540402  1
  N  N389  1  0.80897664  0.89116251  0.59002708  1
  N  N390  1  0.18733538  0.10871033  0.09672082  1
  N  N391  1  0.18475703  0.44757390  0.10109318  1
  N  N392  1  0.18811368  0.77777578  0.09084079  1
  N  N393  1  0.69015725  0.10841088  0.09229518  1
  N  N394  1  0.69155353  0.44203058  0.08848186  1
  N  N395  1  0.69362199  0.77524228  0.09097994  1
  N  N396  1  0.17156261  0.21968760  0.90445280  1
  N  N397  1  0.19145472  0.55778354  0.90126965  1
  N  N398  1  0.22416747  0.89685748  0.92962137  1
  N  N399  1  0.67447093  0.22094926  0.90026513  1
  N  N400  1  0.69040421  0.55890959  0.90892186  1
  N  N401  1  0.69957542  0.89115769  0.90789217  1
  N  N402  1  0.31828278  0.11407660  0.39915155  1
  N  N403  1  0.32061072  0.44646444  0.40401202  1
  N  N404  1  0.31980456  0.78187033  0.40218666  1
  N  N405  1  0.80167015  0.10692215  0.41405169  1
  N  N406  1  0.81632321  0.44391345  0.40248096  1
  N  N407  1  0.82013634  0.78085155  0.39605088  1
  N  N408  1  0.43140523  0.27948357  0.39220068  1
  N  N409  1  0.43486491  0.60983625  0.40415641  1
  N  N410  1  0.44440896  0.94393666  0.40635673  1
  N  N411  1  0.93963292  0.27585584  0.41133901  1
  N  N412  1  0.92895168  0.61246035  0.40487240  1
  N  N413  1  0.93929418  0.94041445  0.41029130  1
  N  N414  1  0.06294670  0.05778346  0.91295942  1
  N  N415  1  0.05337747  0.39205728  0.91194878  1
  N  N416  1  0.06485188  0.72100557  0.89814596  1
  N  N417  1  0.56477754  0.05891932  0.90813497  1
  N  N418  1  0.56819581  0.38866638  0.89258867  1
  N  N419  1  0.55231752  0.72354039  0.91273695  1
  N  N420  1  0.07709396  0.27848638  0.10489484  1
  N  N421  1  0.06305041  0.61225258  0.09729133  1
  N  N422  1  0.05147530  0.94867731  0.08769448  1
  N  N423  1  0.56570281  0.27350773  0.09071861  1
  N  N424  1  0.56025226  0.60738721  0.08778873  1
  N  N425  1  0.52188686  0.93815811  0.06556508  1
  N  N426  1  0.43166847  0.05538895  0.59880345  1
  N  N427  1  0.43051466  0.39078564  0.60310512  1
  N  N428  1  0.43312104  0.71527649  0.59586095  1
  N  N429  1  0.94399755  0.05298823  0.58721090  1
  N  N430  1  0.93393235  0.38912063  0.60371153  1
  N  N431  1  0.92784199  0.72441036  0.60595689  1
  N  N432  1  0.19417205  0.10263830  0.42231058  1
  N  N433  1  0.19346209  0.44407878  0.40578377  1
  N  N434  1  0.18992785  0.77809055  0.39525863  1
  N  N435  1  0.67575609  0.11033310  0.39263943  1
  N  N436  1  0.68865147  0.44629166  0.40672382  1
  N  N437  1  0.69331129  0.77731163  0.40949316  1
  N  N438  1  0.30143847  0.22211224  0.91088369  1
  N  N439  1  0.31946732  0.55877582  0.90079118  1
  N  N440  1  0.35293754  0.89181507  0.91677245  1
  N  N441  1  0.80102708  0.21930891  0.91182535  1
  N  N442  1  0.81773352  0.55509056  0.89797986  1
  N  N443  1  0.82736256  0.88973584  0.89513830  1
  N  N444  1  0.31359541  0.11280955  0.10044939  1
  N  N445  1  0.31375394  0.44783744  0.09651200  1
  N  N446  1  0.31578466  0.77508522  0.08944076  1
  N  N447  1  0.81849012  0.10682086  0.09433857  1
  N  N448  1  0.81820945  0.44513525  0.10144933  1
  N  N449  1  0.82182245  0.77705502  0.10294722  1
  N  N450  1  0.18908082  0.22396962  0.59379114  1
  N  N451  1  0.18752849  0.55326601  0.59939940  1
  N  N452  1  0.17060979  0.88667788  0.60948662  1
  N  N453  1  0.68423415  0.21592029  0.59855816  1
  N  N454  1  0.69866133  0.56075810  0.58751321  1
  N  N455  1  0.67996412  0.88753005  0.60197537  1
  Cl  Cl456  1  0.25083797  0.05459791  0.61718313  1
  Cl  Cl457  1  0.24726773  0.38942699  0.62391651  1
  Cl  Cl458  1  0.24200381  0.72486436  0.60920361  1
  Cl  Cl459  1  0.75963694  0.05909957  0.59945039  1
  Cl  Cl460  1  0.74341659  0.38826963  0.59883194  1
  Cl  Cl461  1  0.74562432  0.72274095  0.62985933  1
  Cl  Cl462  1  0.25740355  0.28621152  0.12071785  1
  Cl  Cl463  1  0.24612770  0.61862333  0.12602322  1
  Cl  Cl464  1  0.22274378  0.94257064  0.12524761  1
  Cl  Cl465  1  0.76421578  0.26873586  0.10823787  1
  Cl  Cl466  1  0.74511129  0.61619739  0.11461133  1
  Cl  Cl467  1  0.70969351  0.93692462  0.09771822  1
  Cl  Cl468  1  0.24762907  0.05199688  0.87898892  1
  Cl  Cl469  1  0.25635051  0.39776133  0.90053919  1
  Cl  Cl470  1  0.24597819  0.72432106  0.88003532  1
  Cl  Cl471  1  0.74712396  0.05373929  0.87177961  1
  Cl  Cl472  1  0.74768965  0.37788747  0.86332616  1
  Cl  Cl473  1  0.74050377  0.72469499  0.90158606  1
  Cl  Cl474  1  0.24814002  0.28018354  0.38499706  1
  Cl  Cl475  1  0.24398495  0.60770043  0.39078251  1
  Cl  Cl476  1  0.26007676  0.95088965  0.38906490  1
  Cl  Cl477  1  0.75032389  0.27270017  0.40004098  1
  Cl  Cl478  1  0.74612916  0.61002858  0.37887055  1
  Cl  Cl479  1  0.75692289  0.95047566  0.36994174  1
  Cl  Cl480  1  -0.00425745  0.22451556  0.60347509  1
  Cl  Cl481  1  0.00727219  0.56088849  0.61605476  1
  Cl  Cl482  1  -0.01192281  0.88198613  0.63048552  1
  Cl  Cl483  1  0.50127328  0.22391765  0.61258840  1
  Cl  Cl484  1  0.50301523  0.55613792  0.61704234  1
  Cl  Cl485  1  0.48489007  0.89098443  0.61114861  1
  Cl  Cl486  1  0.00392273  0.11482895  0.12719884  1
  Cl  Cl487  1  0.00340911  0.44356484  0.12258398  1
  Cl  Cl488  1  0.00711758  0.78445451  0.12112787  1
  Cl  Cl489  1  0.50085525  0.11047944  0.10783884  1
  Cl  Cl490  1  0.49775422  0.43812961  0.10225972  1
  Cl  Cl491  1  0.50465745  0.77396337  0.11165296  1
  Cl  Cl492  1  -0.01598452  0.22173860  0.88300700  1
  Cl  Cl493  1  0.00496123  0.55428233  0.88298697  1
  Cl  Cl494  1  0.03427399  0.89564163  0.90125154  1
  Cl  Cl495  1  0.48913505  0.21758067  0.87825558  1
  Cl  Cl496  1  0.50388474  0.55502259  0.88421719  1
  Cl  Cl497  1  0.52721495  0.89543570  0.87986513  1
  Cl  Cl498  1  -0.01163612  0.10312146  0.40018092  1
  Cl  Cl499  1  0.00451971  0.44883182  0.39095186  1
  Cl  Cl500  1  0.00670981  0.77426172  0.38970277  1
  Cl  Cl501  1  0.49739583  0.11527010  0.37414517  1
  Cl  Cl502  1  0.50437352  0.44215616  0.37552732  1
  Cl  Cl503  1  0.50631110  0.77619965  0.38426605  1
  Cl  Cl504  1  0.35798010  0.14834717  0.74389747  1
  Cl  Cl505  1  0.35821780  0.48262720  0.74756912  1
  Cl  Cl506  1  0.36358955  0.81355645  0.76390746  1
  Cl  Cl507  1  0.85919864  0.14881468  0.74357419  1
  Cl  Cl508  1  0.86883665  0.47571157  0.74524994  1
  Cl  Cl509  1  0.85905360  0.81584783  0.75766949  1
  Cl  Cl510  1  0.13946590  0.18563782  0.25621220  1
  Cl  Cl511  1  0.14321394  0.51562777  0.25368633  1
  Cl  Cl512  1  0.14371239  0.84901746  0.25569821  1
  Cl  Cl513  1  0.64405760  0.18866476  0.25436924  1
  Cl  Cl514  1  0.64304149  0.51558465  0.24868476  1
  Cl  Cl515  1  0.64098907  0.84992542  0.25076747  1
  Cl  Cl516  1  0.13847764  0.14979167  0.74584106  1
  Cl  Cl517  1  0.13630581  0.48106688  0.74649710  1
  Cl  Cl518  1  0.14166006  0.81704006  0.75211832  1
  Cl  Cl519  1  0.63972903  0.14858047  0.74284292  1
  Cl  Cl520  1  0.64647681  0.48288835  0.74775905  1
  Cl  Cl521  1  0.63641467  0.81569364  0.74625617  1
  Cl  Cl522  1  0.35985619  0.18323263  0.25759257  1
  Cl  Cl523  1  0.36356168  0.52017425  0.24711177  1
  Cl  Cl524  1  0.36110219  0.85118197  0.23911688  1
  Cl  Cl525  1  0.86324458  0.18484964  0.25520301  1
  Cl  Cl526  1  0.86313135  0.51872461  0.24888704  1
  Cl  Cl527  1  0.86331799  0.85497381  0.24295464  1
  Cl  Cl528  1  0.11076805  0.31412207  0.75245669  1
  Cl  Cl529  1  0.10903992  0.65085182  0.75515703  1
  Cl  Cl530  1  0.10909661  0.98205384  0.74187533  1
  Cl  Cl531  1  0.60937649  0.31386602  0.74736420  1
  Cl  Cl532  1  0.61060201  0.64972862  0.75079465  1
  Cl  Cl533  1  0.60801702  0.98325707  0.74517197  1
  Cl  Cl534  1  0.39411314  0.01606949  0.23733186  1
  Cl  Cl535  1  0.39070817  0.35130173  0.24947812  1
  Cl  Cl536  1  0.38578437  0.68700234  0.24866908  1
  Cl  Cl537  1  0.88841470  0.01800420  0.24145226  1
  Cl  Cl538  1  0.89484700  0.35141187  0.24880444  1
  Cl  Cl539  1  0.88772963  0.68749819  0.25262410  1
  Cl  Cl540  1  0.38726369  0.31524312  0.74802044  1
  Cl  Cl541  1  0.38970275  0.64694710  0.75540758  1
  Cl  Cl542  1  0.38596601  0.98170712  0.75270778  1
  Cl  Cl543  1  0.88859403  0.31256199  0.74005046  1
  Cl  Cl544  1  0.88690014  0.64817398  0.74937960  1
  Cl  Cl545  1  0.89044610  0.98267316  0.75793397  1
  Cl  Cl546  1  0.11068161  0.01585693  0.25868978  1
  Cl  Cl547  1  0.11500070  0.35217060  0.25170252  1
  Cl  Cl548  1  0.10707240  0.68294555  0.25651919  1
  Cl  Cl549  1  0.61306209  0.02108431  0.25209674  1
  Cl  Cl550  1  0.61395990  0.35131188  0.24694784  1
  Cl  Cl551  1  0.60684701  0.68083004  0.24741472  1
