# generated using pymatgen
data_H8PbC4(N3Cl2)2
_symmetry_space_group_name_H-M   'P 1'
_cell_length_a   16.62619816
_cell_length_b   22.51444881
_cell_length_c   21.59333503
_cell_angle_alpha   89.99958129
_cell_angle_beta   90.00244126
_cell_angle_gamma   89.99217299
_symmetry_Int_Tables_number   1
_chemical_formula_structural   H8PbC4(N3Cl2)2
_chemical_formula_sum   'H192 Pb24 C96 N144 Cl96'
_cell_volume   8083.02626959
_cell_formula_units_Z   24
loop_
 _symmetry_equiv_pos_site_id
 _symmetry_equiv_pos_as_xyz
  1  'x, y, z'
loop_
 _atom_site_type_symbol
 _atom_site_label
 _atom_site_symmetry_multiplicity
 _atom_site_fract_x
 _atom_site_fract_y
 _atom_site_fract_z
 _atom_site_occupancy
  H  H0  1  0.00309906  0.03173486  0.67707518  1
  H  H1  1  0.00617908  0.36229445  0.67776674  1
  H  H2  1  -0.00111577  0.69745123  0.68162069  1
  H  H3  1  0.50845746  0.02890853  0.67744739  1
  H  H4  1  0.49930244  0.35932678  0.67584746  1
  H  H5  1  0.50273518  0.69346327  0.67418662  1
  H  H6  1  0.00849088  0.30379196  0.17728523  1
  H  H7  1  -0.01191237  0.63231651  0.18029494  1
  H  H8  1  -0.00962440  0.96960334  0.17769893  1
  H  H9  1  0.49331999  0.30419158  0.17926027  1
  H  H10  1  0.51455542  0.63535779  0.18098185  1
  H  H11  1  0.49739607  0.97143513  0.17420119  1
  H  H12  1  -0.00605267  0.03187824  0.82124112  1
  H  H13  1  0.00911631  0.36412235  0.81922086  1
  H  H14  1  0.00331742  0.69341192  0.81801415  1
  H  H15  1  0.49788090  0.03025134  0.81862984  1
  H  H16  1  0.49487596  0.36471641  0.81789131  1
  H  H17  1  0.49652873  0.69418764  0.82608412  1
  H  H18  1  0.01948643  0.29923110  0.32677497  1
  H  H19  1  -0.00246085  0.63151392  0.32194572  1
  H  H20  1  0.00693187  0.97261209  0.32320927  1
  H  H21  1  0.49238241  0.30439256  0.32328436  1
  H  H22  1  0.49577186  0.63666821  0.32995008  1
  H  H23  1  0.50041107  0.96794198  0.32027021  1
  H  H24  1  0.25015073  0.19446374  0.67456104  1
  H  H25  1  0.25311040  0.52606442  0.67521725  1
  H  H26  1  0.23822612  0.86316785  0.67690336  1
  H  H27  1  0.74851028  0.19736771  0.67807305  1
  H  H28  1  0.74998091  0.53038127  0.67760648  1
  H  H29  1  0.76656030  0.86302125  0.67776270  1
  H  H30  1  0.25192807  0.13959471  0.17765296  1
  H  H31  1  0.24144394  0.46981729  0.18297045  1
  H  H32  1  0.23013715  0.80603667  0.17731571  1
  H  H33  1  0.75990252  0.13917405  0.17821816  1
  H  H34  1  0.75089794  0.47143569  0.17592454  1
  H  H35  1  0.76714293  0.80211831  0.17512634  1
  H  H36  1  0.24962329  0.19676285  0.82163133  1
  H  H37  1  0.25046702  0.53138017  0.81834350  1
  H  H38  1  0.25119896  0.86504143  0.82160602  1
  H  H39  1  0.75418583  0.19738853  0.82144189  1
  H  H40  1  0.75232671  0.52581022  0.82401179  1
  H  H41  1  0.76012640  0.86545797  0.82258738  1
  H  H42  1  0.25467434  0.14279844  0.32570991  1
  H  H43  1  0.25090470  0.47117883  0.32300686  1
  H  H44  1  0.22971454  0.80235680  0.32443325  1
  H  H45  1  0.74635893  0.13756255  0.32252691  1
  H  H46  1  0.75017480  0.47101935  0.31767447  1
  H  H47  1  0.76728280  0.80569577  0.32402324  1
  H  H48  1  0.11390012  0.05812671  0.59557961  1
  H  H49  1  0.12625805  0.38408907  0.60359676  1
  H  H50  1  0.12353464  0.71864747  0.61139786  1
  H  H51  1  0.61107408  0.05960966  0.59197903  1
  H  H52  1  0.62397341  0.38902330  0.60640187  1
  H  H53  1  0.62051669  0.72249552  0.59895081  1
  H  H54  1  0.38420281  0.27640522  0.09883932  1
  H  H55  1  0.38217801  0.61561397  0.11570461  1
  H  H56  1  0.38272899  0.94350202  0.09795410  1
  H  H57  1  0.88143230  0.28081462  0.10803588  1
  H  H58  1  0.88635350  0.60632413  0.09492458  1
  H  H59  1  0.88753620  0.93973972  0.09193375  1
  H  H60  1  0.38471848  0.05389172  0.89624396  1
  H  H61  1  0.37160849  0.38710076  0.89189760  1
  H  H62  1  0.37863431  0.72472882  0.89863722  1
  H  H63  1  0.88968413  0.05978634  0.90478164  1
  H  H64  1  0.87225042  0.38283600  0.87436635  1
  H  H65  1  0.87779745  0.72159814  0.88695756  1
  H  H66  1  0.11950846  0.27485295  0.41293508  1
  H  H67  1  0.13659220  0.61272329  0.37823007  1
  H  H68  1  0.11527154  0.94432860  0.40673786  1
  H  H69  1  0.62604283  0.28174739  0.38293872  1
  H  H70  1  0.63436637  0.61791214  0.38110667  1
  H  H71  1  0.62334513  0.94567731  0.39032194  1
  H  H72  1  0.37358529  0.22261557  0.60568558  1
  H  H73  1  0.36275165  0.55829216  0.59551547  1
  H  H74  1  0.37911974  0.88351271  0.62707695  1
  H  H75  1  0.87496374  0.22088206  0.61134399  1
  H  H76  1  0.85883187  0.55456531  0.59615847  1
  H  H77  1  0.87758270  0.89493347  0.59893564  1
  H  H78  1  0.12041493  0.11563617  0.11341625  1
  H  H79  1  0.13001053  0.44389853  0.10396231  1
  H  H80  1  0.12810760  0.77369301  0.09191297  1
  H  H81  1  0.62000822  0.11611755  0.12842053  1
  H  H82  1  0.62935574  0.44449285  0.10404219  1
  H  H83  1  0.62203929  0.78588435  0.12996582  1
  H  H84  1  0.11578369  0.21780450  0.88220968  1
  H  H85  1  0.12019401  0.55263750  0.88131498  1
  H  H86  1  0.12148235  0.88812524  0.88322966  1
  H  H87  1  0.61973309  0.21880383  0.88403703  1
  H  H88  1  0.61967233  0.55462851  0.88185223  1
  H  H89  1  0.61721362  0.88243594  0.87146857  1
  H  H90  1  0.38120861  0.11442100  0.39373352  1
  H  H91  1  0.37398907  0.44644644  0.39686097  1
  H  H92  1  0.37344943  0.78230494  0.37155865  1
  H  H93  1  0.88563049  0.11839959  0.37815400  1
  H  H94  1  0.87454352  0.44564929  0.38964326  1
  H  H95  1  0.87246948  0.77397185  0.40892936  1
  H  H96  1  0.37842662  0.27546730  0.40197862  1
  H  H97  1  0.38965467  0.60692182  0.41121935  1
  H  H98  1  0.37442163  0.94659358  0.38811386  1
  H  H99  1  0.87693962  0.28526792  0.37449318  1
  H  H100  1  0.89069089  0.60923282  0.40624808  1
  H  H101  1  0.86973069  0.94661382  0.37847144  1
  H  H102  1  0.13509030  0.04819763  0.87204503  1
  H  H103  1  0.11869529  0.38651048  0.90090784  1
  H  H104  1  0.12732253  0.72077188  0.88670688  1
  H  H105  1  0.63301910  0.05232780  0.87775703  1
  H  H106  1  0.62001405  0.39096758  0.88887606  1
  H  H107  1  0.62652991  0.72042377  0.88994311  1
  H  H108  1  0.13040220  0.27567253  0.10635365  1
  H  H109  1  0.13109791  0.61859932  0.12989785  1
  H  H110  1  0.13218386  0.95168192  0.12597235  1
  H  H111  1  0.63148595  0.28439839  0.12220182  1
  H  H112  1  0.62989294  0.60823528  0.10167081  1
  H  H113  1  0.62990626  0.94605845  0.11335313  1
  H  H114  1  0.36782623  0.05080828  0.62511295  1
  H  H115  1  0.37504829  0.38623908  0.60625377  1
  H  H116  1  0.37307927  0.71954228  0.60846840  1
  H  H117  1  0.86698366  0.05230858  0.61899122  1
  H  H118  1  0.87749640  0.38419805  0.61418346  1
  H  H119  1  0.87588110  0.72497890  0.61182703  1
  H  H120  1  0.13290120  0.11463818  0.39708517  1
  H  H121  1  0.12541806  0.44401723  0.39312151  1
  H  H122  1  0.13257131  0.77283237  0.41441959  1
  H  H123  1  0.63876328  0.10871570  0.40471151  1
  H  H124  1  0.62596698  0.44703013  0.39074246  1
  H  H125  1  0.62806342  0.78111327  0.37683910  1
  H  H126  1  0.36417124  0.22000486  0.89840880  1
  H  H127  1  0.36882024  0.55525764  0.89248000  1
  H  H128  1  0.36964793  0.88902593  0.89645607  1
  H  H129  1  0.86699920  0.22460899  0.90203176  1
  H  H130  1  0.86749658  0.55672619  0.90000752  1
  H  H131  1  0.86039436  0.89616598  0.90925267  1
  H  H132  1  0.36869672  0.10939920  0.10367936  1
  H  H133  1  0.37741430  0.45065558  0.12610614  1
  H  H134  1  0.37168539  0.78761585  0.12705569  1
  H  H135  1  0.86445157  0.11076424  0.09307751  1
  H  H136  1  0.87834495  0.44400794  0.11097505  1
  H  H137  1  0.86305639  0.77025241  0.08628715  1
  H  H138  1  0.12432991  0.22080215  0.60568734  1
  H  H139  1  0.11608131  0.54700001  0.61801195  1
  H  H140  1  0.13510842  0.89512820  0.59215693  1
  H  H141  1  0.62558446  0.22112735  0.60821881  1
  H  H142  1  0.61170455  0.54989658  0.62295150  1
  H  H143  1  0.63043935  0.88338691  0.61875187  1
  H  H144  1  0.53118395  0.08580392  0.49374314  1
  H  H145  1  0.58921252  0.74919418  0.99783412  1
  H  H146  1  0.91420114  0.41247665  0.50046125  1
  H  H147  1  0.79068895  0.58179624  0.48952062  1
  H  H148  1  0.60620762  0.25325843  0.01477565  1
  H  H149  1  0.19340461  0.41676621  -0.00351307  1
  H  H150  1  0.41284494  0.91831709  0.49938721  1
  H  H151  1  0.45228608  0.24827210  -0.00718302  1
  H  H152  1  0.15438350  0.91904912  0.99709433  1
  H  H153  1  0.96290646  0.08809198  1.00877371  1
  H  H154  1  0.35395883  0.42207615  0.01248811  1
  H  H155  1  0.86531373  0.08699709  0.48739187  1
  H  H156  1  0.15057737  0.58106763  0.99441805  1
  H  H157  1  0.80154894  0.58531444  1.00302784  1
  H  H158  1  0.12210528  0.07856691  -0.01487590  1
  H  H159  1  0.93512094  0.77396054  0.51888343  1
  H  H160  1  0.70900451  0.07955385  0.50872654  1
  H  H161  1  0.05207489  0.41210660  1.00797001  1
  H  H162  1  0.77675708  0.74775721  -0.01061001  1
  H  H163  1  0.21945103  0.75097151  0.51045729  1
  H  H164  1  0.78897183  0.08876161  -0.00626456  1
  H  H165  1  0.21377462  0.92014889  0.49332339  1
  H  H166  1  0.06729809  0.72411247  0.50419490  1
  H  H167  1  0.57887952  0.91556777  0.50028426  1
  H  H168  1  0.68397343  0.41573496  -0.00069618  1
  H  H169  1  0.41474404  0.74695914  0.50260550  1
  H  H170  1  0.89065403  0.40816437  0.98889091  1
  H  H171  1  0.83927979  0.25308593  0.50140225  1
  H  H172  1  0.35957522  0.75494441  0.01464786  1
  H  H173  1  0.92718397  0.74021737  0.99490242  1
  H  H174  1  0.30388592  0.25025900  1.00737726  1
  H  H175  1  0.57045039  0.41943712  0.50274880  1
  H  H176  1  0.66876148  0.25165736  0.49860078  1
  H  H177  1  0.96271296  0.57846393  -0.00916929  1
  H  H178  1  0.77974655  0.91886224  1.00815515  1
  H  H179  1  0.63373543  0.08486750  0.01370023  1
  H  H180  1  0.20632377  0.75518507  -0.00777486  1
  H  H181  1  0.31661193  0.58283052  1.00146056  1
  H  H182  1  0.33492924  0.08496609  0.49767410  1
  H  H183  1  0.79243467  0.74793014  0.50675920  1
  H  H184  1  0.59830369  0.91709252  0.00402225  1
  H  H185  1  0.96639322  0.91730879  -0.00787570  1
  H  H186  1  0.03948526  0.91851813  0.50624839  1
  H  H187  1  0.07963577  0.74437627  0.99876540  1
  H  H188  1  0.44620763  0.08372508  1.00459495  1
  H  H189  1  0.11489866  0.58824114  0.48902331  1
  H  H190  1  0.96617074  0.57209601  0.50169884  1
  H  H191  1  0.62190826  0.58161713  0.49924322  1
  Pb  Pb192  1  0.24768390  0.04707711  0.74623425  1
  Pb  Pb193  1  0.24584001  0.38016256  0.75380192  1
  Pb  Pb194  1  0.24961745  0.71553864  0.75196337  1
  Pb  Pb195  1  0.74679176  0.05127002  0.75224445  1
  Pb  Pb196  1  0.74545377  0.38132773  0.75284134  1
  Pb  Pb197  1  0.74637779  0.71330804  0.74782811  1
  Pb  Pb198  1  0.25203372  0.28529544  0.25221926  1
  Pb  Pb199  1  0.26012159  0.61817997  0.25338493  1
  Pb  Pb200  1  0.25095114  0.95355730  0.25596910  1
  Pb  Pb201  1  0.75179819  0.28607497  0.24900563  1
  Pb  Pb202  1  0.75013858  0.61837923  0.24481118  1
  Pb  Pb203  1  0.75373733  0.95337910  0.24110527  1
  Pb  Pb204  1  -0.00264894  0.21355608  0.74961574  1
  Pb  Pb205  1  -0.00539143  0.54726796  0.74414317  1
  Pb  Pb206  1  -0.00490950  0.88409295  0.74998901  1
  Pb  Pb207  1  0.49308605  0.21480109  0.75259704  1
  Pb  Pb208  1  0.49364933  0.54759768  0.74744000  1
  Pb  Pb209  1  0.49826366  0.88014832  0.75264974  1
  Pb  Pb210  1  0.00208088  0.12067687  0.24625893  1
  Pb  Pb211  1  0.00213223  0.45194278  0.25001271  1
  Pb  Pb212  1  0.00221684  0.78048116  0.24284423  1
  Pb  Pb213  1  0.50076807  0.11899162  0.25568900  1
  Pb  Pb214  1  0.50117078  0.45211995  0.25523911  1
  Pb  Pb215  1  0.50187143  0.78849969  0.24863053  1
  C  C216  1  -0.00534528  0.04691540  0.63003797  1
  C  C217  1  0.00267767  0.37681775  0.63004817  1
  C  C218  1  -0.00055492  0.71335586  0.63410293  1
  C  C219  1  0.49586354  0.04536532  0.63121207  1
  C  C220  1  0.49990224  0.37732458  0.62934424  1
  C  C221  1  0.49835792  0.71046229  0.62732370  1
  C  C222  1  0.00654453  0.28704685  0.13035947  1
  C  C223  1  0.00179000  0.61910933  0.13311071  1
  C  C224  1  0.00305023  0.95477136  0.13084942  1
  C  C225  1  0.50368333  0.28815508  0.13240734  1
  C  C226  1  0.50899529  0.62029873  0.13340114  1
  C  C227  1  0.50406778  0.95459662  0.12753851  1
  C  C228  1  0.00685699  0.04608118  0.86828175  1
  C  C229  1  -0.00051181  0.37793361  0.86687100  1
  C  C230  1  0.00213634  0.71061612  0.86506106  1
  C  C231  1  0.50497976  0.04511541  0.86607464  1
  C  C232  1  0.49554121  0.38002462  0.86556492  1
  C  C233  1  0.50118338  0.71198287  0.87260071  1
  C  C234  1  0.00473202  0.28627212  0.37383603  1
  C  C235  1  0.00873536  0.61786679  0.36957355  1
  C  C236  1  -0.00229890  0.95542319  0.36959135  1
  C  C237  1  0.49885172  0.28795707  0.37001921  1
  C  C238  1  0.50729570  0.62034583  0.37633826  1
  C  C239  1  0.49917055  0.95319019  0.36820590  1
  C  C240  1  0.24922800  0.21224063  0.62811466  1
  C  C241  1  0.24381626  0.54368497  0.62922905  1
  C  C242  1  0.25068311  0.87939502  0.63060447  1
  C  C243  1  0.74971190  0.21351063  0.63062772  1
  C  C244  1  0.74022264  0.54492026  0.63032774  1
  C  C245  1  0.75793483  0.87987633  0.63139297  1
  C  C246  1  0.24664038  0.12224654  0.13127992  1
  C  C247  1  0.25008917  0.45480411  0.13560830  1
  C  C248  1  0.24294548  0.79031042  0.13065181  1
  C  C249  1  0.74792802  0.12352920  0.13144696  1
  C  C250  1  0.75249509  0.45437751  0.12896459  1
  C  C251  1  0.75086682  0.78694948  0.12899903  1
  C  C252  1  0.24334994  0.21147157  0.86913176  1
  C  C253  1  0.24624863  0.54647230  0.86604546  1
  C  C254  1  0.24670998  0.88065368  0.86893238  1
  C  C255  1  0.74688754  0.21295074  0.86874699  1
  C  C256  1  0.74679970  0.54431971  0.87004168  1
  C  C257  1  0.74597279  0.88015947  0.86919732  1
  C  C258  1  0.25681236  0.12427099  0.37198846  1
  C  C259  1  0.25015740  0.45455783  0.37007541  1
  C  C260  1  0.24512155  0.78680588  0.37058502  1
  C  C261  1  0.75758773  0.12121764  0.36918182  1
  C  C262  1  0.75012724  0.45507450  0.36513013  1
  C  C263  1  0.75651830  0.78853587  0.37018568  1
  C  C264  1  0.27889753  0.57238601  0.96169545  1
  C  C265  1  0.73787528  0.09140566  0.46509619  1
  C  C266  1  0.56075115  0.07088156  0.95491701  1
  C  C267  1  0.28543848  0.24715918  0.53815346  1
  C  C268  1  0.68402037  0.09426897  0.04750299  1
  C  C269  1  0.46663203  0.74399889  0.96653106  1
  C  C270  1  0.19022502  0.57455400  0.54265472  1
  C  C271  1  0.79346077  0.24162229  0.53805342  1
  C  C272  1  0.04276262  0.73792983  0.95771082  1
  C  C273  1  0.53820609  0.92651177  0.46235339  1
  C  C274  1  0.56917348  0.59229329  0.46246018  1
  C  C275  1  0.04119500  0.25549188  0.03845443  1
  C  C276  1  0.95665579  0.40313210  0.53743198  1
  C  C277  1  0.30908186  0.76326900  0.04690140  1
  C  C278  1  0.67777658  0.90544190  0.95310750  1
  C  C279  1  0.67822608  0.76049030  0.04756432  1
  C  C280  1  0.02119016  0.40215909  0.96481762  1
  C  C281  1  0.22567205  0.42829550  0.03865568  1
  C  C282  1  0.18927007  0.23788438  0.95841787  1
  C  C283  1  0.48148544  0.25912099  0.03648686  1
  C  C284  1  0.79905270  0.42242200  0.03852016  1
  C  C285  1  0.99148115  0.07479841  0.96547196  1
  C  C286  1  0.76011763  0.57125419  0.53277342  1
  C  C287  1  0.06888805  0.92857668  0.04601989  1
  C  C288  1  0.30706357  0.43081161  0.04646440  1
  C  C289  1  0.69286582  0.57993297  0.95650044  1
  C  C290  1  0.03818051  0.40280411  0.53536083  1
  C  C291  1  0.27037856  0.23894558  0.96569268  1
  C  C292  1  0.27599687  0.08837813  0.03890094  1
  C  C293  1  0.06949496  0.59649138  0.04850702  1
  C  C294  1  0.71114796  0.24150694  0.53659923  1
  C  C295  1  0.93988161  0.40045513  0.95560131  1
  C  C296  1  0.54964317  0.25809439  0.45820820  1
  C  C297  1  0.93728054  0.26430044  0.45809468  1
  C  C298  1  0.47985367  0.07224533  0.96308692  1
  C  C299  1  0.48843230  0.58832477  0.47160634  1
  C  C300  1  0.07184737  0.07052214  0.95374901  1
  C  C301  1  0.47445790  0.92240370  0.03280068  1
  C  C302  1  0.77965305  0.91368202  0.53790058  1
  C  C303  1  0.28015645  0.90947531  0.96306571  1
  C  C304  1  0.01595178  0.26078855  0.47076509  1
  C  C305  1  0.19702490  0.57116554  0.95796381  1
  C  C306  1  0.45592340  0.92751670  0.46173799  1
  C  C307  1  0.31718638  0.90789085  0.54666769  1
  C  C308  1  0.19879436  0.90892658  0.96048218  1
  C  C309  1  0.67936585  0.56942699  0.54304005  1
  C  C310  1  0.94176188  0.07315498  0.54160492  1
  C  C311  1  0.99009870  0.59148688  0.03465995  1
  N  N312  1  0.04174722  0.74198664  0.54333046  1
  N  N313  1  0.70240288  0.90988118  0.54266182  1
  N  N314  1  0.76251245  0.09219796  0.03686275  1
  N  N315  1  0.75514389  0.90997363  0.96474792  1
  N  N316  1  0.77151423  0.24229324  0.96414144  1
  N  N317  1  0.31587515  0.76037019  0.45243695  1
  N  N318  1  0.01466738  0.92322293  0.46249641  1
  N  N319  1  0.77151131  0.57906455  0.96190240  1
  N  N320  1  0.53514235  0.41071891  0.54043464  1
  N  N321  1  0.28649594  0.42479413  0.46324656  1
  N  N322  1  0.29600077  0.09209939  0.46083018  1
  N  N323  1  0.20807450  0.24648671  0.53690003  1
  N  N324  1  0.21046068  0.42351653  0.46189417  1
  N  N325  1  0.93749826  0.92273527  0.45397045  1
  N  N326  1  0.47249568  0.25553487  0.46550663  1
  N  N327  1  0.69540755  0.24016203  0.95819408  1
  N  N328  1  0.50774484  0.07789179  0.53771270  1
  N  N329  1  0.01865351  0.07555656  0.53298285  1
  N  N330  1  0.53645603  0.59145951  0.03821770  1
  N  N331  1  0.53323075  0.74023084  0.53369748  1
  N  N332  1  0.55283163  0.92488533  0.03887915  1
  N  N333  1  0.71217236  0.42749691  0.45874995  1
  N  N334  1  0.99032763  0.59788517  0.46669244  1
  N  N335  1  0.23961504  0.75672853  0.46527833  1
  N  N336  1  0.45844393  0.40666211  0.95945461  1
  N  N337  1  0.06745422  0.59059859  0.45417767  1
  N  N338  1  0.96403043  0.25694340  0.03770705  1
  N  N339  1  0.26711552  0.57925626  0.53461166  1
  N  N340  1  0.53493160  0.40792126  0.95853299  1
  N  N341  1  0.76959787  0.75548491  0.46305511  1
  N  N342  1  0.56003121  0.26012573  0.04635925  1
  N  N343  1  0.96314784  0.73964872  0.95642194  1
  N  N344  1  0.23949669  0.91124724  0.53591550  1
  N  N345  1  0.95963939  0.73821680  0.54156279  1
  N  N346  1  0.23088743  0.75842721  0.03574874  1
  N  N347  1  0.19885296  0.09051500  0.04168863  1
  N  N348  1  0.99140890  0.92478097  0.03543837  1
  N  N349  1  0.69271742  0.75783083  0.45366173  1
  N  N350  1  0.21783472  0.09207294  0.46366412  1
  N  N351  1  0.54565450  0.74182461  0.96240610  1
  N  N352  1  0.45521548  0.73895745  0.53817728  1
  N  N353  1  0.45721624  0.40943071  0.53862487  1
  N  N354  1  0.78886024  0.42722828  0.45840610  1
  N  N355  1  0.46031865  0.59394667  0.04255568  1
  N  N356  1  0.43081647  0.07403114  0.54745466  1
  N  N357  1  0.71991901  0.42339829  0.03693778  1
  N  N358  1  0.75499151  0.75574152  0.03362353  1
  N  N359  1  0.81627405  0.09420580  0.45487426  1
  N  N360  1  0.05145203  0.05887118  0.58928180  1
  N  N361  1  0.06576257  0.38716518  0.59123001  1
  N  N362  1  0.06337417  0.71673577  0.59783675  1
  N  N363  1  0.54866169  0.05749767  0.58718529  1
  N  N364  1  0.56313357  0.38953395  0.59449215  1
  N  N365  1  0.55949988  0.72316730  0.58962026  1
  N  N366  1  0.44605644  0.27576070  0.09010923  1
  N  N367  1  0.44196978  0.61182473  0.10150751  1
  N  N368  1  0.44383070  0.94098307  0.08748973  1
  N  N369  1  0.94205770  0.27675901  0.09634420  1
  N  N370  1  0.94860645  0.60607604  0.08895676  1
  N  N371  1  0.94983463  0.94344469  0.08703414  1
  N  N372  1  0.44621523  0.05573402  0.90638796  1
  N  N373  1  0.43268171  0.38933495  0.90204035  1
  N  N374  1  0.43899105  0.72604058  0.91073070  1
  N  N375  1  0.95201522  0.05916366  0.91181400  1
  N  N376  1  0.92833382  0.38581002  0.89449905  1
  N  N377  1  0.93820224  0.71957276  0.90018371  1
  N  N378  1  0.05765807  0.27413583  0.41965182  1
  N  N379  1  0.07931590  0.61179098  0.39709148  1
  N  N380  1  0.05287960  0.94523973  0.41239887  1
  N  N381  1  0.56815899  0.27718102  0.40025636  1
  N  N382  1  0.57938975  0.61193351  0.40233780  1
  N  N383  1  0.56340660  0.94253638  0.40398690  1
  N  N384  1  0.31369793  0.22640914  0.59301635  1
  N  N385  1  0.30016195  0.55918951  0.58944614  1
  N  N386  1  0.32416049  0.88932297  0.60559020  1
  N  N387  1  0.81549185  0.22429762  0.59684605  1
  N  N388  1  0.79701940  0.55602012  0.58828377  1
  N  N389  1  0.81624432  0.89590850  0.59095020  1
  N  N390  1  0.17988060  0.11167111  0.09987354  1
  N  N391  1  0.19149913  0.44322748  0.09458457  1
  N  N392  1  0.18989395  0.77867636  0.08647697  1
  N  N393  1  0.67521893  0.11194447  0.10681820  1
  N  N394  1  0.69042036  0.44479519  0.09225827  1
  N  N395  1  0.67560186  0.77842074  0.10706809  1
  N  N396  1  0.17359625  0.22156250  0.90002819  1
  N  N397  1  0.17842167  0.55518178  0.89814790  1
  N  N398  1  0.17913454  0.89097312  0.90044062  1
  N  N399  1  0.67879488  0.22227331  0.89903088  1
  N  N400  1  0.67740460  0.55940804  0.89934212  1
  N  N401  1  0.67182618  0.88821485  0.89338296  1
  N  N402  1  0.32120399  0.11259271  0.40575332  1
  N  N403  1  0.31280938  0.44470315  0.40660022  1
  N  N404  1  0.31835988  0.77709778  0.39288203  1
  N  N405  1  0.82797269  0.11262284  0.39597610  1
  N  N406  1  0.81345798  0.44378623  0.40054243  1
  N  N407  1  0.81037570  0.77619123  0.41344022  1
  N  N408  1  0.44061938  0.27497432  0.40932923  1
  N  N409  1  0.45137045  0.60540188  0.41945747  1
  N  N410  1  0.43339935  0.94394584  0.40270585  1
  N  N411  1  0.93056687  0.27969931  0.39813814  1
  N  N412  1  0.95325201  0.60510361  0.41155925  1
  N  N413  1  0.92759051  0.94127864  0.39546192  1
  N  N414  1  0.07988667  0.05303521  0.89354954  1
  N  N415  1  0.05704288  0.38823806  0.90917025  1
  N  N416  1  0.06729456  0.72208220  0.90045766  1
  N  N417  1  0.57580697  0.05485311  0.89609761  1
  N  N418  1  0.55911821  0.39138034  0.90053283  1
  N  N419  1  0.56728807  0.72145816  0.90470970  1
  N  N420  1  0.07026923  0.27353116  0.09420968  1
  N  N421  1  0.07622392  0.61286892  0.10796463  1
  N  N422  1  0.07656047  0.94576384  0.10546781  1
  N  N423  1  0.57346683  0.27794065  0.10542492  1
  N  N424  1  0.56810594  0.60764880  0.09437343  1
  N  N425  1  0.57171948  0.94530277  0.09714499  1
  N  N426  1  0.42420753  0.05595077  0.60633510  1
  N  N427  1  0.43566226  0.38984967  0.59479508  1
  N  N428  1  0.43255469  0.71984167  0.59443607  1
  N  N429  1  0.92416926  0.05607074  0.60090101  1
  N  N430  1  0.93583172  0.38706005  0.59759806  1
  N  N431  1  0.93659971  0.73072911  0.60130069  1
  N  N432  1  0.19391982  0.11113144  0.40773852  1
  N  N433  1  0.18624249  0.44118101  0.40400041  1
  N  N434  1  0.19518784  0.77555317  0.41676348  1
  N  N435  1  0.70092694  0.10791980  0.41186356  1
  N  N436  1  0.68709847  0.44498081  0.40113404  1
  N  N437  1  0.68517915  0.77696980  0.39531158  1
  N  N438  1  0.30317279  0.22217620  0.90888186  1
  N  N439  1  0.30810947  0.55720534  0.90414463  1
  N  N440  1  0.30882594  0.89238284  0.90802038  1
  N  N441  1  0.80475236  0.22539695  0.90892668  1
  N  N442  1  0.80587899  0.55512404  0.90951126  1
  N  N443  1  0.79788853  0.89206074  0.91365166  1
  N  N444  1  0.30757739  0.10771133  0.09300602  1
  N  N445  1  0.32065607  0.44693280  0.10683400  1
  N  N446  1  0.31624475  0.78125919  0.10618171  1
  N  N447  1  0.80185569  0.11365545  0.08759795  1
  N  N448  1  0.81937009  0.44106929  0.09567626  1
  N  N449  1  0.80082112  0.77483645  0.08313030  1
  N  N450  1  0.18522853  0.22423625  0.59402299  1
  N  N451  1  0.17319432  0.55351143  0.60072008  1
  N  N452  1  0.19737659  0.89127422  0.58697781  1
  N  N453  1  0.68567582  0.22404767  0.59480405  1
  N  N454  1  0.66824700  0.55362633  0.60303218  1
  N  N455  1  0.68901220  0.88855931  0.60255010  1
  Cl  Cl456  1  0.23847165  0.05310661  0.61280819  1
  Cl  Cl457  1  0.25174736  0.38349625  0.62297846  1
  Cl  Cl458  1  0.24571074  0.72938883  0.60824003  1
  Cl  Cl459  1  0.73248484  0.05749521  0.61487372  1
  Cl  Cl460  1  0.74568856  0.38919127  0.62320000  1
  Cl  Cl461  1  0.75253338  0.72747446  0.60923010  1
  Cl  Cl462  1  0.25966722  0.27494854  0.11641001  1
  Cl  Cl463  1  0.25923565  0.61751211  0.11933875  1
  Cl  Cl464  1  0.26102430  0.94854639  0.12416986  1
  Cl  Cl465  1  0.75657721  0.28484730  0.11740918  1
  Cl  Cl466  1  0.75965247  0.60782422  0.10283463  1
  Cl  Cl467  1  0.76475091  0.93900082  0.10029309  1
  Cl  Cl468  1  0.26415274  0.05271045  0.87716539  1
  Cl  Cl469  1  0.24527387  0.38726844  0.88975953  1
  Cl  Cl470  1  0.25067869  0.72935401  0.88927250  1
  Cl  Cl471  1  0.76799839  0.05989543  0.89227478  1
  Cl  Cl472  1  0.74112140  0.39608907  0.88961729  1
  Cl  Cl473  1  0.75500550  0.72582241  0.89299411  1
  Cl  Cl474  1  0.25212609  0.27400170  0.38411316  1
  Cl  Cl475  1  0.26402962  0.61416399  0.38416626  1
  Cl  Cl476  1  0.23700023  0.94023722  0.39692118  1
  Cl  Cl477  1  0.74747414  0.27792386  0.37988028  1
  Cl  Cl478  1  0.77263785  0.61410335  0.37933435  1
  Cl  Cl479  1  0.74579720  0.95160359  0.37146583  1
  Cl  Cl480  1  0.00099546  0.21983049  0.61796027  1
  Cl  Cl481  1  -0.01516409  0.55474723  0.60518491  1
  Cl  Cl482  1  0.01120006  0.89351302  0.60468322  1
  Cl  Cl483  1  0.50128344  0.21690629  0.62260949  1
  Cl  Cl484  1  0.48426407  0.55741644  0.61228584  1
  Cl  Cl485  1  0.50606014  0.88369915  0.62098675  1
  Cl  Cl486  1  -0.01326296  0.11032392  0.11142484  1
  Cl  Cl487  1  0.00523151  0.44199535  0.11720110  1
  Cl  Cl488  1  -0.00861496  0.77031048  0.09917290  1
  Cl  Cl489  1  0.48834483  0.11191871  0.12268380  1
  Cl  Cl490  1  0.50813578  0.44389953  0.12461505  1
  Cl  Cl491  1  0.49637039  0.78499828  0.11363706  1
  Cl  Cl492  1  -0.01174913  0.22061234  0.88087911  1
  Cl  Cl493  1  -0.01112526  0.55911572  0.87826475  1
  Cl  Cl494  1  -0.01870964  0.89491349  0.89498536  1
  Cl  Cl495  1  0.49133879  0.22154063  0.88951360  1
  Cl  Cl496  1  0.49424828  0.55551353  0.87685728  1
  Cl  Cl497  1  0.49133317  0.88522669  0.88669103  1
  Cl  Cl498  1  0.01085124  0.11796141  0.37710904  1
  Cl  Cl499  1  -0.00126431  0.44831162  0.38546392  1
  Cl  Cl500  1  0.00453868  0.76916045  0.40479376  1
  Cl  Cl501  1  0.51366675  0.10741478  0.39811027  1
  Cl  Cl502  1  0.50234583  0.44431054  0.39135561  1
  Cl  Cl503  1  0.50125347  0.77826179  0.37802050  1
  Cl  Cl504  1  0.35831590  0.14756944  0.74317025  1
  Cl  Cl505  1  0.35290536  0.48393941  0.75054949  1
  Cl  Cl506  1  0.35364308  0.81502906  0.74636728  1
  Cl  Cl507  1  0.85704267  0.14465557  0.74165332  1
  Cl  Cl508  1  0.85506023  0.48338932  0.75034759  1
  Cl  Cl509  1  0.86020774  0.81348806  0.75262304  1
  Cl  Cl510  1  0.14217143  0.18380137  0.24308276  1
  Cl  Cl511  1  0.13797304  0.52368479  0.25128107  1
  Cl  Cl512  1  0.13895730  0.85349069  0.24846888  1
  Cl  Cl513  1  0.63666299  0.18664095  0.24461101  1
  Cl  Cl514  1  0.64745725  0.52328262  0.25050230  1
  Cl  Cl515  1  0.64033659  0.85354872  0.24338655  1
  Cl  Cl516  1  0.13708868  0.14815995  0.75612640  1
  Cl  Cl517  1  0.13225159  0.48026090  0.74696917  1
  Cl  Cl518  1  0.13226249  0.81272957  0.75144610  1
  Cl  Cl519  1  0.64018126  0.14340106  0.75871782  1
  Cl  Cl520  1  0.63333019  0.48205946  0.75108600  1
  Cl  Cl521  1  0.63662801  0.81426233  0.75557402  1
  Cl  Cl522  1  0.36150744  0.18243538  0.25342014  1
  Cl  Cl523  1  0.36203561  0.51668995  0.24570488  1
  Cl  Cl524  1  0.36125641  0.85128667  0.25612613  1
  Cl  Cl525  1  0.85765002  0.18259357  0.25331825  1
  Cl  Cl526  1  0.86524935  0.51933625  0.24151891  1
  Cl  Cl527  1  0.86123737  0.85013792  0.24940729  1
  Cl  Cl528  1  0.10670600  0.31442597  0.75114617  1
  Cl  Cl529  1  0.10801927  0.64733084  0.74684136  1
  Cl  Cl530  1  0.11073388  0.97841877  0.75698966  1
  Cl  Cl531  1  0.61271746  0.31070832  0.75104838  1
  Cl  Cl532  1  0.60857061  0.64790408  0.74791175  1
  Cl  Cl533  1  0.60844989  0.97798073  0.75719776  1
  Cl  Cl534  1  0.39213673  0.01653249  0.25870490  1
  Cl  Cl535  1  0.39459406  0.35144706  0.24991091  1
  Cl  Cl536  1  0.39524940  0.68563905  0.24957559  1
  Cl  Cl537  1  0.89366777  0.01693158  0.25295190  1
  Cl  Cl538  1  0.88999557  0.35154635  0.25426968  1
  Cl  Cl539  1  0.90082583  0.68556605  0.25316091  1
  Cl  Cl540  1  0.39245909  0.31598770  0.74945767  1
  Cl  Cl541  1  0.38839411  0.65265973  0.75309908  1
  Cl  Cl542  1  0.38639142  0.97963225  0.74024522  1
  Cl  Cl543  1  0.88329023  0.31378390  0.75043490  1
  Cl  Cl544  1  0.88697629  0.65096019  0.74471839  1
  Cl  Cl545  1  0.89183238  0.97909327  0.74251827  1
  Cl  Cl546  1  0.11323452  0.01898238  0.24278047  1
  Cl  Cl547  1  0.11159694  0.35021492  0.25199138  1
  Cl  Cl548  1  0.11550331  0.69088388  0.24785853  1
  Cl  Cl549  1  0.61264995  0.01898626  0.23991809  1
  Cl  Cl550  1  0.61565021  0.35292535  0.25139581  1
  Cl  Cl551  1  0.61529166  0.68756766  0.25456103  1
