# generated using pymatgen
data_H8PbC4(N3Cl2)2
_symmetry_space_group_name_H-M   'P 1'
_cell_length_a   16.62536543
_cell_length_b   22.51253276
_cell_length_c   21.59451943
_cell_angle_alpha   90.00093190
_cell_angle_beta   90.00393986
_cell_angle_gamma   90.00454185
_symmetry_Int_Tables_number   1
_chemical_formula_structural   H8PbC4(N3Cl2)2
_chemical_formula_sum   'H192 Pb24 C96 N144 Cl96'
_cell_volume   8082.37690338
_cell_formula_units_Z   24
loop_
 _symmetry_equiv_pos_site_id
 _symmetry_equiv_pos_as_xyz
  1  'x, y, z'
loop_
 _atom_site_type_symbol
 _atom_site_label
 _atom_site_symmetry_multiplicity
 _atom_site_fract_x
 _atom_site_fract_y
 _atom_site_fract_z
 _atom_site_occupancy
  H  H0  1  -0.00516979  0.02983085  0.67810834  1
  H  H1  1  0.00196332  0.36208238  0.67726041  1
  H  H2  1  -0.00645505  0.69844629  0.67911934  1
  H  H3  1  0.50086806  0.02778449  0.68203615  1
  H  H4  1  0.48967712  0.36275102  0.67833119  1
  H  H5  1  0.50894456  0.69657598  0.68013815  1
  H  H6  1  0.00762641  0.30236534  0.17658973  1
  H  H7  1  0.00903543  0.63650642  0.17888986  1
  H  H8  1  0.01401033  0.96701035  0.18182966  1
  H  H9  1  0.49412432  0.30602310  0.18212756  1
  H  H10  1  0.49019518  0.63594674  0.18105130  1
  H  H11  1  0.48700981  0.97015852  0.17711979  1
  H  H12  1  0.00371718  0.03126052  0.81515225  1
  H  H13  1  0.01027747  0.36259274  0.81798172  1
  H  H14  1  -0.00552316  0.69662781  0.82247300  1
  H  H15  1  0.50213671  0.03040427  0.82457709  1
  H  H16  1  0.49209876  0.36852881  0.81929913  1
  H  H17  1  0.49886550  0.69492851  0.82545996  1
  H  H18  1  0.00324427  0.30521306  0.31860232  1
  H  H19  1  0.00694987  0.63349284  0.32094104  1
  H  H20  1  0.00691413  0.97220196  0.32137861  1
  H  H21  1  0.49459211  0.30174502  0.32101849  1
  H  H22  1  0.50083291  0.63567900  0.32160381  1
  H  H23  1  0.49115337  0.96903442  0.32248428  1
  H  H24  1  0.24528437  0.19824564  0.68069518  1
  H  H25  1  0.23933771  0.53158422  0.68273092  1
  H  H26  1  0.23917255  0.86337695  0.67842950  1
  H  H27  1  0.75681470  0.19450937  0.67796720  1
  H  H28  1  0.75351429  0.53056799  0.67307166  1
  H  H29  1  0.75569316  0.86332387  0.67778245  1
  H  H30  1  0.23099398  0.13225512  0.18070500  1
  H  H31  1  0.25763559  0.47319876  0.17762095  1
  H  H32  1  0.24373795  0.80213507  0.17941588  1
  H  H33  1  0.76620539  0.13586282  0.17514818  1
  H  H34  1  0.75221898  0.46852892  0.18012407  1
  H  H35  1  0.75984331  0.80235419  0.17634283  1
  H  H36  1  0.26410467  0.19859424  0.81921279  1
  H  H37  1  0.25212825  0.52746872  0.82222518  1
  H  H38  1  0.24804816  0.85189381  0.82508377  1
  H  H39  1  0.73797728  0.19865121  0.82472975  1
  H  H40  1  0.74963613  0.53242189  0.81978466  1
  H  H41  1  0.75106690  0.86167924  0.81985142  1
  H  H42  1  0.25729949  0.13796955  0.32313695  1
  H  H43  1  0.25333294  0.46879978  0.31891071  1
  H  H44  1  0.24888456  0.80570818  0.32193646  1
  H  H45  1  0.74343996  0.13518223  0.31772885  1
  H  H46  1  0.75415778  0.47043985  0.32342603  1
  H  H47  1  0.76005714  0.80197296  0.31911725  1
  H  H48  1  0.13156063  0.04880522  0.62064548  1
  H  H49  1  0.12758543  0.38621699  0.60730734  1
  H  H50  1  0.13185955  0.71981389  0.62305550  1
  H  H51  1  0.62923919  0.05303134  0.61333851  1
  H  H52  1  0.63039757  0.38427064  0.62668092  1
  H  H53  1  0.62666809  0.71760146  0.60396325  1
  H  H54  1  0.36943881  0.28114225  0.11303102  1
  H  H55  1  0.37224689  0.61018128  0.10413844  1
  H  H56  1  0.38360528  0.93862717  0.09280800  1
  H  H57  1  0.87075470  0.28176512  0.11968889  1
  H  H58  1  0.87402550  0.61675118  0.11563016  1
  H  H59  1  0.87601427  0.95067451  0.12752696  1
  H  H60  1  0.37731393  0.05602977  0.89204000  1
  H  H61  1  0.38061404  0.39163495  0.90188463  1
  H  H62  1  0.37896172  0.72443038  0.89758759  1
  H  H63  1  0.87764952  0.05278303  0.88303659  1
  H  H64  1  0.88150647  0.38653524  0.88504308  1
  H  H65  1  0.87655013  0.72156092  0.89710769  1
  H  H66  1  0.13631436  0.28036058  0.38175452  1
  H  H67  1  0.11761276  0.60793645  0.40362898  1
  H  H68  1  0.12587875  0.94405494  0.39588237  1
  H  H69  1  0.63296040  0.28543052  0.37570842  1
  H  H70  1  0.62541875  0.61239117  0.39153518  1
  H  H71  1  0.62825341  0.95149701  0.37939266  1
  H  H72  1  0.36483949  0.22010133  0.60860339  1
  H  H73  1  0.37795443  0.54964548  0.62483605  1
  H  H74  1  0.37380343  0.88472557  0.61781212  1
  H  H75  1  0.86489956  0.22557003  0.59447606  1
  H  H76  1  0.87540380  0.55252441  0.60227473  1
  H  H77  1  0.87030331  0.89103339  0.60078452  1
  H  H78  1  0.13300273  0.11081214  0.09168181  1
  H  H79  1  0.12465794  0.44918333  0.11608059  1
  H  H80  1  0.11962405  0.77608589  0.11051500  1
  H  H81  1  0.62241024  0.11616286  0.13025223  1
  H  H82  1  0.62156375  0.44585821  0.11492140  1
  H  H83  1  0.62327744  0.78180528  0.11864473  1
  H  H84  1  0.12592267  0.21667265  0.87739187  1
  H  H85  1  0.12655599  0.55506269  0.89169907  1
  H  H86  1  0.12272642  0.88397285  0.89045720  1
  H  H87  1  0.63663917  0.22911177  0.91098382  1
  H  H88  1  0.62949890  0.55629907  0.89323633  1
  H  H89  1  0.62395666  0.88832103  0.88850674  1
  H  H90  1  0.36610996  0.10886498  0.40394531  1
  H  H91  1  0.36707889  0.44338137  0.39809223  1
  H  H92  1  0.36894279  0.77834076  0.39436744  1
  H  H93  1  0.87268905  0.11393666  0.38257679  1
  H  H94  1  0.87200542  0.44747471  0.39874810  1
  H  H95  1  0.86639492  0.77473763  0.40431896  1
  H  H96  1  0.38665864  0.27539662  0.40193131  1
  H  H97  1  0.37621291  0.61427277  0.38971299  1
  H  H98  1  0.38117855  0.94351962  0.40190982  1
  H  H99  1  0.88788868  0.27946476  0.39610691  1
  H  H100  1  0.87060750  0.61501046  0.38139259  1
  H  H101  1  0.87732673  0.94900953  0.38626566  1
  H  H102  1  0.12704417  0.05313444  0.88553336  1
  H  H103  1  0.13038112  0.38743160  0.89207206  1
  H  H104  1  0.12490476  0.71702234  0.88457188  1
  H  H105  1  0.62626660  0.05780831  0.89481069  1
  H  H106  1  0.62766549  0.38708781  0.88214421  1
  H  H107  1  0.62715881  0.71727750  0.89159548  1
  H  H108  1  0.11702714  0.27609950  0.09394437  1
  H  H109  1  0.12091204  0.61030840  0.09751244  1
  H  H110  1  0.12222998  0.94178672  0.09952903  1
  H  H111  1  0.61882583  0.27686743  0.11278875  1
  H  H112  1  0.62036383  0.61439817  0.11354047  1
  H  H113  1  0.62762572  0.95169044  0.12474926  1
  H  H114  1  0.38088191  0.05358768  0.60679915  1
  H  H115  1  0.38502270  0.39109833  0.59367790  1
  H  H116  1  0.37789537  0.71874287  0.61795602  1
  H  H117  1  0.88407665  0.05568414  0.59945602  1
  H  H118  1  0.87878482  0.38984542  0.60794336  1
  H  H119  1  0.88477955  0.72144796  0.59617089  1
  H  H120  1  0.11911446  0.11512841  0.37831896  1
  H  H121  1  0.11874757  0.44858971  0.38160878  1
  H  H122  1  0.12043104  0.78177982  0.38865755  1
  H  H123  1  0.62363608  0.11248170  0.39044681  1
  H  H124  1  0.62394066  0.45016794  0.38557620  1
  H  H125  1  0.62138598  0.78310188  0.37578065  1
  H  H126  1  0.37228000  0.22480288  0.90208136  1
  H  H127  1  0.37512872  0.55453114  0.89472686  1
  H  H128  1  0.37114380  0.88768799  0.89104459  1
  H  H129  1  0.88031607  0.21467458  0.87613883  1
  H  H130  1  0.87923429  0.55547889  0.88576857  1
  H  H131  1  0.87184612  0.88604874  0.89520107  1
  H  H132  1  0.37527504  0.11650111  0.13431650  1
  H  H133  1  0.37263969  0.44355763  0.10172395  1
  H  H134  1  0.36862260  0.77793483  0.10842096  1
  H  H135  1  0.86359017  0.10535087  0.08691018  1
  H  H136  1  0.87123281  0.44375874  0.10608195  1
  H  H137  1  0.86959588  0.77385161  0.09576665  1
  H  H138  1  0.11598457  0.22070985  0.61511891  1
  H  H139  1  0.13138648  0.55524936  0.59889375  1
  H  H140  1  0.12615165  0.89102967  0.59978020  1
  H  H141  1  0.61919401  0.21677566  0.62188199  1
  H  H142  1  0.62686540  0.55283246  0.60766616  1
  H  H143  1  0.62194862  0.88602632  0.61673601  1
  H  H144  1  0.94641159  0.08468342  0.49265925  1
  H  H145  1  0.78944293  0.74292132  0.50147573  1
  H  H146  1  0.61458598  0.25548520  0.48838033  1
  H  H147  1  0.43617673  0.73499193  1.00245493  1
  H  H148  1  0.08017330  0.07963855  0.99722432  1
  H  H149  1  0.65519013  0.42180104  0.49984771  1
  H  H150  1  0.68134926  0.58640779  1.00160299  1
  H  H151  1  0.10774854  0.74837909  0.51511631  1
  H  H152  1  0.40907553  0.74800835  0.50583464  1
  H  H153  1  0.77964720  0.08233784  -0.01011403  1
  H  H154  1  0.29718210  0.07807184  0.50822625  1
  H  H155  1  0.13951065  0.08378524  0.48794915  1
  H  H156  1  0.29973053  0.25029288  1.00696700  1
  H  H157  1  0.41658204  0.25594611  0.00130962  1
  H  H158  1  0.46238972  0.41838631  0.49452222  1
  H  H159  1  0.95055612  0.25057468  0.50236021  1
  H  H160  1  0.46254523  0.92642388  -0.00654382  1
  H  H161  1  0.41900756  0.58355016  0.50118908  1
  H  H162  1  0.18273599  0.89939783  0.99696832  1
  H  H163  1  0.81115432  0.92266179  0.49522281  1
  H  H164  1  0.07574094  0.41791646  0.99871731  1
  H  H165  1  0.09378653  0.74543775  0.99832212  1
  H  H166  1  0.05371670  0.91805838  -0.00735761  1
  H  H167  1  0.31142436  0.90523532  0.99743641  1
  H  H168  1  0.58098728  0.08233537  1.00084725  1
  H  H169  1  0.57366203  0.74653276  0.49636679  1
  H  H170  1  0.81769832  0.41509897  -0.00247217  1
  H  H171  1  0.86537471  0.24846297  0.98559640  1
  H  H172  1  0.60812195  0.91393896  0.01957274  1
  H  H173  1  0.89421135  0.91849388  0.01456312  1
  H  H174  1  0.71838966  0.24341993  1.01027867  1
  H  H175  1  0.21348074  0.08832740  -0.01162887  1
  H  H176  1  0.04492944  0.57704884  0.50279916  1
  H  H177  1  0.41582070  0.08747925  1.00249583  1
  H  H178  1  0.58655958  0.75251900  0.99493820  1
  H  H179  1  0.45516664  0.24776700  0.50858075  1
  H  H180  1  0.83932229  0.58646525  0.99108908  1
  H  H181  1  0.95324368  0.75170099  0.49176775  1
  H  H182  1  0.91959800  0.07725588  0.99575404  1
  H  H183  1  0.78911432  0.24758396  0.49398649  1
  H  H184  1  0.31223300  0.25010120  0.49696621  1
  H  H185  1  0.44393423  0.91515515  0.50827632  1
  H  H186  1  0.20321254  0.58297317  0.49522391  1
  H  H187  1  0.64881691  0.91677772  0.50890024  1
  H  H188  1  0.30141624  0.41407080  0.50371782  1
  H  H189  1  0.56911061  0.26122305  0.00450763  1
  H  H190  1  0.67491322  0.08389566  0.50066863  1
  H  H191  1  0.66029817  0.41998577  0.00770730  1
  Pb  Pb192  1  0.25243701  0.04648222  0.74891475  1
  Pb  Pb193  1  0.24932782  0.38017306  0.74697911  1
  Pb  Pb194  1  0.25282983  0.71243251  0.75274172  1
  Pb  Pb195  1  0.74982587  0.04710405  0.75104580  1
  Pb  Pb196  1  0.75347865  0.38127445  0.75344257  1
  Pb  Pb197  1  0.75165365  0.71196513  0.74263031  1
  Pb  Pb198  1  0.24925851  0.28760959  0.24836370  1
  Pb  Pb199  1  0.24672986  0.61995609  0.25323233  1
  Pb  Pb200  1  0.25101843  0.94694703  0.24573205  1
  Pb  Pb201  1  0.75243446  0.28382698  0.25142633  1
  Pb  Pb202  1  0.74436476  0.61729563  0.24394460  1
  Pb  Pb203  1  0.74931406  0.95539975  0.25441513  1
  Pb  Pb204  1  -0.00180976  0.21238836  0.74193449  1
  Pb  Pb205  1  0.00167498  0.54636980  0.74187616  1
  Pb  Pb206  1  -0.00005236  0.87939697  0.74933185  1
  Pb  Pb207  1  0.49817742  0.21675601  0.75983127  1
  Pb  Pb208  1  0.50180420  0.54607698  0.75128282  1
  Pb  Pb209  1  0.50069837  0.87900154  0.75601996  1
  Pb  Pb210  1  0.00397956  0.11842493  0.23655828  1
  Pb  Pb211  1  -0.00221882  0.45305559  0.24740648  1
  Pb  Pb212  1  -0.00835285  0.78407716  0.25136719  1
  Pb  Pb213  1  0.49744483  0.11981137  0.25519568  1
  Pb  Pb214  1  0.49449530  0.45106495  0.25704943  1
  Pb  Pb215  1  0.50014157  0.78499845  0.24691210  1
  C  C216  1  0.00325521  0.04477818  0.63080715  1
  C  C217  1  0.00310467  0.37928756  0.63057832  1
  C  C218  1  0.00405747  0.71374948  0.63200593  1
  C  C219  1  0.50374924  0.04395156  0.63471837  1
  C  C220  1  0.50149227  0.37823144  0.63159997  1
  C  C221  1  0.50435198  0.71151028  0.63240235  1
  C  C222  1  -0.00150237  0.28727396  0.12953068  1
  C  C223  1  0.00124831  0.62190283  0.13129219  1
  C  C224  1  0.00369237  0.95311135  0.13427633  1
  C  C225  1  0.49483492  0.28980573  0.13474051  1
  C  C226  1  0.49436149  0.62068857  0.13354182  1
  C  C227  1  0.49958740  0.95397945  0.13057881  1
  C  C228  1  0.00265894  0.04545617  0.86322096  1
  C  C229  1  0.00717325  0.37865281  0.86523847  1
  C  C230  1  -0.00069782  0.71160807  0.86994776  1
  C  C231  1  0.50238181  0.04739507  0.87178422  1
  C  C232  1  0.50018907  0.38192399  0.86722818  1
  C  C233  1  0.50156091  0.71194838  0.87247096  1
  C  C234  1  0.00943272  0.28926782  0.36576922  1
  C  C235  1  -0.00139956  0.61851738  0.36825072  1
  C  C236  1  0.00353136  0.95541319  0.36821322  1
  C  C237  1  0.50520003  0.28794777  0.36851698  1
  C  C238  1  0.50028435  0.62034277  0.36913676  1
  C  C239  1  0.49993353  0.95479855  0.36998783  1
  C  C240  1  0.24225463  0.21270977  0.63293488  1
  C  C241  1  0.24984084  0.54560235  0.63530194  1
  C  C242  1  0.24666204  0.87904539  0.63146301  1
  C  C243  1  0.74750025  0.21090381  0.63125428  1
  C  C244  1  0.75194739  0.54579546  0.62547523  1
  C  C245  1  0.74869884  0.87953795  0.63057267  1
  C  C246  1  0.24643373  0.11974132  0.13362265  1
  C  C247  1  0.25132899  0.45598504  0.13120085  1
  C  C248  1  0.24432675  0.78550768  0.13254193  1
  C  C249  1  0.75085211  0.12009594  0.12913804  1
  C  C250  1  0.74777051  0.45313386  0.13249814  1
  C  C251  1  0.75051006  0.78686308  0.12959028  1
  C  C252  1  0.25398966  0.21332071  0.86638548  1
  C  C253  1  0.25134457  0.54459709  0.86911009  1
  C  C254  1  0.24737767  0.87309783  0.87026588  1
  C  C255  1  0.75194616  0.21388729  0.87140172  1
  C  C256  1  0.75325832  0.54784462  0.86746178  1
  C  C257  1  0.74889180  0.87780403  0.86722141  1
  C  C258  1  0.24684979  0.12122885  0.36976333  1
  C  C259  1  0.24621624  0.45363659  0.36628743  1
  C  C260  1  0.24568239  0.78925175  0.36881707  1
  C  C261  1  0.74621148  0.12067307  0.36548368  1
  C  C262  1  0.74932506  0.45585871  0.37111788  1
  C  C263  1  0.74952173  0.78701959  0.36620587  1
  C  C264  1  0.56600949  0.40783022  0.54734633  1
  C  C265  1  0.26768591  0.09027665  0.46507330  1
  C  C266  1  0.67925744  0.09270648  0.04720690  1
  C  C267  1  0.96705167  0.41180894  0.53967281  1
  C  C268  1  0.98359544  0.26096720  0.46016296  1
  C  C269  1  0.95892990  0.92610578  0.45842703  1
  C  C270  1  0.98257259  0.74135647  0.53552885  1
  C  C271  1  0.27780007  0.42268472  0.03828715  1
  C  C272  1  0.45364029  0.26288619  0.04207496  1
  C  C273  1  0.98072149  0.07272950  0.53378760  1
  C  C274  1  0.45981754  0.59345085  0.46324979  1
  C  C275  1  0.31828055  0.09963606  0.04991137  1
  C  C276  1  0.45991684  0.07604967  0.96422663  1
  C  C277  1  0.71801664  0.57550464  0.96148057  1
  C  C278  1  0.20597420  0.75540061  0.04054321  1
  C  C279  1  0.26980252  0.42581219  0.46127289  1
  C  C280  1  0.04187453  0.06937958  0.95788798  1
  C  C281  1  0.96657750  0.73939356  0.96474354  1
  C  C282  1  0.27139978  0.23960080  0.96290325  1
  C  C283  1  0.23938953  0.09728827  0.03361403  1
  C  C284  1  0.77116331  0.75628018  0.03451487  1
  C  C285  1  0.23237080  0.57207909  0.53903159  1
  C  C286  1  0.22282310  0.90963738  0.53719265  1
  C  C287  1  0.04817155  0.73721765  0.96206904  1
  C  C288  1  0.94412051  0.26248616  0.04112155  1
  C  C289  1  0.71255446  0.09449484  0.46110236  1
  C  C290  1  0.06149892  0.06948968  0.54258822  1
  C  C291  1  0.27897538  0.75888229  0.46203973  1
  C  C292  1  0.53642764  0.73703204  0.53641921  1
  C  C293  1  0.56591891  0.26460229  0.45609063  1
  C  C294  1  0.70831395  0.57346550  0.53461110  1
  C  C295  1  0.19457355  0.23887007  0.54177854  1
  C  C296  1  0.45446963  0.73772213  0.54117838  1
  C  C297  1  0.27586944  0.23927256  0.53733536  1
  C  C298  1  0.78184813  0.42562647  0.03816221  1
  C  C299  1  0.95990066  0.06877138  0.95711240  1
  C  C300  1  0.79406944  0.09523757  0.45704761  1
  C  C301  1  0.78926796  0.57306118  0.53287793  1
  C  C302  1  0.47853792  0.92692268  0.46728994  1
  C  C303  1  0.70053724  0.43067552  0.46356109  1
  C  C304  1  0.94287804  0.92858407  0.04675396  1
  C  C305  1  0.54114356  0.59294030  0.46196454  1
  C  C306  1  0.02390110  0.92736766  0.03643921  1
  C  C307  1  0.48509328  0.26052032  0.46578256  1
  C  C308  1  0.78181774  0.42996494  0.46628395  1
  C  C309  1  0.77637240  0.91023195  0.53612689  1
  C  C310  1  0.55932678  0.93021805  0.45794997  1
  C  C311  1  0.03874806  0.40698714  0.95870780  1
  N  N312  1  0.01807663  0.59185853  0.46259824  1
  N  N313  1  0.94939457  0.59739092  0.04084153  1
  N  N314  1  0.47662191  0.40723884  0.96408620  1
  N  N315  1  0.20116861  0.75972485  0.46096915  1
  N  N316  1  0.56202367  0.93190960  0.04577927  1
  N  N317  1  0.28722785  0.91730497  0.95513694  1
  N  N318  1  0.28774100  0.57589737  0.96161137  1
  N  N319  1  0.20482013  0.91546281  0.95553838  1
  N  N320  1  0.70223643  0.42630758  0.04227939  1
  N  N321  1  0.02092160  0.25954142  0.03195041  1
  N  N322  1  0.76413142  0.24105618  0.53742583  1
  N  N323  1  0.47016302  0.07297374  0.54065540  1
  N  N324  1  0.95937130  0.40743354  0.95671930  1
  N  N325  1  0.54008170  0.59278032  0.04226930  1
  N  N326  1  0.04423851  0.41047950  0.53810600  1
  N  N327  1  0.94067467  0.59447905  0.45645803  1
  N  N328  1  0.06100562  0.74226236  0.54623615  1
  N  N329  1  0.28377650  0.75590630  0.03869282  1
  N  N330  1  0.76438807  0.75870918  0.46074657  1
  N  N331  1  0.78299137  0.90507535  0.96174140  1
  N  N332  1  0.19319951  0.23716711  0.95454894  1
  N  N333  1  0.70660879  0.90496566  0.95978323  1
  N  N334  1  0.75638712  0.08918522  0.03366904  1
  N  N335  1  0.48838552  0.40969917  0.53694569  1
  N  N336  1  0.69390076  0.75950792  0.04040763  1
  N  N337  1  0.79763397  0.57456650  0.95801919  1
  N  N338  1  0.73971695  0.24700781  0.96528210  1
  N  N339  1  0.02535909  0.59532562  0.03479459  1
  N  N340  1  0.69709577  0.90781674  0.54226205  1
  N  N341  1  0.46354960  0.59154945  0.03909980  1
  N  N342  1  0.68733414  0.23760496  0.54555753  1
  N  N343  1  0.53331008  0.26079959  0.04314350  1
  N  N344  1  0.06255158  0.25966374  0.45503389  1
  N  N345  1  0.18913013  0.09213778  0.45519240  1
  N  N346  1  0.31077630  0.57056859  0.54768433  1
  N  N347  1  0.54665108  0.07305563  0.54288343  1
  N  N348  1  0.30002076  0.90758678  0.54155067  1
  N  N349  1  0.48447368  0.91915529  0.03746745  1
  N  N350  1  0.46751820  0.74603940  0.96312502  1
  N  N351  1  0.19094653  0.42742119  0.45589812  1
  N  N352  1  0.55270000  0.40565438  0.95763395  1
  N  N353  1  0.81615858  0.23372474  0.95605429  1
  N  N354  1  0.53980584  0.07582570  0.96391279  1
  N  N355  1  0.21155007  0.57601877  0.96073378  1
  N  N356  1  0.68729795  0.76151688  0.45216741  1
  N  N357  1  0.54630957  0.73425812  0.96373980  1
  N  N358  1  0.20020356  0.42425030  0.04160719  1
  N  N359  1  0.03615759  0.92415903  0.46276653  1
  N  N360  1  0.07457096  0.05296452  0.60163571  1
  N  N361  1  0.06711116  0.38997664  0.59601827  1
  N  N362  1  0.07382278  0.72490716  0.60546731  1
  N  N363  1  0.56868189  0.05513796  0.60117670  1
  N  N364  1  0.57447194  0.38925789  0.60625701  1
  N  N365  1  0.56605021  0.72092290  0.59353321  1
  N  N366  1  0.42945637  0.27865171  0.09937696  1
  N  N367  1  0.43390216  0.60878433  0.09549361  1
  N  N368  1  0.44560539  0.94363767  0.08671304  1
  N  N369  1  0.92762475  0.27869016  0.10084368  1
  N  N370  1  0.93323238  0.61378031  0.10080432  1
  N  N371  1  0.93206471  0.94447409  0.10750780  1
  N  N372  1  0.43698831  0.05898598  0.90655459  1
  N  N373  1  0.44281441  0.39237859  0.90850360  1
  N  N374  1  0.43976254  0.72217486  0.90934989  1
  N  N375  1  0.93687693  0.05395011  0.89797505  1
  N  N376  1  0.94156671  0.38985774  0.89808236  1
  N  N377  1  0.93722876  0.72400299  0.90920922  1
  N  N378  1  0.07689821  0.27753570  0.39626999  1
  N  N379  1  0.05520910  0.60559741  0.40916473  1
  N  N380  1  0.06434078  0.94260305  0.40531052  1
  N  N381  1  0.57700037  0.28161351  0.39592387  1
  N  N382  1  0.56541206  0.60898735  0.40527620  1
  N  N383  1  0.57153473  0.94684661  0.39880711  1
  N  N384  1  0.30470001  0.22263377  0.59546865  1
  N  N385  1  0.31984511  0.55433341  0.60772504  1
  N  N386  1  0.31492917  0.88793427  0.60169155  1
  N  N387  1  0.80256255  0.22198853  0.58847005  1
  N  N388  1  0.81595768  0.55649928  0.58839910  1
  N  N389  1  0.80875347  0.89291307  0.59094597  1
  N  N390  1  0.19511740  0.10997460  0.08727771  1
  N  N391  1  0.18382438  0.44532310  0.10108650  1
  N  N392  1  0.17954343  0.77323242  0.09718794  1
  N  N393  1  0.67609070  0.11038257  0.10674014  1
  N  N394  1  0.68143656  0.44455174  0.10002914  1
  N  N395  1  0.68117188  0.77871595  0.10126817  1
  N  N396  1  0.18416828  0.22118539  0.89456934  1
  N  N397  1  0.18733677  0.55666184  0.90343582  1
  N  N398  1  0.18305048  0.88567318  0.90367306  1
  N  N399  1  0.69907682  0.22509293  0.91597209  1
  N  N400  1  0.69018126  0.55867480  0.90526330  1
  N  N401  1  0.68404557  0.88834276  0.90113579  1
  N  N402  1  0.30417446  0.10796346  0.41199246  1
  N  N403  1  0.30534288  0.44171898  0.40668795  1
  N  N404  1  0.30828472  0.77640279  0.40627613  1
  N  N405  1  0.81388953  0.11073046  0.39927833  1
  N  N406  1  0.81118358  0.44485835  0.41071319  1
  N  N407  1  0.80394302  0.77363851  0.40861554  1
  N  N408  1  0.44843172  0.27540805  0.41079259  1
  N  N409  1  0.43535210  0.61048934  0.40399014  1
  N  N410  1  0.44260188  0.94250402  0.41105575  1
  N  N411  1  0.94944213  0.27877857  0.40577094  1
  N  N412  1  0.92902275  0.61115818  0.39777492  1
  N  N413  1  0.93630086  0.94480901  0.40123874  1
  N  N414  1  0.06720595  0.05472366  0.89935913  1
  N  N415  1  0.06951715  0.38965692  0.90294908  1
  N  N416  1  0.06697856  0.72021429  0.90171530  1
  N  N417  1  0.56563933  0.05698383  0.90738529  1
  N  N418  1  0.56853709  0.39011611  0.89735308  1
  N  N419  1  0.56742620  0.72307295  0.90497381  1
  N  N420  1  0.05469922  0.27543978  0.08820019  1
  N  N421  1  0.05887793  0.61038760  0.09046866  1
  N  N422  1  0.06071838  0.94262536  0.09153431  1
  N  N423  1  0.55865229  0.28105017  0.09941722  1
  N  N424  1  0.56036799  0.61074858  0.10081954  1
  N  N425  1  0.57103319  0.94335180  0.10622229  1
  N  N426  1  0.44239852  0.05511355  0.59728610  1
  N  N427  1  0.44752046  0.38893417  0.58815020  1
  N  N428  1  0.43634008  0.72197248  0.60116228  1
  N  N429  1  0.94537841  0.05708757  0.59021853  1
  N  N430  1  0.93883080  0.39310154  0.59525421  1
  N  N431  1  0.94693219  0.72423466  0.58885857  1
  N  N432  1  0.17682874  0.11165181  0.39683161  1
  N  N433  1  0.17807018  0.44444742  0.39672732  1
  N  N434  1  0.18037312  0.77885515  0.40169456  1
  N  N435  1  0.68382906  0.11031345  0.40284322  1
  N  N436  1  0.68164525  0.44676143  0.40273533  1
  N  N437  1  0.67871917  0.77953802  0.39370661  1
  N  N438  1  0.31072351  0.22506720  0.90908253  1
  N  N439  1  0.31401028  0.55625183  0.90497885  1
  N  N440  1  0.31091807  0.88722751  0.90412497  1
  N  N441  1  0.82413770  0.22244081  0.89561229  1
  N  N442  1  0.81916075  0.55786708  0.89999743  1
  N  N443  1  0.81054880  0.88815280  0.90461763  1
  N  N444  1  0.32152974  0.11273616  0.11045592  1
  N  N445  1  0.31154705  0.44158146  0.09188086  1
  N  N446  1  0.30761540  0.77471705  0.09746987  1
  N  N447  1  0.80142211  0.10895347  0.08340307  1
  N  N448  1  0.81032496  0.44140224  0.09444627  1
  N  N449  1  0.80797503  0.77284421  0.08778911  1
  N  N450  1  0.17462337  0.22298111  0.59940332  1
  N  N451  1  0.19359982  0.55694593  0.59241363  1
  N  N452  1  0.18743246  0.89278059  0.59101708  1
  N  N453  1  0.67697477  0.22107092  0.60431642  1
  N  N454  1  0.68565088  0.55698566  0.59122098  1
  N  N455  1  0.68082733  0.88816369  0.60018496  1
  Cl  Cl456  1  0.25937775  0.05481933  0.61334258  1
  Cl  Cl457  1  0.26215362  0.38772932  0.61065755  1
  Cl  Cl458  1  0.25401008  0.71972859  0.62109362  1
  Cl  Cl459  1  0.75445525  0.05402813  0.61808969  1
  Cl  Cl460  1  0.75642079  0.38452250  0.62191914  1
  Cl  Cl461  1  0.76124575  0.72167344  0.60171618  1
  Cl  Cl462  1  0.24412327  0.27805436  0.11342249  1
  Cl  Cl463  1  0.24581351  0.61268233  0.12103735  1
  Cl  Cl464  1  0.25645929  0.93051459  0.09808444  1
  Cl  Cl465  1  0.74124487  0.26924853  0.10775994  1
  Cl  Cl466  1  0.74823747  0.61232834  0.10772861  1
  Cl  Cl467  1  0.74960677  0.95493560  0.12428572  1
  Cl  Cl468  1  0.25293311  0.05532467  0.88145107  1
  Cl  Cl469  1  0.25785834  0.38665776  0.87989960  1
  Cl  Cl470  1  0.25627372  0.72694997  0.88366064  1
  Cl  Cl471  1  0.75133649  0.06231082  0.89249244  1
  Cl  Cl472  1  0.75298635  0.38827988  0.88973729  1
  Cl  Cl473  1  0.75030020  0.71648728  0.87625409  1
  Cl  Cl474  1  0.26605134  0.27589025  0.38182524  1
  Cl  Cl475  1  0.23964057  0.61199508  0.38985309  1
  Cl  Cl476  1  0.25205764  0.94669927  0.37777515  1
  Cl  Cl477  1  0.76647202  0.27131357  0.39024854  1
  Cl  Cl478  1  0.74738688  0.61770970  0.37470806  1
  Cl  Cl479  1  0.75449564  0.94491022  0.38900449  1
  Cl  Cl480  1  -0.01716557  0.22804105  0.60719920  1
  Cl  Cl481  1  0.00857543  0.55629677  0.60419178  1
  Cl  Cl482  1  -0.00304697  0.88674470  0.61793949  1
  Cl  Cl483  1  0.49197852  0.21972019  0.62590867  1
  Cl  Cl484  1  0.50368462  0.54969300  0.61808559  1
  Cl  Cl485  1  0.49873821  0.88852834  0.62459282  1
  Cl  Cl486  1  -0.00467478  0.10855350  0.10236702  1
  Cl  Cl487  1  -0.00368805  0.44528848  0.11503875  1
  Cl  Cl488  1  -0.00561888  0.77683026  0.11879506  1
  Cl  Cl489  1  0.49986892  0.11230469  0.11887311  1
  Cl  Cl490  1  0.49794888  0.44330455  0.12530120  1
  Cl  Cl491  1  0.49417007  0.77851835  0.10992433  1
  Cl  Cl492  1  0.00255913  0.21303737  0.87055281  1
  Cl  Cl493  1  0.00267963  0.55529366  0.87392174  1
  Cl  Cl494  1  -0.00070754  0.88588425  0.88615813  1
  Cl  Cl495  1  0.51215575  0.22896773  0.90164321  1
  Cl  Cl496  1  0.50215995  0.55654255  0.88192972  1
  Cl  Cl497  1  0.49470258  0.89455966  0.89526674  1
  Cl  Cl498  1  -0.00466987  0.11433151  0.37057674  1
  Cl  Cl499  1  -0.00617180  0.44983793  0.37921279  1
  Cl  Cl500  1  -0.01071852  0.77780850  0.39080145  1
  Cl  Cl501  1  0.49149387  0.11193501  0.38245345  1
  Cl  Cl502  1  0.48970514  0.44204320  0.39544005  1
  Cl  Cl503  1  0.49285938  0.77759633  0.37880224  1
  Cl  Cl504  1  0.36185487  0.14883204  0.75287269  1
  Cl  Cl505  1  0.36323199  0.48012172  0.74520031  1
  Cl  Cl506  1  0.36284077  0.81463496  0.74948686  1
  Cl  Cl507  1  0.85994116  0.14853725  0.75515568  1
  Cl  Cl508  1  0.85986919  0.48482169  0.75311793  1
  Cl  Cl509  1  0.85731657  0.81650987  0.74871055  1
  Cl  Cl510  1  0.14111142  0.18502653  0.25628364  1
  Cl  Cl511  1  0.13654615  0.51808221  0.25023286  1
  Cl  Cl512  1  0.13922259  0.85520146  0.24876221  1
  Cl  Cl513  1  0.63251466  0.18967470  0.24264466  1
  Cl  Cl514  1  0.64096188  0.52192419  0.24836959  1
  Cl  Cl515  1  0.63394138  0.85589344  0.24990037  1
  Cl  Cl516  1  0.13788562  0.14570463  0.74662064  1
  Cl  Cl517  1  0.14043483  0.47926991  0.75018185  1
  Cl  Cl518  1  0.14046681  0.81366817  0.75116128  1
  Cl  Cl519  1  0.64417450  0.14738026  0.74932144  1
  Cl  Cl520  1  0.64004088  0.47937038  0.74866456  1
  Cl  Cl521  1  0.63817851  0.81245488  0.74519191  1
  Cl  Cl522  1  0.36111061  0.18642899  0.24380182  1
  Cl  Cl523  1  0.35775438  0.51774681  0.25202207  1
  Cl  Cl524  1  0.35779093  0.85519976  0.24478923  1
  Cl  Cl525  1  0.85368299  0.18560419  0.24673631  1
  Cl  Cl526  1  0.85887206  0.51918889  0.24905219  1
  Cl  Cl527  1  0.85621359  0.85275669  0.24792032  1
  Cl  Cl528  1  0.11190262  0.31219810  0.74334050  1
  Cl  Cl529  1  0.11354671  0.64827696  0.74648295  1
  Cl  Cl530  1  0.11344193  0.97987114  0.74889701  1
  Cl  Cl531  1  0.62007691  0.31090988  0.74787230  1
  Cl  Cl532  1  0.61131056  0.64834139  0.75148051  1
  Cl  Cl533  1  0.61192816  0.98040128  0.75903121  1
  Cl  Cl534  1  0.39133514  0.01923189  0.24359007  1
  Cl  Cl535  1  0.39641672  0.35025726  0.25450513  1
  Cl  Cl536  1  0.38808724  0.68498552  0.25127049  1
  Cl  Cl537  1  0.88775967  0.02023327  0.25064064  1
  Cl  Cl538  1  0.88501279  0.35213286  0.24253387  1
  Cl  Cl539  1  0.88984160  0.68801973  0.25286389  1
  Cl  Cl540  1  0.39833565  0.31395048  0.75226234  1
  Cl  Cl541  1  0.39194543  0.64787745  0.74718588  1
  Cl  Cl542  1  0.39130562  0.98098716  0.75753518  1
  Cl  Cl543  1  0.89103685  0.31467455  0.75783406  1
  Cl  Cl544  1  0.89384313  0.64981032  0.74914078  1
  Cl  Cl545  1  0.89169672  0.98284313  0.75149265  1
  Cl  Cl546  1  0.10813449  0.02211092  0.24772938  1
  Cl  Cl547  1  0.10817035  0.35096806  0.25135334  1
  Cl  Cl548  1  0.10883574  0.68705691  0.25447293  1
  Cl  Cl549  1  0.61227621  0.02171052  0.25016339  1
  Cl  Cl550  1  0.61753208  0.35679192  0.25567713  1
  Cl  Cl551  1  0.61213895  0.68958543  0.24620796  1
