# generated using pymatgen
data_H8PbC4(N3Cl2)2
_symmetry_space_group_name_H-M   'P 1'
_cell_length_a   16.62230432
_cell_length_b   22.50343059
_cell_length_c   21.58825804
_cell_angle_alpha   90.00067153
_cell_angle_beta   90.00984628
_cell_angle_gamma   89.99689088
_symmetry_Int_Tables_number   1
_chemical_formula_structural   H8PbC4(N3Cl2)2
_chemical_formula_sum   'H192 Pb24 C96 N144 Cl96'
_cell_volume   8075.27930686
_cell_formula_units_Z   24
loop_
 _symmetry_equiv_pos_site_id
 _symmetry_equiv_pos_as_xyz
  1  'x, y, z'
loop_
 _atom_site_type_symbol
 _atom_site_label
 _atom_site_symmetry_multiplicity
 _atom_site_fract_x
 _atom_site_fract_y
 _atom_site_fract_z
 _atom_site_occupancy
  H  H0  1  0.00334915  0.03300217  0.67932183  1
  H  H1  1  0.00328105  0.36436742  0.67751638  1
  H  H2  1  0.00537687  0.69971949  0.67954721  1
  H  H3  1  0.49983020  0.03235157  0.68039995  1
  H  H4  1  0.50175668  0.36461801  0.67861240  1
  H  H5  1  0.49576677  0.69658157  0.68191006  1
  H  H6  1  0.00291732  0.30095062  0.17736856  1
  H  H7  1  -0.00282180  0.63516232  0.18122315  1
  H  H8  1  -0.00115728  0.96933939  0.18199571  1
  H  H9  1  0.50269680  0.30140958  0.18022205  1
  H  H10  1  0.49658132  0.63551523  0.18311193  1
  H  H11  1  0.49278460  0.96855922  0.18004508  1
  H  H12  1  -0.00085868  0.03243775  0.82074604  1
  H  H13  1  0.01183083  0.36712207  0.82093390  1
  H  H14  1  -0.00249237  0.69684682  0.82051272  1
  H  H15  1  0.50635097  0.03180292  0.82172035  1
  H  H16  1  0.48717550  0.36742007  0.81959997  1
  H  H17  1  0.49952587  0.69773782  0.82217015  1
  H  H18  1  0.00494571  0.30294863  0.32145225  1
  H  H19  1  0.00586900  0.63595684  0.31933486  1
  H  H20  1  0.00841032  0.96773882  0.31980464  1
  H  H21  1  0.49680882  0.30338053  0.31929051  1
  H  H22  1  0.48873212  0.63498567  0.32312668  1
  H  H23  1  0.49136850  0.96760609  0.31825680  1
  H  H24  1  0.24547700  0.19876519  0.67954820  1
  H  H25  1  0.24435013  0.53106652  0.68149738  1
  H  H26  1  0.25509271  0.86573215  0.68219827  1
  H  H27  1  0.76109417  0.19819191  0.67971999  1
  H  H28  1  0.74978802  0.53075829  0.67931344  1
  H  H29  1  0.74853214  0.86442579  0.68134265  1
  H  H30  1  0.25007492  0.13574405  0.17723572  1
  H  H31  1  0.25006308  0.47579780  0.17640740  1
  H  H32  1  0.24770038  0.80190406  0.18032324  1
  H  H33  1  0.74327902  0.13288079  0.17959671  1
  H  H34  1  0.74164695  0.46732935  0.17550683  1
  H  H35  1  0.75882705  0.80074033  0.17970327  1
  H  H36  1  0.24633446  0.19783527  0.82208765  1
  H  H37  1  0.24999846  0.53451139  0.81929824  1
  H  H38  1  0.24095365  0.86423269  0.81883354  1
  H  H39  1  0.74336438  0.19960393  0.82137667  1
  H  H40  1  0.75426867  0.53166890  0.82008008  1
  H  H41  1  0.75825564  0.86528915  0.81793508  1
  H  H42  1  0.24618117  0.13471271  0.31869765  1
  H  H43  1  0.25680049  0.46778067  0.32098280  1
  H  H44  1  0.24544246  0.80181569  0.31736179  1
  H  H45  1  0.74570721  0.13642388  0.32375183  1
  H  H46  1  0.73854740  0.46551505  0.32488467  1
  H  H47  1  0.75308092  0.80234812  0.32054617  1
  H  H48  1  0.11084506  0.05636796  0.59767566  1
  H  H49  1  0.11979103  0.39003694  0.60237619  1
  H  H50  1  0.12022017  0.72437607  0.60066781  1
  H  H51  1  0.61491558  0.05575683  0.60275441  1
  H  H52  1  0.62389988  0.38822091  0.60630078  1
  H  H53  1  0.62162977  0.72087102  0.61132520  1
  H  H54  1  0.36736361  0.28064497  0.11925501  1
  H  H55  1  0.37347632  0.61331457  0.11128864  1
  H  H56  1  0.37638949  0.94277196  0.10354820  1
  H  H57  1  0.87039940  0.28044525  0.11398334  1
  H  H58  1  0.87666592  0.61097293  0.10604256  1
  H  H59  1  0.87561648  0.94755120  0.11071250  1
  H  H60  1  0.36763538  0.05059944  0.87630849  1
  H  H61  1  0.37758455  0.39315154  0.90351722  1
  H  H62  1  0.37908768  0.72114694  0.89514365  1
  H  H63  1  0.86635279  0.05489546  0.88424004  1
  H  H64  1  0.86962938  0.38334300  0.87129228  1
  H  H65  1  0.88201264  0.72223154  0.89889596  1
  H  H66  1  0.11795455  0.27559890  0.40110968  1
  H  H67  1  0.12135476  0.60870078  0.39714257  1
  H  H68  1  0.12730566  0.94488249  0.39525636  1
  H  H69  1  0.62389274  0.28241458  0.38760938  1
  H  H70  1  0.62528166  0.61397008  0.38077052  1
  H  H71  1  0.63010366  0.95053026  0.37401668  1
  H  H72  1  0.37907414  0.22091737  0.61925628  1
  H  H73  1  0.37843851  0.55072271  0.61762192  1
  H  H74  1  0.37008092  0.88874031  0.60355104  1
  H  H75  1  0.87629754  0.22487796  0.60235424  1
  H  H76  1  0.87154187  0.55439444  0.60548896  1
  H  H77  1  0.87300901  0.88625389  0.61208835  1
  H  H78  1  0.13300494  0.10998567  0.10158174  1
  H  H79  1  0.12484776  0.44532287  0.11000660  1
  H  H80  1  0.12298375  0.77725505  0.10799764  1
  H  H81  1  0.63845309  0.10844008  0.09579418  1
  H  H82  1  0.63231593  0.44124013  0.09371974  1
  H  H83  1  0.62084138  0.78352972  0.12237703  1
  H  H84  1  0.13273921  0.22600459  0.89967945  1
  H  H85  1  0.12435716  0.55306846  0.88774320  1
  H  H86  1  0.12861769  0.88801199  0.89966996  1
  H  H87  1  0.63762517  0.22496896  0.90614219  1
  H  H88  1  0.62766533  0.55174838  0.88668089  1
  H  H89  1  0.62337984  0.88330913  0.87646134  1
  H  H90  1  0.38214182  0.11403469  0.37933518  1
  H  H91  1  0.37540565  0.44516634  0.39757596  1
  H  H92  1  0.37848655  0.78151747  0.37795683  1
  H  H93  1  0.88386379  0.11819347  0.38129961  1
  H  H94  1  0.87887801  0.44998810  0.37634479  1
  H  H95  1  0.87439004  0.77907392  0.39497957  1
  H  H96  1  0.37481725  0.27842748  0.39356982  1
  H  H97  1  0.37873827  0.60782374  0.40424630  1
  H  H98  1  0.38303612  0.94329386  0.39904708  1
  H  H99  1  0.86991172  0.28205309  0.38110144  1
  H  H100  1  0.87268318  0.61458299  0.38028371  1
  H  H101  1  0.87830681  0.94845952  0.38296731  1
  H  H102  1  0.11370564  0.05883094  0.89991053  1
  H  H103  1  0.11467325  0.39160570  0.90610909  1
  H  H104  1  0.13055025  0.71821058  0.88228221  1
  H  H105  1  0.61311084  0.05891202  0.90507426  1
  H  H106  1  0.62390788  0.38403068  0.87967139  1
  H  H107  1  0.62784414  0.72083798  0.88950704  1
  H  H108  1  0.11813755  0.27617508  0.10064625  1
  H  H109  1  0.12587330  0.61358152  0.11386554  1
  H  H110  1  0.12569834  0.94501006  0.11282735  1
  H  H111  1  0.61617571  0.27825762  0.10114942  1
  H  H112  1  0.62263249  0.61259472  0.11227297  1
  H  H113  1  0.62472051  0.94794731  0.11523812  1
  H  H114  1  0.36607517  0.05414051  0.61770383  1
  H  H115  1  0.37488506  0.38709198  0.60961053  1
  H  H116  1  0.37327269  0.72046876  0.60773421  1
  H  H117  1  0.86445323  0.04980961  0.62444113  1
  H  H118  1  0.87156788  0.38503905  0.61327080  1
  H  H119  1  0.87201440  0.72006468  0.61819909  1
  H  H120  1  0.13463198  0.11048202  0.39906650  1
  H  H121  1  0.12671457  0.44516448  0.38751729  1
  H  H122  1  0.12969131  0.77965572  0.39445457  1
  H  H123  1  0.63833876  0.10635483  0.40521932  1
  H  H124  1  0.63463913  0.44250612  0.40847285  1
  H  H125  1  0.62588034  0.77991954  0.38993719  1
  H  H126  1  0.38039501  0.21873911  0.88407283  1
  H  H127  1  0.37352269  0.55404863  0.88977668  1
  H  H128  1  0.37643447  0.88509835  0.87996610  1
  H  H129  1  0.88322436  0.21825290  0.87501356  1
  H  H130  1  0.87698528  0.55503002  0.89133711  1
  H  H131  1  0.87132959  0.88804169  0.89697090  1
  H  H132  1  0.38103682  0.11444069  0.11217907  1
  H  H133  1  0.37339524  0.44607080  0.10720488  1
  H  H134  1  0.37160041  0.77916245  0.10711644  1
  H  H135  1  0.88441983  0.11834674  0.12685422  1
  H  H136  1  0.87841412  0.44775637  0.11787833  1
  H  H137  1  0.86607137  0.77397280  0.09489642  1
  H  H138  1  0.13096047  0.22483879  0.60062419  1
  H  H139  1  0.12997524  0.55565764  0.60276627  1
  H  H140  1  0.12131119  0.88587819  0.61806311  1
  H  H141  1  0.62810843  0.21935073  0.61665300  1
  H  H142  1  0.62340874  0.55166640  0.60869598  1
  H  H143  1  0.62403638  0.88614603  0.61316735  1
  H  H144  1  0.57954538  0.25398969  0.49770265  1
  H  H145  1  0.91154750  0.91759104  0.49616808  1
  H  H146  1  0.03998537  0.41739861  1.01086842  1
  H  H147  1  0.45160438  0.41773615  1.00359599  1
  H  H148  1  0.94673945  0.74780692  1.00239512  1
  H  H149  1  0.71321218  0.09003186  0.50743646  1
  H  H150  1  0.58521740  0.75091584  0.99525852  1
  H  H151  1  0.67410579  0.75223932  0.49541803  1
  H  H152  1  0.04166793  0.08165359  0.49034324  1
  H  H153  1  0.86413117  0.08263170  0.49105347  1
  H  H154  1  0.89799621  0.08337102  0.99288180  1
  H  H155  1  0.80911744  0.91335302  1.00567077  1
  H  H156  1  0.18006620  0.42891130  0.00279610  1
  H  H157  1  0.64900678  0.91281466  0.98984498  1
  H  H158  1  0.18849031  0.75507085  0.50427574  1
  H  H159  1  0.05866554  0.58609972  0.50100065  1
  H  H160  1  0.30673161  0.91344243  0.49613667  1
  H  H161  1  0.78989418  0.74660247  -0.00426489  1
  H  H162  1  0.55488742  0.08098570  0.49396081  1
  H  H163  1  0.31235501  0.43281663  0.00063242  1
  H  H164  1  0.19518846  0.09428780  -0.00304636  1
  H  H165  1  0.39951953  0.08101632  0.50999774  1
  H  H166  1  0.66809700  0.58221061  0.99890744  1
  H  H167  1  0.07825128  0.92293960  0.00550187  1
  H  H168  1  0.19705000  0.25055456  0.49752344  1
  H  H169  1  0.92528441  0.92432592  -0.00135462  1
  H  H170  1  0.19780600  0.91099654  1.00699205  1
  H  H171  1  0.17025756  0.41771581  0.49345355  1
  H  H172  1  0.54082884  0.08162630  1.00641858  1
  H  H173  1  0.19437051  0.58233626  0.49595175  1
  H  H174  1  0.90329258  0.25061813  0.00595720  1
  H  H175  1  0.42260017  0.58530595  0.00240405  1
  H  H176  1  0.34942251  0.75296745  0.49084242  1
  H  H177  1  0.05446875  0.75283129  0.49804699  1
  H  H178  1  0.45121391  0.91487291  0.50623219  1
  H  H179  1  0.05010716  0.24853349  0.50332742  1
  H  H180  1  0.34574330  0.08134213  0.00653725  1
  H  H181  1  0.71166995  0.25203957  1.00578016  1
  H  H182  1  0.90343580  0.58386609  0.49188585  1
  H  H183  1  0.85532931  0.41787228  0.00707369  1
  H  H184  1  0.90277652  0.41694805  0.50640037  1
  H  H185  1  0.71037988  0.08199647  -0.00961469  1
  H  H186  1  0.66969890  0.57848554  0.50371163  1
  H  H187  1  0.55388890  0.25176140  -0.00639144  1
  H  H188  1  0.08454417  0.58502700  0.00383790  1
  H  H189  1  0.66355350  0.91550075  0.50119960  1
  H  H190  1  0.39851698  0.25277174  0.01146287  1
  H  H191  1  0.20121950  0.08142946  0.50443754  1
  Pb  Pb192  1  0.24388211  0.04819942  0.75133174  1
  Pb  Pb193  1  0.25325042  0.38238297  0.75488463  1
  Pb  Pb194  1  0.24975761  0.71094808  0.74515037  1
  Pb  Pb195  1  0.74641353  0.04670087  0.74898319  1
  Pb  Pb196  1  0.74883093  0.37803447  0.74845649  1
  Pb  Pb197  1  0.74659720  0.71427324  0.75320470  1
  Pb  Pb198  1  0.25079696  0.28659210  0.25594240  1
  Pb  Pb199  1  0.25441794  0.61933787  0.25556803  1
  Pb  Pb200  1  0.24987178  0.95280442  0.25137650  1
  Pb  Pb201  1  0.74971466  0.28812574  0.24290791  1
  Pb  Pb202  1  0.74660945  0.61773503  0.24873597  1
  Pb  Pb203  1  0.75499586  0.95280030  0.24605550  1
  Pb  Pb204  1  0.00313294  0.21591336  0.74621673  1
  Pb  Pb205  1  -0.00223236  0.54706298  0.74332900  1
  Pb  Pb206  1  -0.00081840  0.87902546  0.75793386  1
  Pb  Pb207  1  0.50116544  0.21257655  0.75580569  1
  Pb  Pb208  1  0.50200837  0.54515364  0.75129098  1
  Pb  Pb209  1  0.49390756  0.88091178  0.74646152  1
  Pb  Pb210  1  0.00421779  0.12190370  0.25048829  1
  Pb  Pb211  1  0.00191578  0.45353080  0.25209453  1
  Pb  Pb212  1  -0.00038597  0.78171078  0.25016607  1
  Pb  Pb213  1  0.50616797  0.11862981  0.24970900  1
  Pb  Pb214  1  0.50034036  0.45412972  0.24795683  1
  Pb  Pb215  1  0.50111020  0.78872550  0.24612615  1
  C  C216  1  -0.00730774  0.04617307  0.63154228  1
  C  C217  1  -0.00228405  0.38000012  0.63020997  1
  C  C218  1  -0.00056060  0.71412376  0.63196925  1
  C  C219  1  0.49289125  0.04720236  0.63274230  1
  C  C220  1  0.49991982  0.37999095  0.63123198  1
  C  C221  1  0.49687805  0.71205931  0.63430914  1
  C  C222  1  -0.00339528  0.28583542  0.12995627  1
  C  C223  1  -0.00018503  0.62007711  0.13357769  1
  C  C224  1  0.00061536  0.95382647  0.13429621  1
  C  C225  1  0.49472827  0.28613295  0.13284434  1
  C  C226  1  0.49781990  0.62051790  0.13537297  1
  C  C227  1  0.49832968  0.95350654  0.13272937  1
  C  C228  1  -0.00746816  0.04789659  0.86808885  1
  C  C229  1  -0.00130003  0.38068397  0.86817557  1
  C  C230  1  0.00298206  0.71190981  0.86793225  1
  C  C231  1  0.49587077  0.04611714  0.86908628  1
  C  C232  1  0.49571803  0.38104352  0.86737189  1
  C  C233  1  0.50261893  0.71321493  0.86958362  1
  C  C234  1  -0.00211273  0.28771604  0.36871527  1
  C  C235  1  0.00027441  0.62056799  0.36693086  1
  C  C236  1  0.00408144  0.95340447  0.36759471  1
  C  C237  1  0.49824352  0.28802484  0.36683761  1
  C  C238  1  0.49786706  0.61937693  0.36991488  1
  C  C239  1  0.50133090  0.95365576  0.36569074  1
  C  C240  1  0.25154752  0.21344538  0.63206328  1
  C  C241  1  0.25114668  0.54587551  0.63397637  1
  C  C242  1  0.24847851  0.88046402  0.63460955  1
  C  C243  1  0.75488900  0.21367179  0.63262697  1
  C  C244  1  0.74801242  0.54558624  0.63149469  1
  C  C245  1  0.74802752  0.87926565  0.63363949  1
  C  C246  1  0.25492015  0.12003162  0.12972680  1
  C  C247  1  0.24934770  0.45739511  0.12980581  1
  C  C248  1  0.24712366  0.78655143  0.13271388  1
  C  C249  1  0.75535742  0.11997384  0.13206231  1
  C  C250  1  0.75133429  0.45259818  0.12826049  1
  C  C251  1  0.74887141  0.78629864  0.13231628  1
  C  C252  1  0.25365281  0.21382405  0.86890803  1
  C  C253  1  0.24928583  0.54715172  0.86769487  1
  C  C254  1  0.24876377  0.87963393  0.86607416  1
  C  C255  1  0.75452004  0.21367255  0.86872296  1
  C  C256  1  0.75236093  0.54643901  0.86776104  1
  C  C257  1  0.75064766  0.87954921  0.86564292  1
  C  C258  1  0.25480701  0.12003452  0.36616719  1
  C  C259  1  0.25257232  0.45262471  0.36853243  1
  C  C260  1  0.25153049  0.78723782  0.36511214  1
  C  C261  1  0.75637372  0.12060468  0.37078649  1
  C  C262  1  0.75106893  0.45253067  0.37225119  1
  C  C263  1  0.75092165  0.78704387  0.36819815  1
  C  C264  1  0.79102815  0.57365054  0.96133920  1
  C  C265  1  0.78188835  0.24386595  0.53840971  1
  C  C266  1  0.94474449  0.74142548  0.54226021  1
  C  C267  1  0.48192687  0.92653875  0.46337842  1
  C  C268  1  0.22655076  0.57233854  0.53860903  1
  C  C269  1  0.74013959  0.09378416  0.03370571  1
  C  C270  1  0.53882085  0.26262598  0.45918412  1
  C  C271  1  0.93191355  0.40343112  0.95345177  1
  C  C272  1  0.70944840  0.57258414  0.96126962  1
  C  C273  1  0.53439933  0.40938376  0.53875753  1
  C  C274  1  0.01095224  0.07070785  0.53340659  1
  C  C275  1  0.52223116  0.07201991  0.53665466  1
  C  C276  1  0.02722961  0.25667467  0.03426221  1
  C  C277  1  0.56269265  0.92933356  0.45298765  1
  C  C278  1  0.94748947  0.59356423  0.45602545  1
  C  C279  1  0.28872960  0.56971606  0.96198645  1
  C  C280  1  0.52208468  0.26052655  0.03668924  1
  C  C281  1  0.73521068  0.42731441  0.46888792  1
  C  C282  1  0.46976732  0.92366185  0.03872479  1
  C  C283  1  0.81449650  0.43000028  0.45825905  1
  C  C284  1  0.94148142  0.25858950  0.45707661  1
  C  C285  1  0.03775283  0.92701924  0.46252357  1
  C  C286  1  0.47729408  0.58861525  0.46478879  1
  C  C287  1  0.46196750  0.59512014  0.04188195  1
  C  C288  1  0.20679420  0.56929908  0.96133777  1
  C  C289  1  0.96110378  0.92886464  0.04049241  1
  C  C290  1  0.69517846  0.90350987  0.95542454  1
  C  C291  1  0.27383202  0.90479127  0.53882533  1
  C  C292  1  0.02945821  0.40998548  0.53488393  1
  C  C293  1  0.81765372  0.23841525  0.95529813  1
  C  C294  1  0.72822838  0.42361443  0.03131123  1
  C  C295  1  0.30410864  0.76295982  0.45583184  1
  C  C296  1  0.95631960  0.92759124  0.45986483  1
  C  C297  1  0.23266104  0.09295237  0.46181089  1
  C  C298  1  0.82027853  0.09751989  0.04584217  1
  C  C299  1  0.46543228  0.74297780  0.96349538  1
  C  C300  1  0.22227874  0.76324322  0.46195311  1
  C  C301  1  0.22823951  0.24488391  0.96318931  1
  C  C302  1  0.04190626  0.59502660  0.04162537  1
  C  C303  1  0.01165198  0.40628784  0.96686334  1
  C  C304  1  0.22723324  0.90427513  0.96251141  1
  C  C305  1  0.92986502  0.06781917  0.54320719  1
  C  C306  1  0.70730607  0.90540691  0.53924534  1
  C  C307  1  0.05664909  0.74069127  0.95734098  1
  C  C308  1  0.43382864  0.06963149  0.95649870  1
  C  C309  1  0.30632229  0.24278515  0.54328239  1
  C  C310  1  0.77671095  0.90433350  0.96286677  1
  C  C311  1  0.78900987  0.90526977  0.54030089  1
  N  N312  1  0.28875728  0.41858344  0.04222297  1
  N  N313  1  0.53722130  0.74000007  0.54153243  1
  N  N314  1  0.22776531  0.24255816  0.53792988  1
  N  N315  1  0.02340343  0.74212995  0.53747442  1
  N  N316  1  0.22449453  0.08703031  0.03821416  1
  N  N317  1  0.30278412  0.09805128  0.03938721  1
  N  N318  1  0.47786289  0.40551708  0.96257057  1
  N  N319  1  0.44304095  0.26058492  0.04418576  1
  N  N320  1  0.70434919  0.24178962  0.54146459  1
  N  N321  1  0.95071312  0.40758865  0.54032768  1
  N  N322  1  0.20760970  0.41709772  0.04371648  1
  N  N323  1  0.31146700  0.09470410  0.45543195  1
  N  N324  1  0.30543195  0.57154895  0.54371204  1
  N  N325  1  0.54135710  0.59433399  0.04193800  1
  N  N326  1  0.02009278  0.25732865  0.46271042  1
  N  N327  1  0.68712598  0.76266285  0.04538095  1
  N  N328  1  0.78976835  0.76184605  0.46253496  1
  N  N329  1  0.30581216  0.90541609  0.95527478  1
  N  N330  1  0.55515931  0.40240515  0.95592980  1
  N  N331  1  0.19482735  0.90443891  0.54376021  1
  N  N332  1  0.97796254  0.74067976  0.96202765  1
  N  N333  1  0.02215955  0.07514532  0.96347171  1
  N  N334  1  0.94447666  0.07375036  0.95709601  1
  N  N335  1  0.78746356  0.57206795  0.53776001  1
  N  N336  1  0.54707645  0.92601519  0.04096752  1
  N  N337  1  0.81468598  0.09756101  0.45745592  1
  N  N338  1  0.80614676  0.42643349  0.04037450  1
  N  N339  1  0.51206103  0.07307883  0.96513401  1
  N  N340  1  0.45968384  0.26023415  0.46128669  1
  N  N341  1  0.30560138  0.24207655  0.95928421  1
  N  N342  1  0.20881880  0.75891925  0.03927848  1
  N  N343  1  0.45707593  0.40871798  0.53829722  1
  N  N344  1  0.28493658  0.75930283  0.03903109  1
  N  N345  1  0.96263314  0.59394412  0.03841663  1
  N  N346  1  0.70903165  0.57103804  0.54002781  1
  N  N347  1  0.02692383  0.59076954  0.46054672  1
  N  N348  1  0.44308760  0.07204248  0.54321397  1
  N  N349  1  0.76436468  0.75958127  0.03729240  1
  N  N350  1  0.94869556  0.25875245  0.04021553  1
  N  N351  1  0.73730599  0.08626895  0.46356559  1
  N  N352  1  0.73964331  0.24057998  0.96487473  1
  N  N353  1  0.04057491  0.92560749  0.04285205  1
  N  N354  1  0.46061658  0.73986098  0.54049103  1
  N  N355  1  0.54449556  0.74172219  0.96043286  1
  N  N356  1  0.55444212  0.59065381  0.45866178  1
  N  N357  1  0.28767547  0.42671961  0.46338103  1
  N  N358  1  0.20988297  0.42697793  0.45835127  1
  N  N359  1  0.71169418  0.76308484  0.45965498  1
  N  N360  1  0.04901392  0.05719166  0.58925309  1
  N  N361  1  0.05892187  0.39293100  0.59077781  1
  N  N362  1  0.05841073  0.72437431  0.59231397  1
  N  N363  1  0.55341894  0.05671645  0.59222282  1
  N  N364  1  0.56360515  0.39185153  0.59452361  1
  N  N365  1  0.56089551  0.72274662  0.59954435  1
  N  N366  1  0.42641230  0.27622986  0.10344567  1
  N  N367  1  0.43391872  0.61087925  0.09891220  1
  N  N368  1  0.43735268  0.94049948  0.09356051  1
  N  N369  1  0.92921590  0.27660098  0.09918039  1
  N  N370  1  0.93811523  0.60942084  0.09623290  1
  N  N371  1  0.93591979  0.94445520  0.09763793  1
  N  N372  1  0.42352206  0.05435560  0.89664968  1
  N  N373  1  0.43966162  0.39229900  0.90921090  1
  N  N374  1  0.43930220  0.72511701  0.90753615  1
  N  N375  1  0.92530094  0.05674934  0.89938687  1
  N  N376  1  0.92469498  0.38825555  0.89335622  1
  N  N377  1  0.94374427  0.72142129  0.90756868  1
  N  N378  1  0.05598474  0.27688214  0.40904591  1
  N  N379  1  0.05947225  0.61027009  0.40645735  1
  N  N380  1  0.06655379  0.94249447  0.40685120  1
  N  N381  1  0.56407363  0.27894846  0.40143435  1
  N  N382  1  0.56712723  0.61012736  0.39798163  1
  N  N383  1  0.57350518  0.94547303  0.39386901  1
  N  N384  1  0.32136632  0.22508712  0.60161396  1
  N  N385  1  0.31893889  0.55503550  0.60305978  1
  N  N386  1  0.30840818  0.89070721  0.59433689  1
  N  N387  1  0.81527018  0.22667177  0.59295447  1
  N  N388  1  0.81087552  0.55636514  0.59492502  1
  N  N389  1  0.81332148  0.88976132  0.59728922  1
  N  N390  1  0.19438551  0.11080794  0.09100564  1
  N  N391  1  0.18508399  0.44488679  0.09620734  1
  N  N392  1  0.18371976  0.77576127  0.09732409  1
  N  N393  1  0.70051507  0.10833021  0.08871449  1
  N  N394  1  0.69368905  0.43979277  0.08558485  1
  N  N395  1  0.67814270  0.77894044  0.10461511  1
  N  N396  1  0.19416007  0.22785164  0.90901339  1
  N  N397  1  0.18367334  0.55573596  0.90339897  1
  N  N398  1  0.19031162  0.88965853  0.90772147  1
  N  N399  1  0.69998399  0.22420275  0.91167830  1
  N  N400  1  0.68661780  0.55567368  0.90182634  1
  N  N401  1  0.68067716  0.88838545  0.89498727  1
  N  N402  1  0.32366834  0.11149721  0.39545595  1
  N  N403  1  0.31402347  0.44251743  0.40694076  1
  N  N404  1  0.32062332  0.77767666  0.39550168  1
  N  N405  1  0.82650604  0.11057550  0.39781260  1
  N  N406  1  0.82395967  0.44530933  0.39831313  1
  N  N407  1  0.81362437  0.77736903  0.40529767  1
  N  N408  1  0.43597539  0.27641185  0.40326723  1
  N  N409  1  0.44013767  0.60608855  0.41187317  1
  N  N410  1  0.44467571  0.94198312  0.40775590  1
  N  N411  1  0.92759724  0.27703228  0.39876765  1
  N  N412  1  0.93090122  0.61054306  0.39749253  1
  N  N413  1  0.93671560  0.94414058  0.39956009  1
  N  N414  1  0.05166211  0.05940044  0.90794838  1
  N  N415  1  0.05273686  0.39168210  0.91233879  1
  N  N416  1  0.07238350  0.72327694  0.89904567  1
  N  N417  1  0.55110146  0.05671107  0.91155939  1
  N  N418  1  0.56573125  0.38766200  0.89652699  1
  N  N419  1  0.56807257  0.72301962  0.90263441  1
  N  N420  1  0.05725661  0.27366301  0.08969782  1
  N  N421  1  0.06616182  0.61077691  0.09973619  1
  N  N422  1  0.06495889  0.94346259  0.10015108  1
  N  N423  1  0.55456317  0.27572093  0.09185855  1
  N  N424  1  0.56190477  0.61007955  0.10057931  1
  N  N425  1  0.56516990  0.94474864  0.10101359  1
  N  N426  1  0.42518289  0.05680257  0.60235153  1
  N  N427  1  0.43524386  0.39023052  0.59723950  1
  N  N428  1  0.43432273  0.72257753  0.59779721  1
  N  N429  1  0.92022897  0.05286904  0.60361179  1
  N  N430  1  0.93094475  0.38930313  0.59879861  1
  N  N431  1  0.92963469  0.72418025  0.60075783  1
  N  N432  1  0.19653214  0.10837783  0.40741837  1
  N  N433  1  0.18678843  0.44236785  0.40103094  1
  N  N434  1  0.19085424  0.77811900  0.40501967  1
  N  N435  1  0.70052103  0.10966560  0.41306035  1
  N  N436  1  0.69612783  0.44089095  0.41675603  1
  N  N437  1  0.68643211  0.77721252  0.40247764  1
  N  N438  1  0.32158907  0.22266999  0.89910061  1
  N  N439  1  0.31369655  0.55648102  0.90438510  1
  N  N440  1  0.31736112  0.88993578  0.89547661  1
  N  N441  1  0.82716505  0.22234140  0.89551217  1
  N  N442  1  0.81685571  0.55790991  0.90496799  1
  N  N443  1  0.81012496  0.88960327  0.90643784  1
  N  N444  1  0.32180738  0.10892780  0.09854630  1
  N  N445  1  0.31273391  0.44635015  0.09461378  1
  N  N446  1  0.31038023  0.77649132  0.09681390  1
  N  N447  1  0.82879021  0.11325271  0.10569167  1
  N  N448  1  0.82078133  0.44448277  0.10007510  1
  N  N449  1  0.80354505  0.77415828  0.08978505  1
  N  N450  1  0.19271139  0.22261465  0.59190856  1
  N  N451  1  0.19146672  0.55709765  0.59375472  1
  N  N452  1  0.18092397  0.88954063  0.60344761  1
  N  N453  1  0.68754964  0.22293828  0.60170806  1
  N  N454  1  0.68407076  0.55477617  0.59659154  1
  N  N455  1  0.68326787  0.88925179  0.59879992  1
  Cl  Cl456  1  0.23752697  0.05667602  0.61590085  1
  Cl  Cl457  1  0.24386663  0.38412317  0.62079002  1
  Cl  Cl458  1  0.24477940  0.72266876  0.60905153  1
  Cl  Cl459  1  0.73537604  0.06171145  0.61076498  1
  Cl  Cl460  1  0.74826100  0.38425051  0.61694494  1
  Cl  Cl461  1  0.74460071  0.72087819  0.61949550  1
  Cl  Cl462  1  0.24286186  0.28040857  0.12300142  1
  Cl  Cl463  1  0.24988405  0.61101741  0.12389900  1
  Cl  Cl464  1  0.24872722  0.94633734  0.11429059  1
  Cl  Cl465  1  0.73988607  0.27817238  0.10305768  1
  Cl  Cl466  1  0.75032442  0.61268613  0.11478693  1
  Cl  Cl467  1  0.75242480  0.94598164  0.11247119  1
  Cl  Cl468  1  0.23658365  0.06053215  0.89158669  1
  Cl  Cl469  1  0.25027371  0.39660930  0.90142811  1
  Cl  Cl470  1  0.25461386  0.71418865  0.87401876  1
  Cl  Cl471  1  0.73838285  0.05805914  0.88362004  1
  Cl  Cl472  1  0.74544984  0.38314352  0.88156801  1
  Cl  Cl473  1  0.75874207  0.72397637  0.89593747  1
  Cl  Cl474  1  0.24119034  0.27467667  0.39632922  1
  Cl  Cl475  1  0.24523366  0.60829425  0.39104358  1
  Cl  Cl476  1  0.25548047  0.94572690  0.38462774  1
  Cl  Cl477  1  0.74664794  0.28137706  0.37307342  1
  Cl  Cl478  1  0.74898523  0.61269396  0.38231501  1
  Cl  Cl479  1  0.75407182  0.95084658  0.37707736  1
  Cl  Cl480  1  0.00784825  0.22817571  0.60522659  1
  Cl  Cl481  1  0.00322475  0.55718666  0.60258989  1
  Cl  Cl482  1  -0.00345498  0.88272317  0.62534379  1
  Cl  Cl483  1  0.50406121  0.21708963  0.62442908  1
  Cl  Cl484  1  0.50354538  0.54958678  0.61809565  1
  Cl  Cl485  1  0.49306968  0.88934565  0.61228945  1
  Cl  Cl486  1  0.01206118  0.11487263  0.11857117  1
  Cl  Cl487  1  0.00511438  0.44387786  0.11727897  1
  Cl  Cl488  1  -0.01110630  0.77523817  0.10493314  1
  Cl  Cl489  1  0.51039240  0.10937088  0.10590701  1
  Cl  Cl490  1  0.49656157  0.44107119  0.10710267  1
  Cl  Cl491  1  0.49548086  0.77944899  0.11051711  1
  Cl  Cl492  1  0.00917783  0.22136811  0.88003286  1
  Cl  Cl493  1  0.00040392  0.55347997  0.87431514  1
  Cl  Cl494  1  0.00191981  0.88952951  0.89586726  1
  Cl  Cl495  1  0.51257174  0.22093273  0.89291578  1
  Cl  Cl496  1  0.49803564  0.55262289  0.88318942  1
  Cl  Cl497  1  0.49933315  0.88128776  0.87673863  1
  Cl  Cl498  1  0.01136362  0.11603525  0.38607868  1
  Cl  Cl499  1  0.00736711  0.44538682  0.38501121  1
  Cl  Cl500  1  0.00383740  0.77661587  0.38972985  1
  Cl  Cl501  1  0.51601000  0.10765594  0.38707894  1
  Cl  Cl502  1  0.50166463  0.44791970  0.37943320  1
  Cl  Cl503  1  0.50541799  0.78258012  0.37659412  1
  Cl  Cl504  1  0.36396618  0.14396238  0.75266940  1
  Cl  Cl505  1  0.36015307  0.47557512  0.74843911  1
  Cl  Cl506  1  0.35967508  0.81246133  0.75106912  1
  Cl  Cl507  1  0.86274544  0.14377510  0.75205157  1
  Cl  Cl508  1  0.86200740  0.47789586  0.74945329  1
  Cl  Cl509  1  0.86209498  0.81222807  0.75106246  1
  Cl  Cl510  1  0.14284962  0.18546986  0.25003147  1
  Cl  Cl511  1  0.13703596  0.52173830  0.25317854  1
  Cl  Cl512  1  0.13925557  0.85636453  0.24767578  1
  Cl  Cl513  1  0.64274604  0.18511184  0.24797548  1
  Cl  Cl514  1  0.64223991  0.51954210  0.24774018  1
  Cl  Cl515  1  0.63782471  0.85612366  0.24646243  1
  Cl  Cl516  1  0.13999505  0.14643528  0.75213631  1
  Cl  Cl517  1  0.13732429  0.47824045  0.74983361  1
  Cl  Cl518  1  0.13677948  0.81170239  0.74797278  1
  Cl  Cl519  1  0.63831163  0.14697483  0.74814017  1
  Cl  Cl520  1  0.63836294  0.47795523  0.75207321  1
  Cl  Cl521  1  0.63977188  0.81003362  0.75327837  1
  Cl  Cl522  1  0.36493285  0.18781549  0.24999183  1
  Cl  Cl523  1  0.35784005  0.51973547  0.24879896  1
  Cl  Cl524  1  0.36353598  0.85463139  0.25091551  1
  Cl  Cl525  1  0.86434978  0.18862626  0.24763390  1
  Cl  Cl526  1  0.86700442  0.52221787  0.25136637  1
  Cl  Cl527  1  0.85691562  0.85466048  0.24918197  1
  Cl  Cl528  1  0.10596849  0.31223359  0.74879652  1
  Cl  Cl529  1  0.11043393  0.64541838  0.74872923  1
  Cl  Cl530  1  0.10886003  0.98064672  0.75231774  1
  Cl  Cl531  1  0.61181939  0.31218502  0.75416292  1
  Cl  Cl532  1  0.61340493  0.64494486  0.75183498  1
  Cl  Cl533  1  0.60893189  0.97945762  0.75057565  1
  Cl  Cl534  1  0.38922635  0.02278286  0.24966398  1
  Cl  Cl535  1  0.38594521  0.35514971  0.24528159  1
  Cl  Cl536  1  0.39004481  0.68764064  0.25248713  1
  Cl  Cl537  1  0.88949571  0.02278385  0.24883948  1
  Cl  Cl538  1  0.88809440  0.35428457  0.24867849  1
  Cl  Cl539  1  0.89104088  0.69005030  0.25122630  1
  Cl  Cl540  1  0.38754556  0.31198515  0.75059728  1
  Cl  Cl541  1  0.38887461  0.64450778  0.74806470  1
  Cl  Cl542  1  0.38677100  0.97815790  0.75269339  1
  Cl  Cl543  1  0.88657360  0.31057867  0.75446247  1
  Cl  Cl544  1  0.88802741  0.64386929  0.74481232  1
  Cl  Cl545  1  0.88485120  0.97844993  0.74890241  1
  Cl  Cl546  1  0.11231105  0.01977239  0.24905514  1
  Cl  Cl547  1  0.11208618  0.35293706  0.25005691  1
  Cl  Cl548  1  0.10766937  0.69010835  0.25118451  1
  Cl  Cl549  1  0.61142271  0.02164878  0.24940930  1
  Cl  Cl550  1  0.60919511  0.35211874  0.24521196  1
  Cl  Cl551  1  0.61405821  0.68841452  0.24752844  1
