# generated using pymatgen
data_H8PbC4(N3Cl2)2
_symmetry_space_group_name_H-M   'P 1'
_cell_length_a   16.62202814
_cell_length_b   22.52472158
_cell_length_c   21.59900454
_cell_angle_alpha   89.99850236
_cell_angle_beta   89.98420377
_cell_angle_gamma   90.00643719
_symmetry_Int_Tables_number   1
_chemical_formula_structural   H8PbC4(N3Cl2)2
_chemical_formula_sum   'H192 Pb24 C96 N144 Cl96'
_cell_volume   8086.80853797
_cell_formula_units_Z   24
loop_
 _symmetry_equiv_pos_site_id
 _symmetry_equiv_pos_as_xyz
  1  'x, y, z'
loop_
 _atom_site_type_symbol
 _atom_site_label
 _atom_site_symmetry_multiplicity
 _atom_site_fract_x
 _atom_site_fract_y
 _atom_site_fract_z
 _atom_site_occupancy
  H  H0  1  0.01188920  0.03182445  0.67706818  1
  H  H1  1  0.02335329  0.36004453  0.67137294  1
  H  H2  1  -0.01195118  0.69284651  0.67241149  1
  H  H3  1  0.49166980  0.03084896  0.68118674  1
  H  H4  1  0.47637473  0.36162255  0.67316666  1
  H  H5  1  0.50833549  0.69372540  0.67752559  1
  H  H6  1  -0.00112371  0.30753438  0.18031010  1
  H  H7  1  0.00740515  0.64010985  0.17764765  1
  H  H8  1  0.00138028  0.97676337  0.17459621  1
  H  H9  1  0.49776316  0.30802518  0.17650698  1
  H  H10  1  0.50214445  0.64060742  0.17811207  1
  H  H11  1  0.48568464  0.97387996  0.17832877  1
  H  H12  1  -0.00275702  0.02671699  0.82085778  1
  H  H13  1  -0.01310556  0.35857778  0.82681088  1
  H  H14  1  0.00238161  0.69732001  0.82487173  1
  H  H15  1  0.50176942  0.02972781  0.82905552  1
  H  H16  1  0.50472390  0.36052459  0.82140709  1
  H  H17  1  0.51035255  0.69240119  0.81859109  1
  H  H18  1  -0.00269768  0.30316360  0.32277094  1
  H  H19  1  -0.00371227  0.63213288  0.32570675  1
  H  H20  1  0.00288000  0.97298798  0.32533683  1
  H  H21  1  0.49181443  0.30389871  0.31706423  1
  H  H22  1  0.49770018  0.64052299  0.32211730  1
  H  H23  1  0.49525006  0.96729876  0.32329012  1
  H  H24  1  0.26599821  0.19528258  0.67757462  1
  H  H25  1  0.26504567  0.53290919  0.67787475  1
  H  H26  1  0.25406790  0.86409216  0.67637384  1
  H  H27  1  0.74241376  0.19045135  0.67847181  1
  H  H28  1  0.73447404  0.52706492  0.67437900  1
  H  H29  1  0.75153673  0.86173725  0.67886561  1
  H  H30  1  0.23068423  0.13439307  0.17474317  1
  H  H31  1  0.24252677  0.47206759  0.18113443  1
  H  H32  1  0.25089660  0.80341443  0.17810475  1
  H  H33  1  0.76562858  0.13646433  0.17500660  1
  H  H34  1  0.74249772  0.47306178  0.17701779  1
  H  H35  1  0.74415026  0.80860326  0.17482738  1
  H  H36  1  0.24083866  0.19582445  0.82041051  1
  H  H37  1  0.23978014  0.52340225  0.82012033  1
  H  H38  1  0.25268582  0.85980620  0.82571476  1
  H  H39  1  0.75047992  0.19404196  0.81860508  1
  H  H40  1  0.75693905  0.53121148  0.82050381  1
  H  H41  1  0.75297255  0.86247364  0.82549287  1
  H  H42  1  0.26021683  0.13908590  0.32299702  1
  H  H43  1  0.25251751  0.48618601  0.32452400  1
  H  H44  1  0.25926912  0.80399360  0.32219682  1
  H  H45  1  0.73741068  0.13962623  0.32469025  1
  H  H46  1  0.75150166  0.46745741  0.32511101  1
  H  H47  1  0.74881499  0.80317185  0.31835429  1
  H  H48  1  0.12212973  0.05991376  0.59497639  1
  H  H49  1  0.11044608  0.40161276  0.58135261  1
  H  H50  1  0.12776078  0.71546530  0.62070457  1
  H  H51  1  0.62874257  0.04905339  0.62130497  1
  H  H52  1  0.62499106  0.37950827  0.63639068  1
  H  H53  1  0.63329020  0.71937909  0.60671157  1
  H  H54  1  0.36889479  0.27722760  0.11221867  1
  H  H55  1  0.36913027  0.61858255  0.11873948  1
  H  H56  1  0.38099201  0.94016533  0.09616760  1
  H  H57  1  0.87198874  0.28316787  0.11039799  1
  H  H58  1  0.86578451  0.61631543  0.12897075  1
  H  H59  1  0.88018913  0.94646326  0.10400847  1
  H  H60  1  0.37452907  0.04949981  0.89753688  1
  H  H61  1  0.37586125  0.38625126  0.88582871  1
  H  H62  1  0.37515786  0.71717008  0.87906832  1
  H  H63  1  0.87621780  0.05391539  0.89550627  1
  H  H64  1  0.88037453  0.39209323  0.90839280  1
  H  H65  1  0.86786910  0.72188516  0.88395015  1
  H  H66  1  0.12766135  0.27628674  0.38531206  1
  H  H67  1  0.11942478  0.61131581  0.39528207  1
  H  H68  1  0.10936189  0.94127809  0.40683112  1
  H  H69  1  0.63006779  0.28586065  0.37132912  1
  H  H70  1  0.62060054  0.61060661  0.39243425  1
  H  H71  1  0.60541758  0.94353075  0.40400748  1
  H  H72  1  0.36672094  0.22705060  0.59103013  1
  H  H73  1  0.37055010  0.56034271  0.59431504  1
  H  H74  1  0.38998614  0.88322982  0.61921585  1
  H  H75  1  0.86885010  0.22059709  0.61065186  1
  H  H76  1  0.87902772  0.54945358  0.62922900  1
  H  H77  1  0.88666115  0.88526515  0.61914285  1
  H  H78  1  0.13297087  0.10442117  0.08528610  1
  H  H79  1  0.12134105  0.44718185  0.10819521  1
  H  H80  1  0.13574874  0.77817185  0.10122962  1
  H  H81  1  0.62406198  0.11692564  0.12599257  1
  H  H82  1  0.62425292  0.44508205  0.10294003  1
  H  H83  1  0.63841150  0.77419033  0.09315149  1
  H  H84  1  0.12939940  0.22301024  0.90018859  1
  H  H85  1  0.13519129  0.55580106  0.90326143  1
  H  H86  1  0.11684653  0.88347180  0.88347148  1
  H  H87  1  0.62905488  0.21964996  0.88917798  1
  H  H88  1  0.63162178  0.55279230  0.88904999  1
  H  H89  1  0.62039456  0.88264647  0.88507890  1
  H  H90  1  0.36974375  0.10663486  0.40333083  1
  H  H91  1  0.37452413  0.44707860  0.38939079  1
  H  H92  1  0.36817020  0.77506595  0.40291699  1
  H  H93  1  0.87516630  0.11847021  0.37960353  1
  H  H94  1  0.87529284  0.44474296  0.39558539  1
  H  H95  1  0.86503045  0.77486000  0.39576073  1
  H  H96  1  0.38357026  0.27350348  0.39697520  1
  H  H97  1  0.37172120  0.61347869  0.38864167  1
  H  H98  1  0.35784133  0.94825447  0.37871037  1
  H  H99  1  0.87896689  0.27632110  0.39751963  1
  H  H100  1  0.87097623  0.61027948  0.39370178  1
  H  H101  1  0.86358919  0.95062225  0.37825945  1
  H  H102  1  0.12483837  0.05178814  0.88925679  1
  H  H103  1  0.12617972  0.38307856  0.87918975  1
  H  H104  1  0.11503327  0.72280300  0.90467312  1
  H  H105  1  0.62271319  0.06010260  0.89943769  1
  H  H106  1  0.62468314  0.38836956  0.89619494  1
  H  H107  1  0.62190717  0.72226605  0.89968408  1
  H  H108  1  0.12033821  0.27660819  0.10807421  1
  H  H109  1  0.10998495  0.60796499  0.09291534  1
  H  H110  1  0.12926470  0.94847772  0.11010473  1
  H  H111  1  0.61688195  0.27867486  0.10279324  1
  H  H112  1  0.61722228  0.61212258  0.10275796  1
  H  H113  1  0.62636817  0.95020690  0.12593611  1
  H  H114  1  0.38135288  0.05721504  0.59936175  1
  H  H115  1  0.38900018  0.40063121  0.58167465  1
  H  H116  1  0.38471918  0.72046436  0.60712430  1
  H  H117  1  0.87560171  0.05027692  0.61884454  1
  H  H118  1  0.87480717  0.37919532  0.63554661  1
  H  H119  1  0.88243628  0.72409050  0.58961308  1
  H  H120  1  0.12304130  0.11417682  0.37694787  1
  H  H121  1  0.12644179  0.44808282  0.38567356  1
  H  H122  1  0.12158200  0.77872079  0.37733470  1
  H  H123  1  0.62954992  0.10713362  0.40658431  1
  H  H124  1  0.62623506  0.44651530  0.39446418  1
  H  H125  1  0.61701261  0.77991513  0.38451977  1
  H  H126  1  0.37695215  0.21755331  0.87883145  1
  H  H127  1  0.38072006  0.54943970  0.87173596  1
  H  H128  1  0.36364235  0.89144761  0.90339151  1
  H  H129  1  0.87830461  0.21769150  0.88401890  1
  H  H130  1  0.88043787  0.55085113  0.89013595  1
  H  H131  1  0.86811810  0.88884317  0.90128012  1
  H  H132  1  0.37433007  0.11715475  0.12807697  1
  H  H133  1  0.37024844  0.44550699  0.11453051  1
  H  H134  1  0.38374353  0.78323429  0.11881245  1
  H  H135  1  0.86705454  0.10422971  0.08864329  1
  H  H136  1  0.87293846  0.44955307  0.11167254  1
  H  H137  1  0.88352648  0.78853139  0.12138880  1
  H  H138  1  0.12386892  0.21517016  0.62976076  1
  H  H139  1  0.12446206  0.55336819  0.62538094  1
  H  H140  1  0.14192361  0.89156870  0.59803093  1
  H  H141  1  0.62051138  0.22108658  0.60622213  1
  H  H142  1  0.63685580  0.55860485  0.58701621  1
  H  H143  1  0.63897350  0.88864091  0.60081763  1
  H  H144  1  0.04665104  0.76607199  0.99834400  1
  H  H145  1  0.35506174  0.75286992  1.00515014  1
  H  H146  1  0.31268672  0.42207780  0.49322023  1
  H  H147  1  0.64958608  0.91264975  -0.00144486  1
  H  H148  1  0.87453286  0.57965222  0.51826393  1
  H  H149  1  0.95641839  0.74947339  0.48990465  1
  H  H150  1  0.48057292  0.42013855  0.48888624  1
  H  H151  1  0.45602024  0.90725100  -0.00458499  1
  H  H152  1  0.86739435  0.41589674  0.52306512  1
  H  H153  1  0.02994543  0.58065447  -0.00535478  1
  H  H154  1  0.45136884  0.08378876  0.49477704  1
  H  H155  1  0.93372204  0.91730181  0.00006843  1
  H  H156  1  0.21040622  0.58924351  1.00343322  1
  H  H157  1  0.20560705  0.92194768  0.49150591  1
  H  H158  1  0.29936320  0.59007254  0.49125711  1
  H  H159  1  0.57442771  0.08049017  1.00386916  1
  H  H160  1  0.93849824  0.24852809  0.50169071  1
  H  H161  1  0.03489099  0.91584765  0.50817885  1
  H  H162  1  0.63215215  0.41400287  0.52331686  1
  H  H163  1  0.55963763  0.58123860  -0.00452317  1
  H  H164  1  0.41352879  0.08486432  1.00095794  1
  H  H165  1  0.41809623  0.41956732  0.99546852  1
  H  H166  1  0.41148631  0.24909533  0.00685316  1
  H  H167  1  0.71686087  0.58747941  0.48761204  1
  H  H168  1  0.85986404  0.91251584  0.50904542  1
  H  H169  1  0.13401065  0.24523674  0.51556366  1
  H  H170  1  0.37085484  0.91645213  0.50240052  1
  H  H171  1  0.14209030  0.58151886  0.51673561  1
  H  H172  1  0.19669381  0.25057667  1.00540583  1
  H  H173  1  0.84043137  0.24772825  0.99501093  1
  H  H174  1  0.39769400  0.58745216  1.00640859  1
  H  H175  1  0.17433490  0.41423080  0.00170196  1
  H  H176  1  0.90137605  0.08356893  0.50702811  1
  H  H177  1  0.30016606  0.74592190  0.50774604  1
  H  H178  1  0.18216221  0.42307742  0.49093343  1
  H  H179  1  0.58356479  0.74796137  0.50349064  1
  H  H180  1  0.28755170  0.24670749  0.49247777  1
  H  H181  1  0.53819444  0.91571244  0.51102771  1
  H  H182  1  0.70254272  0.92090835  0.49473105  1
  H  H183  1  0.45111585  0.24537162  0.50283085  1
  H  H184  1  0.14375617  0.91491453  0.99117228  1
  H  H185  1  0.67734305  0.25161873  0.99827777  1
  H  H186  1  0.89626685  0.74822565  0.99290081  1
  H  H187  1  0.01829128  0.42211281  0.48852147  1
  H  H188  1  0.29646325  0.07767865  0.50352153  1
  H  H189  1  0.14402136  0.75278109  0.48764670  1
  H  H190  1  0.83784689  0.57671044  1.00280472  1
  H  H191  1  0.61095061  0.25446183  0.48406492  1
  Pb  Pb192  1  0.25295847  0.04805599  0.74249512  1
  Pb  Pb193  1  0.25090057  0.38353412  0.73560540  1
  Pb  Pb194  1  0.25100089  0.71422640  0.75219020  1
  Pb  Pb195  1  0.75097926  0.04611586  0.75571174  1
  Pb  Pb196  1  0.75233053  0.38129882  0.76427323  1
  Pb  Pb197  1  0.75008392  0.71611740  0.74739689  1
  Pb  Pb198  1  0.24897715  0.28325417  0.25345162  1
  Pb  Pb199  1  0.24715010  0.62080852  0.24698665  1
  Pb  Pb200  1  0.24208469  0.94919233  0.24438244  1
  Pb  Pb201  1  0.75229500  0.28365560  0.24476950  1
  Pb  Pb202  1  0.74305816  0.61788116  0.25146017  1
  Pb  Pb203  1  0.74853939  0.95381805  0.25485288  1
  Pb  Pb204  1  -0.00003954  0.21496697  0.74700821  1
  Pb  Pb205  1  0.00061704  0.54931136  0.76295173  1
  Pb  Pb206  1  0.00285439  0.88163904  0.74871830  1
  Pb  Pb207  1  0.50140321  0.21518434  0.74495047  1
  Pb  Pb208  1  0.50415911  0.54817297  0.73986412  1
  Pb  Pb209  1  0.50219060  0.88089759  0.75275427  1
  Pb  Pb210  1  -0.00152373  0.11884340  0.23957992  1
  Pb  Pb211  1  -0.00150192  0.45247469  0.25399240  1
  Pb  Pb212  1  -0.00652327  0.78326359  0.24883878  1
  Pb  Pb213  1  0.49882121  0.11654443  0.25676016  1
  Pb  Pb214  1  0.50101605  0.45042023  0.25222786  1
  Pb  Pb215  1  0.50041486  0.78676502  0.25139100  1
  C  C216  1  0.00327891  0.04723713  0.62998426  1
  C  C217  1  0.00296556  0.37836640  0.62745825  1
  C  C218  1  -0.00077848  0.70989994  0.62614037  1
  C  C219  1  0.50075564  0.04574125  0.63393173  1
  C  C220  1  0.49665522  0.37862988  0.62857188  1
  C  C221  1  0.50912378  0.71057946  0.63054025  1
  C  C222  1  -0.00280647  0.29016101  0.13350468  1
  C  C223  1  -0.00539510  0.62344826  0.13158158  1
  C  C224  1  0.00315090  0.95825790  0.12832107  1
  C  C225  1  0.49400304  0.28908818  0.13045581  1
  C  C226  1  0.49582343  0.62411575  0.13107580  1
  C  C227  1  0.49794926  0.95531555  0.13295933  1
  C  C228  1  -0.00060793  0.04347695  0.86788126  1
  C  C229  1  -0.00185689  0.37725617  0.87206976  1
  C  C230  1  -0.00496799  0.71399258  0.87191365  1
  C  C231  1  0.49958998  0.04675437  0.87620575  1
  C  C232  1  0.50185252  0.37756728  0.86826033  1
  C  C233  1  0.50248535  0.70981801  0.86505072  1
  C  C234  1  0.00106757  0.28640978  0.36978070  1
  C  C235  1  -0.00436426  0.61786635  0.37350371  1
  C  C236  1  -0.00794765  0.95599737  0.37166289  1
  C  C237  1  0.50225841  0.28830309  0.36395573  1
  C  C238  1  0.49695597  0.62209383  0.36823551  1
  C  C239  1  0.48621228  0.95320685  0.37080078  1
  C  C240  1  0.25211454  0.21132799  0.63118779  1
  C  C241  1  0.25262384  0.54863865  0.63114741  1
  C  C242  1  0.26217874  0.87978145  0.62910217  1
  C  C243  1  0.74383772  0.20918041  0.63221035  1
  C  C244  1  0.75094663  0.54464378  0.62908079  1
  C  C245  1  0.75993168  0.87686858  0.63142198  1
  C  C246  1  0.24599608  0.11934706  0.12865005  1
  C  C247  1  0.24483267  0.45520443  0.13410897  1
  C  C248  1  0.25759373  0.78823374  0.13086000  1
  C  C249  1  0.75224471  0.12002670  0.12915905  1
  C  C250  1  0.74682284  0.45655225  0.13013293  1
  C  C251  1  0.75539093  0.79081197  0.12915656  1
  C  C252  1  0.24926054  0.21142150  0.86747752  1
  C  C253  1  0.25224586  0.54164864  0.86564146  1
  C  C254  1  0.24373573  0.87669219  0.87218262  1
  C  C255  1  0.75271260  0.21035216  0.86595018  1
  C  C256  1  0.75687872  0.54491539  0.86852750  1
  C  C257  1  0.74641462  0.87770144  0.87273685  1
  C  C258  1  0.25131944  0.12104861  0.36889931  1
  C  C259  1  0.25099153  0.46255165  0.36832066  1
  C  C260  1  0.24875324  0.78734620  0.36883142  1
  C  C261  1  0.74702011  0.12253389  0.37088061  1
  C  C262  1  0.75102041  0.45315524  0.37275164  1
  C  C263  1  0.74351974  0.78719716  0.36563837  1
  C  C264  1  0.56267557  0.26272576  0.45117662  1
  C  C265  1  0.52468215  0.59416272  0.03600060  1
  C  C266  1  0.42654535  0.92870684  0.45846847  1
  C  C267  1  0.57535235  0.40604135  0.55172836  1
  C  C268  1  0.81343140  0.76080075  0.04406814  1
  C  C269  1  0.06232287  0.73904995  0.54114183  1
  C  C270  1  0.44292905  0.59664791  0.04161590  1
  C  C271  1  0.92813017  0.59086686  0.04951873  1
  C  C272  1  0.21203442  0.42549617  0.04130443  1
  C  C273  1  0.68914364  0.09095897  0.04546354  1
  C  C274  1  0.50743602  0.92681361  0.46801948  1
  C  C275  1  0.92975902  0.92578969  0.45676716  1
  C  C276  1  0.73387334  0.90746613  0.53676644  1
  C  C277  1  0.48363269  0.92128584  0.03888834  1
  C  C278  1  0.22816770  0.75987336  0.03562319  1
  C  C279  1  0.71683266  0.42571307  0.03716221  1
  C  C280  1  0.92421828  0.40814585  0.55161032  1
  C  C281  1  0.45916934  0.40775406  0.95826343  1
  C  C282  1  0.70952897  0.42815940  0.46631420  1
  C  C283  1  0.45694000  0.58903790  0.45824006  1
  C  C284  1  0.48128056  0.07288342  0.53819784  1
  C  C285  1  0.95339698  0.59263234  0.46682197  1
  C  C286  1  0.79044412  0.42782033  0.46684797  1
  C  C287  1  0.05124926  0.25641518  0.45949352  1
  C  C288  1  0.19104212  0.08649280  0.45338829  1
  C  C289  1  0.79622357  0.56841797  0.96392822  1
  C  C290  1  0.03513562  0.59282874  0.46704387  1
  C  C291  1  0.74215989  0.57570361  0.53256215  1
  C  C292  1  0.94956816  0.07416964  0.54197122  1
  C  C293  1  0.04999184  0.92618953  0.03822779  1
  C  C294  1  0.98159514  0.41279663  0.96547691  1
  C  C295  1  0.27016902  0.57768908  0.53467138  1
  C  C296  1  0.27045189  0.75774932  0.46451765  1
  C  C297  1  0.23812703  0.90910203  0.53321670  1
  C  C298  1  0.26903465  0.91098974  0.96685591  1
  C  C299  1  0.77631239  0.90592371  0.96788624  1
  C  C300  1  0.80371921  0.09402018  0.45747201  1
  C  C301  1  0.31958949  0.90574758  0.54071364  1
  C  C302  1  0.48148407  0.25842755  0.46028919  1
  C  C303  1  0.69506343  0.90377397  0.96345332  1
  C  C304  1  0.18467732  0.23824290  0.54804014  1
  C  C305  1  0.71573351  0.23911834  0.95973076  1
  C  C306  1  0.30946752  0.76203371  0.04018675  1
  C  C307  1  0.79794814  0.23762301  0.95806063  1
  C  C308  1  0.71483469  0.56898952  0.96195387  1
  C  C309  1  0.23788477  0.57567433  0.95969616  1
  C  C310  1  0.31277426  0.09531433  0.04486836  1
  C  C311  1  0.22805156  0.23967551  0.96265042  1
  N  N312  1  0.70869608  0.24460288  0.54104679  1
  N  N313  1  0.02825933  0.07710271  0.53362443  1
  N  N314  1  0.81291535  0.90493166  0.54382421  1
  N  N315  1  0.53441569  0.58768219  0.46047486  1
  N  N316  1  0.53459891  0.08218010  0.96595499  1
  N  N317  1  0.00554450  0.58873587  0.03810022  1
  N  N318  1  0.81946366  0.57284341  0.54764288  1
  N  N319  1  0.53835712  0.40876991  0.96183350  1
  N  N320  1  0.95551645  0.25913612  0.04216063  1
  N  N321  1  0.20746654  0.41292831  0.44849255  1
  N  N322  1  0.23761273  0.09048999  0.02988636  1
  N  N323  1  0.52529644  0.74159180  0.95989245  1
  N  N324  1  0.76480768  0.08633925  0.03255746  1
  N  N325  1  0.73704224  0.75525504  0.03394425  1
  N  N326  1  0.49944002  0.41276133  0.53422069  1
  N  N327  1  0.26924875  0.08565373  0.46144702  1
  N  N328  1  0.03180166  0.25708684  0.04121061  1
  N  N329  1  0.28950886  0.41258644  0.44977095  1
  N  N330  1  0.05845117  0.40971057  0.95778433  1
  N  N331  1  0.00814865  0.92262859  0.46533500  1
  N  N332  1  0.00019537  0.41622664  0.53443926  1
  N  N333  1  0.55986386  0.07078368  0.54538719  1
  N  N334  1  0.19177759  0.57489930  0.54616371  1
  N  N335  1  0.29153228  0.42478762  0.04290038  1
  N  N336  1  0.98427689  0.74216758  0.53182966  1
  N  N337  1  0.44982799  0.74092474  0.95263403  1
  N  N338  1  0.46726602  0.74059222  0.53873567  1
  N  N339  1  0.01934344  0.73806365  0.96726259  1
  N  N340  1  0.31576158  0.57422979  0.94893861  1
  N  N341  1  0.97072962  0.92515498  0.03701160  1
  N  N342  1  0.19085033  0.90697979  0.95899758  1
  N  N343  1  0.79396659  0.42674896  0.03884912  1
  N  N344  1  0.45181818  0.25602207  0.04265724  1
  N  N345  1  0.56151597  0.92456397  0.04894230  1
  N  N346  1  0.94168686  0.74652438  0.95685507  1
  N  N347  1  0.30699812  0.23882009  0.95577317  1
  N  N348  1  0.78488681  0.24447656  0.54246987  1
  N  N349  1  0.97231036  0.25647103  0.46284737  1
  N  N350  1  0.72725784  0.08971961  0.46729409  1
  N  N351  1  0.26273226  0.24299613  0.53619793  1
  N  N352  1  0.54561132  0.74022790  0.54027914  1
  N  N353  1  0.69607977  0.75983839  0.45656192  1
  N  N354  1  0.77263965  0.75762498  0.46029842  1
  N  N355  1  0.19182921  0.75964849  0.45490216  1
  N  N356  1  0.96560625  0.07565678  0.96062204  1
  N  N357  1  0.45705599  0.06776766  0.96869617  1
  N  N358  1  0.04174171  0.07547664  0.95858866  1
  N  N359  1  0.53024309  0.25657491  0.03812639  1
  N  N360  1  0.06009672  0.06010003  0.58901570  1
  N  N361  1  0.04908138  0.39377604  0.58001016  1
  N  N362  1  0.07203687  0.72056050  0.60016037  1
  N  N363  1  0.57008353  0.05408287  0.60501711  1
  N  N364  1  0.57324166  0.38659422  0.61064791  1
  N  N365  1  0.57253609  0.72073030  0.59514259  1
  N  N366  1  0.42853756  0.27714751  0.09801579  1
  N  N367  1  0.42644402  0.61483839  0.10084379  1
  N  N368  1  0.44315017  0.93996253  0.09022046  1
  N  N369  1  0.93258764  0.27992620  0.09912081  1
  N  N370  1  0.92106459  0.61123119  0.10780991  1
  N  N371  1  0.94125678  0.94637414  0.09224550  1
  N  N372  1  0.43459859  0.05516902  0.91040522  1
  N  N373  1  0.43510422  0.38894465  0.90108890  1
  N  N374  1  0.43407664  0.72226485  0.89362675  1
  N  N375  1  0.93767389  0.05547094  0.90466358  1
  N  N376  1  0.94232021  0.39361620  0.91430306  1
  N  N377  1  0.92621480  0.72299523  0.90130079  1
  N  N378  1  0.06939058  0.27405023  0.40159870  1
  N  N379  1  0.06001202  0.60801747  0.40975299  1
  N  N380  1  0.04710146  0.94411469  0.41381670  1
  N  N381  1  0.57387126  0.28117157  0.39138168  1
  N  N382  1  0.55953625  0.60854953  0.40310398  1
  N  N383  1  0.54363618  0.94227507  0.41242485  1
  N  N384  1  0.30427823  0.22322697  0.58661349  1
  N  N385  1  0.30839111  0.56154315  0.58757115  1
  N  N386  1  0.33298204  0.88785745  0.60039497  1
  N  N387  1  0.80810523  0.22228111  0.59859701  1
  N  N388  1  0.82395180  0.55315335  0.60678863  1
  N  N389  1  0.82863279  0.88428925  0.60165808  1
  N  N390  1  0.19557745  0.10614404  0.08352840  1
  N  N391  1  0.18213352  0.44366339  0.09704900  1
  N  N392  1  0.19695899  0.77557856  0.09039039  1
  N  N393  1  0.67906596  0.11115808  0.10448601  1
  N  N394  1  0.68489885  0.44348219  0.09194661  1
  N  N395  1  0.70098939  0.77462666  0.08807435  1
  N  N396  1  0.19130452  0.22320839  0.90889108  1
  N  N397  1  0.19751914  0.55591516  0.90887358  1
  N  N398  1  0.17472315  0.88479750  0.90098592  1
  N  N399  1  0.68917344  0.22223881  0.90222459  1
  N  N400  1  0.69119792  0.55513389  0.90453233  1
  N  N401  1  0.67765749  0.88648708  0.90323738  1
  N  N402  1  0.30764255  0.10893311  0.41034152  1
  N  N403  1  0.31389386  0.44645992  0.40178044  1
  N  N404  1  0.30628390  0.77437914  0.41099083  1
  N  N405  1  0.81836550  0.11307698  0.39867465  1
  N  N406  1  0.81541283  0.44301259  0.40884497  1
  N  N407  1  0.80313408  0.77418681  0.40407517  1
  N  N408  1  0.44518945  0.27461169  0.40558113  1
  N  N409  1  0.43125750  0.60942991  0.40248944  1
  N  N410  1  0.41445076  0.94471182  0.39857406  1
  N  N411  1  0.94047215  0.27701211  0.40806982  1
  N  N412  1  0.93042843  0.60770499  0.40851602  1
  N  N413  1  0.91961485  0.94478410  0.39790405  1
  N  N414  1  0.06435964  0.05566368  0.90109723  1
  N  N415  1  0.06870043  0.38725318  0.89800571  1
  N  N416  1  0.05318867  0.72812506  0.91118963  1
  N  N417  1  0.56190261  0.06037444  0.91153386  1
  N  N418  1  0.56316300  0.38986896  0.90536389  1
  N  N419  1  0.55967059  0.72181934  0.90604952  1
  N  N420  1  0.05914663  0.27620041  0.09774613  1
  N  N421  1  0.04756881  0.61201460  0.08757301  1
  N  N422  1  0.07006526  0.94514571  0.09533488  1
  N  N423  1  0.55562097  0.27566320  0.09353575  1
  N  N424  1  0.55608641  0.61131586  0.09200927  1
  N  N425  1  0.56900947  0.94533771  0.10757645  1
  N  N426  1  0.44333485  0.05793656  0.59214223  1
  N  N427  1  0.45056705  0.39259734  0.58065150  1
  N  N428  1  0.44539219  0.72303970  0.59556797  1
  N  N429  1  0.93315286  0.05632051  0.60111132  1
  N  N430  1  0.92645300  0.38696424  0.60990799  1
  N  N431  1  0.94462985  0.72209220  0.58368203  1
  N  N432  1  0.17974670  0.10762243  0.39583787  1
  N  N433  1  0.18609812  0.44744758  0.40001771  1
  N  N434  1  0.17869174  0.77920960  0.39642826  1
  N  N435  1  0.69158194  0.10826939  0.41200538  1
  N  N436  1  0.68575134  0.44358493  0.40822572  1
  N  N437  1  0.67702383  0.77858698  0.39806129  1
  N  N438  1  0.31844453  0.22117240  0.89585587  1
  N  N439  1  0.32329793  0.55299795  0.89047250  1
  N  N440  1  0.30205680  0.89227083  0.91312770  1
  N  N441  1  0.81931163  0.22002860  0.89954911  1
  N  N442  1  0.82124584  0.55356125  0.90416854  1
  N  N443  1  0.80711383  0.89022023  0.91292773  1
  N  N444  1  0.32016932  0.11215295  0.10522966  1
  N  N445  1  0.31004971  0.44333546  0.10118044  1
  N  N446  1  0.32638625  0.77952911  0.10050788  1
  N  N447  1  0.80448667  0.10539884  0.08573723  1
  N  N448  1  0.81295903  0.44619443  0.09809117  1
  N  N449  1  0.82732047  0.78187019  0.10240436  1
  N  N450  1  0.17824707  0.22057540  0.60753908  1
  N  N451  1  0.18150749  0.55685643  0.60536660  1
  N  N452  1  0.20359217  0.89273938  0.58887037  1
  N  N453  1  0.68162484  0.22271642  0.59655800  1
  N  N454  1  0.69917478  0.55889687  0.58310590  1
  N  N455  1  0.70067722  0.89009204  0.59094683  1
  Cl  Cl456  1  0.25578208  0.06149422  0.60176840  1
  Cl  Cl457  1  0.25245967  0.40476689  0.58945195  1
  Cl  Cl458  1  0.25977422  0.72051542  0.61541711  1
  Cl  Cl459  1  0.75214932  0.04487274  0.62504845  1
  Cl  Cl460  1  0.74996698  0.38361631  0.63315907  1
  Cl  Cl461  1  0.75795106  0.72107935  0.61325434  1
  Cl  Cl462  1  0.24389100  0.27497420  0.11835477  1
  Cl  Cl463  1  0.23106388  0.60884748  0.11229168  1
  Cl  Cl464  1  0.25537988  0.94089493  0.10984369  1
  Cl  Cl465  1  0.74381212  0.28023352  0.10954477  1
  Cl  Cl466  1  0.73888510  0.61029070  0.12113946  1
  Cl  Cl467  1  0.75808037  0.94553774  0.12362751  1
  Cl  Cl468  1  0.25280180  0.04571780  0.87455271  1
  Cl  Cl469  1  0.25070011  0.38575078  0.86751183  1
  Cl  Cl470  1  0.23914854  0.71991049  0.88508433  1
  Cl  Cl471  1  0.74750549  0.05513135  0.88640646  1
  Cl  Cl472  1  0.75248352  0.39083765  0.89570731  1
  Cl  Cl473  1  0.74449632  0.72401223  0.87923183  1
  Cl  Cl474  1  0.25812024  0.26666183  0.39274973  1
  Cl  Cl475  1  0.24837233  0.61219773  0.38397898  1
  Cl  Cl476  1  0.22802208  0.94399222  0.37994217  1
  Cl  Cl477  1  0.75877317  0.27767731  0.37530898  1
  Cl  Cl478  1  0.74498704  0.60960377  0.38709108  1
  Cl  Cl479  1  0.73141111  0.94383185  0.39021576  1
  Cl  Cl480  1  -0.00910750  0.22736758  0.60930426  1
  Cl  Cl481  1  0.00287988  0.55219734  0.63102679  1
  Cl  Cl482  1  0.01696321  0.89103209  0.60450470  1
  Cl  Cl483  1  0.49089159  0.22572852  0.60840041  1
  Cl  Cl484  1  0.50059159  0.55698910  0.60782901  1
  Cl  Cl485  1  0.51815553  0.88529679  0.61910408  1
  Cl  Cl486  1  -0.00044100  0.10390196  0.10919771  1
  Cl  Cl487  1  -0.00191874  0.45229812  0.12263727  1
  Cl  Cl488  1  0.01264842  0.78159709  0.11025820  1
  Cl  Cl489  1  0.49918726  0.10880862  0.12116013  1
  Cl  Cl490  1  0.49733730  0.44217091  0.12081092  1
  Cl  Cl491  1  0.51541237  0.77796671  0.12104623  1
  Cl  Cl492  1  0.00728087  0.22462164  0.87555397  1
  Cl  Cl493  1  0.01368054  0.56205081  0.90081449  1
  Cl  Cl494  1  -0.01072348  0.88894677  0.88686871  1
  Cl  Cl495  1  0.50223857  0.21843061  0.87686880  1
  Cl  Cl496  1  0.50933301  0.55418463  0.87403805  1
  Cl  Cl497  1  0.48603950  0.89306326  0.88710358  1
  Cl  Cl498  1  -0.00120721  0.11990247  0.37273844  1
  Cl  Cl499  1  0.00492247  0.43755866  0.39414016  1
  Cl  Cl500  1  -0.01150404  0.77550970  0.39017404  1
  Cl  Cl501  1  0.49429391  0.10650038  0.39218575  1
  Cl  Cl502  1  0.49422439  0.44115581  0.39361235  1
  Cl  Cl503  1  0.49342056  0.77378827  0.38658515  1
  Cl  Cl504  1  0.35922109  0.15133455  0.75395367  1
  Cl  Cl505  1  0.36662769  0.48117791  0.74802167  1
  Cl  Cl506  1  0.35926514  0.81707440  0.75005849  1
  Cl  Cl507  1  0.86125563  0.14831805  0.74936387  1
  Cl  Cl508  1  0.86578057  0.48146400  0.74713285  1
  Cl  Cl509  1  0.86862501  0.81332565  0.74950198  1
  Cl  Cl510  1  0.14259996  0.18022303  0.25294668  1
  Cl  Cl511  1  0.13421348  0.52083005  0.25985058  1
  Cl  Cl512  1  0.14593503  0.84790820  0.24649692  1
  Cl  Cl513  1  0.63360099  0.18653848  0.24619217  1
  Cl  Cl514  1  0.64066430  0.51444916  0.25749689  1
  Cl  Cl515  1  0.64344014  0.84908314  0.24848994  1
  Cl  Cl516  1  0.13707477  0.14662637  0.74056304  1
  Cl  Cl517  1  0.14668102  0.48266480  0.74544430  1
  Cl  Cl518  1  0.13950815  0.81559421  0.74922694  1
  Cl  Cl519  1  0.63980209  0.14780190  0.75014958  1
  Cl  Cl520  1  0.64591266  0.48429008  0.75065599  1
  Cl  Cl521  1  0.64803650  0.82055665  0.75212324  1
  Cl  Cl522  1  0.36626621  0.18706178  0.24170669  1
  Cl  Cl523  1  0.35497725  0.51980232  0.24596862  1
  Cl  Cl524  1  0.36298016  0.85447662  0.25527799  1
  Cl  Cl525  1  0.85470524  0.18365871  0.24659684  1
  Cl  Cl526  1  0.86190966  0.52075596  0.24935302  1
  Cl  Cl527  1  0.86460501  0.85441979  0.24965132  1
  Cl  Cl528  1  0.11495906  0.31454526  0.74257940  1
  Cl  Cl529  1  0.11254746  0.64907706  0.74347727  1
  Cl  Cl530  1  0.11308363  0.98255402  0.74585702  1
  Cl  Cl531  1  0.61104081  0.31711395  0.75179123  1
  Cl  Cl532  1  0.61155731  0.65179204  0.74621363  1
  Cl  Cl533  1  0.60759695  0.98561037  0.75667696  1
  Cl  Cl534  1  0.38711860  0.01891918  0.25165554  1
  Cl  Cl535  1  0.38151142  0.35455544  0.25558107  1
  Cl  Cl536  1  0.38510942  0.68748727  0.24195734  1
  Cl  Cl537  1  0.88686713  0.01900169  0.25898991  1
  Cl  Cl538  1  0.89209487  0.34912160  0.25045876  1
  Cl  Cl539  1  0.88991104  0.68816741  0.24451350  1
  Cl  Cl540  1  0.38936880  0.31576228  0.74617266  1
  Cl  Cl541  1  0.38801729  0.64636718  0.75218293  1
  Cl  Cl542  1  0.39109155  0.98229539  0.74761406  1
  Cl  Cl543  1  0.89142266  0.31660410  0.75100205  1
  Cl  Cl544  1  0.89671888  0.64691628  0.75648071  1
  Cl  Cl545  1  0.89045735  0.98042411  0.74196091  1
  Cl  Cl546  1  0.10437396  0.01489382  0.24926818  1
  Cl  Cl547  1  0.11381432  0.35314212  0.26050063  1
  Cl  Cl548  1  0.10818538  0.68541496  0.26417693  1
  Cl  Cl549  1  0.60726686  0.01453903  0.24603926  1
  Cl  Cl550  1  0.60267017  0.35183252  0.25061467  1
  Cl  Cl551  1  0.60517500  0.68155043  0.25577788  1
