# generated using pymatgen
data_H8PbC4(N3Cl2)2
_symmetry_space_group_name_H-M   'P 1'
_cell_length_a   16.62499508
_cell_length_b   22.51091316
_cell_length_c   21.59217529
_cell_angle_alpha   90.00014945
_cell_angle_beta   90.01077049
_cell_angle_gamma   89.99369103
_symmetry_Int_Tables_number   1
_chemical_formula_structural   H8PbC4(N3Cl2)2
_chemical_formula_sum   'H192 Pb24 C96 N144 Cl96'
_cell_volume   8080.73798247
_cell_formula_units_Z   24
loop_
 _symmetry_equiv_pos_site_id
 _symmetry_equiv_pos_as_xyz
  1  'x, y, z'
loop_
 _atom_site_type_symbol
 _atom_site_label
 _atom_site_symmetry_multiplicity
 _atom_site_fract_x
 _atom_site_fract_y
 _atom_site_fract_z
 _atom_site_occupancy
  H  H0  1  -0.00800385  0.03287940  0.67890855  1
  H  H1  1  0.00533469  0.36282937  0.67851499  1
  H  H2  1  0.01796004  0.69685405  0.67653398  1
  H  H3  1  0.50506805  0.02880357  0.67764317  1
  H  H4  1  0.50017108  0.36507686  0.68003918  1
  H  H5  1  0.49137989  0.69503886  0.67612445  1
  H  H6  1  -0.00338376  0.30320451  0.18077308  1
  H  H7  1  -0.01174640  0.63790433  0.17930324  1
  H  H8  1  -0.00458779  0.96876791  0.18123638  1
  H  H9  1  0.49902347  0.30555382  0.17756630  1
  H  H10  1  0.49930499  0.63640447  0.18070377  1
  H  H11  1  0.50214525  0.96975160  0.17868927  1
  H  H12  1  0.00508924  0.02630617  0.82078192  1
  H  H13  1  -0.00505175  0.36552346  0.82316237  1
  H  H14  1  -0.00437407  0.69729155  0.81958881  1
  H  H15  1  0.50102766  0.03059049  0.81832167  1
  H  H16  1  0.49513053  0.36178123  0.82621310  1
  H  H17  1  0.50632623  0.69565681  0.82131501  1
  H  H18  1  -0.00603994  0.30356342  0.32004851  1
  H  H19  1  -0.01206403  0.63942886  0.32119251  1
  H  H20  1  0.00158212  0.97049613  0.31827036  1
  H  H21  1  0.50530317  0.30323382  0.31852400  1
  H  H22  1  0.51436057  0.63663105  0.32215422  1
  H  H23  1  0.49634815  0.96821324  0.32089634  1
  H  H24  1  0.24968926  0.19496633  0.67672130  1
  H  H25  1  0.24490450  0.53018449  0.68045862  1
  H  H26  1  0.24332379  0.86260932  0.68022814  1
  H  H27  1  0.74730642  0.19553864  0.68039521  1
  H  H28  1  0.75764014  0.52870167  0.67700191  1
  H  H29  1  0.76359173  0.86033269  0.67789359  1
  H  H30  1  0.24797834  0.13565159  0.18227328  1
  H  H31  1  0.25139391  0.47040781  0.17918546  1
  H  H32  1  0.24766570  0.80378825  0.18264097  1
  H  H33  1  0.74201160  0.13520246  0.17948719  1
  H  H34  1  0.75696050  0.46951798  0.17718451  1
  H  H35  1  0.73959939  0.80084456  0.18132011  1
  H  H36  1  0.23598763  0.19807327  0.82545436  1
  H  H37  1  0.23898397  0.52929813  0.81882599  1
  H  H38  1  0.24743844  0.86362123  0.81985049  1
  H  H39  1  0.76660352  0.19983913  0.81719828  1
  H  H40  1  0.75617659  0.52936545  0.81760848  1
  H  H41  1  0.74370498  0.86636631  0.82221783  1
  H  H42  1  0.26236729  0.13580324  0.31855227  1
  H  H43  1  0.24798348  0.47008015  0.31857945  1
  H  H44  1  0.26121385  0.80593207  0.32295467  1
  H  H45  1  0.74791734  0.13386038  0.32101630  1
  H  H46  1  0.74977228  0.46966681  0.32120097  1
  H  H47  1  0.73330595  0.80045913  0.32599616  1
  H  H48  1  0.11869487  0.05263889  0.61285494  1
  H  H49  1  0.11851558  0.38927013  0.60016364  1
  H  H50  1  0.12596264  0.72663733  0.59434224  1
  H  H51  1  0.61942302  0.05632221  0.59975809  1
  H  H52  1  0.62106311  0.38717802  0.60682175  1
  H  H53  1  0.62844675  0.71642951  0.62011163  1
  H  H54  1  0.36955702  0.28115562  0.11107907  1
  H  H55  1  0.37632289  0.61018906  0.10874380  1
  H  H56  1  0.37062632  0.94740053  0.11566971  1
  H  H57  1  0.87185794  0.28261688  0.10896480  1
  H  H58  1  0.87987242  0.60792072  0.09712102  1
  H  H59  1  0.86904453  0.94518601  0.11318335  1
  H  H60  1  0.36873043  0.05483590  0.88229542  1
  H  H61  1  0.38067485  0.39118212  0.90196074  1
  H  H62  1  0.37126696  0.71856362  0.87850511  1
  H  H63  1  0.86952242  0.04900799  0.87781029  1
  H  H64  1  0.87923511  0.39114580  0.89955515  1
  H  H65  1  0.86836705  0.72166879  0.88661375  1
  H  H66  1  0.12372413  0.27997324  0.38560606  1
  H  H67  1  0.12634845  0.61787247  0.37655071  1
  H  H68  1  0.13415880  0.94740933  0.38251099  1
  H  H69  1  0.62665659  0.27912904  0.39132857  1
  H  H70  1  0.62628160  0.60889576  0.40208963  1
  H  H71  1  0.62926633  0.94805399  0.37978522  1
  H  H72  1  0.37324262  0.21582800  0.60491346  1
  H  H73  1  0.37291742  0.55167276  0.61507716  1
  H  H74  1  0.37095178  0.88604173  0.61248506  1
  H  H75  1  0.87418017  0.21930952  0.61131157  1
  H  H76  1  0.86700562  0.55976362  0.59510005  1
  H  H77  1  0.86789223  0.89075124  0.59253898  1
  H  H78  1  0.13477713  0.10955633  0.10317204  1
  H  H79  1  0.11841560  0.44818738  0.11750558  1
  H  H80  1  0.12871725  0.77999569  0.10772668  1
  H  H81  1  0.63370868  0.10650361  0.09752185  1
  H  H82  1  0.62055480  0.44780465  0.11860012  1
  H  H83  1  0.63621120  0.77720988  0.09608071  1
  H  H84  1  0.13833450  0.23035728  0.91340790  1
  H  H85  1  0.12372489  0.55467251  0.89660175  1
  H  H86  1  0.12774235  0.88822053  0.89219860  1
  H  H87  1  0.62919695  0.21794232  0.87202587  1
  H  H88  1  0.62290197  0.54843314  0.87823891  1
  H  H89  1  0.62833268  0.88900954  0.89979368  1
  H  H90  1  0.37708813  0.10793453  0.39827268  1
  H  H91  1  0.38042997  0.44823922  0.38444629  1
  H  H92  1  0.37167196  0.77596124  0.40484078  1
  H  H93  1  0.88223827  0.11516578  0.38202331  1
  H  H94  1  0.88240812  0.44703665  0.38199336  1
  H  H95  1  0.87252622  0.78368223  0.37635151  1
  H  H96  1  0.37756203  0.27909997  0.38673376  1
  H  H97  1  0.37869054  0.61564251  0.38210243  1
  H  H98  1  0.38172242  0.94394022  0.39854072  1
  H  H99  1  0.87504041  0.27636202  0.39384891  1
  H  H100  1  0.88161470  0.60925930  0.40537974  1
  H  H101  1  0.88546517  0.94504563  0.39597639  1
  H  H102  1  0.11677697  0.05718309  0.90066517  1
  H  H103  1  0.12741246  0.38413720  0.88355719  1
  H  H104  1  0.11707122  0.72262115  0.89312631  1
  H  H105  1  0.61700415  0.05297088  0.89668991  1
  H  H106  1  0.62856429  0.38576387  0.88681216  1
  H  H107  1  0.61873137  0.72536776  0.90059177  1
  H  H108  1  0.12000285  0.27888971  0.11019798  1
  H  H109  1  0.12524039  0.61482449  0.12232611  1
  H  H110  1  0.11799596  0.94492997  0.10796718  1
  H  H111  1  0.61712044  0.27712067  0.10246297  1
  H  H112  1  0.62443497  0.61144814  0.11078847  1
  H  H113  1  0.61866677  0.94310619  0.10151120  1
  H  H114  1  0.37134486  0.05108032  0.61741107  1
  H  H115  1  0.37119331  0.38711826  0.61238197  1
  H  H116  1  0.38187274  0.72559218  0.59499514  1
  H  H117  1  0.86961157  0.05582571  0.60663487  1
  H  H118  1  0.87004755  0.38379295  0.61812562  1
  H  H119  1  0.87940422  0.71704595  0.61987707  1
  H  H120  1  0.12961243  0.11439840  0.38253627  1
  H  H121  1  0.13270266  0.44391043  0.39717953  1
  H  H122  1  0.12493606  0.78182232  0.38091169  1
  H  H123  1  0.63373319  0.11069049  0.39805017  1
  H  H124  1  0.63504119  0.44373880  0.39999350  1
  H  H125  1  0.62848243  0.77316028  0.40991332  1
  H  H126  1  0.38021777  0.21601632  0.87117312  1
  H  H127  1  0.37186327  0.55040299  0.88238143  1
  H  H128  1  0.37694793  0.88499170  0.88411479  1
  H  H129  1  0.87591199  0.22362596  0.89905731  1
  H  H130  1  0.87134492  0.55300628  0.89472514  1
  H  H131  1  0.87636570  0.88501363  0.88207408  1
  H  H132  1  0.38284029  0.11312190  0.12044701  1
  H  H133  1  0.36635449  0.44223236  0.10120413  1
  H  H134  1  0.37771596  0.77990604  0.11575497  1
  H  H135  1  0.88003021  0.11538416  0.12365721  1
  H  H136  1  0.86745497  0.44156989  0.09696282  1
  H  H137  1  0.88160250  0.78542894  0.12979206  1
  H  H138  1  0.12523611  0.22374071  0.60920781  1
  H  H139  1  0.12381871  0.55510662  0.60866604  1
  H  H140  1  0.12160083  0.88820246  0.60622702  1
  H  H141  1  0.62545910  0.21917973  0.60826140  1
  H  H142  1  0.62069927  0.55148731  0.61942204  1
  H  H143  1  0.62388615  0.88017273  0.62383659  1
  H  H144  1  0.42853204  0.57868355  0.00598464  1
  H  H145  1  0.95476292  0.58132078  -0.00293711  1
  H  H146  1  0.07875957  0.08139765  0.49947275  1
  H  H147  1  0.55259025  0.74903462  1.00302831  1
  H  H148  1  0.32365065  0.25937070  0.50888459  1
  H  H149  1  0.94809321  0.91936044  0.50309994  1
  H  H150  1  0.55342483  0.08245272  0.49623462  1
  H  H151  1  0.59473657  0.41664445  0.99398347  1
  H  H152  1  0.45415022  0.75180839  0.49390114  1
  H  H153  1  0.69397226  0.08496953  0.50809607  1
  H  H154  1  0.29716259  0.75000315  0.50528803  1
  H  H155  1  0.95873752  0.58436875  0.50468557  1
  H  H156  1  0.20055721  0.08079868  -0.00239642  1
  H  H157  1  0.17872799  0.91691393  1.00197956  1
  H  H158  1  0.04897712  0.07743093  1.00333924  1
  H  H159  1  0.55425148  0.07987215  1.00380768  1
  H  H160  1  0.90710980  0.75301241  0.99666335  1
  H  H161  1  0.78868444  0.91445635  0.49355431  1
  H  H162  1  0.18435889  0.75088261  0.00055252  1
  H  H163  1  0.57476767  0.24914394  0.49901755  1
  H  H164  1  0.33575655  0.58090530  0.50316312  1
  H  H165  1  0.80869138  0.24730565  1.00638692  1
  H  H166  1  0.34352322  0.91487476  0.99585457  1
  H  H167  1  0.89716710  0.41251803  0.50993949  1
  H  H168  1  0.05615944  0.41896962  0.49378152  1
  H  H169  1  0.39844535  0.75219340  0.99058863  1
  H  H170  1  0.70682102  0.07959392  -0.00346526  1
  H  H171  1  0.32595015  0.92082829  0.50463836  1
  H  H172  1  0.84862869  0.91381388  0.99694967  1
  H  H173  1  0.22200349  0.25586317  1.00975064  1
  H  H174  1  0.92893296  0.28218391  0.00238422  1
  H  H175  1  0.17221084  0.58291102  0.49903435  1
  H  H176  1  0.81271464  0.58010858  1.00329890  1
  H  H177  1  0.85746535  0.75340600  0.49240075  1
  H  H178  1  0.93147475  0.24330125  0.49976944  1
  H  H179  1  0.06423082  0.23669297  0.01271915  1
  H  H180  1  0.57013624  0.41864166  0.49839417  1
  H  H181  1  0.60139608  0.91814487  0.49375696  1
  H  H182  1  0.71057781  0.75286046  -0.00920138  1
  H  H183  1  0.18505600  0.58341530  1.00234506  1
  H  H184  1  0.65141784  0.57786640  0.99074606  1
  H  H185  1  0.79229522  0.58706332  0.49526548  1
  H  H186  1  0.17336289  0.23829225  0.50279318  1
  H  H187  1  0.09978350  0.41620218  0.99691338  1
  H  H188  1  0.64939503  0.24646565  0.98608764  1
  H  H189  1  0.89405637  0.08038399  0.99034783  1
  H  H190  1  0.41240911  0.41768045  0.50763078  1
  H  H191  1  0.40921830  0.25200750  0.00473082  1
  Pb  Pb192  1  0.24716570  0.04622434  0.75480709  1
  Pb  Pb193  1  0.24948225  0.37954021  0.75044425  1
  Pb  Pb194  1  0.24884732  0.71294120  0.74252409  1
  Pb  Pb195  1  0.74687169  0.04663452  0.75257767  1
  Pb  Pb196  1  0.74827248  0.37867400  0.75147223  1
  Pb  Pb197  1  0.74780512  0.71278096  0.75430386  1
  Pb  Pb198  1  0.25576261  0.28494860  0.25072319  1
  Pb  Pb199  1  0.24909237  0.61821536  0.24902388  1
  Pb  Pb200  1  0.25331521  0.95400199  0.24981777  1
  Pb  Pb201  1  0.74888287  0.28651515  0.24724292  1
  Pb  Pb202  1  0.75259269  0.62009669  0.25208318  1
  Pb  Pb203  1  0.75613832  0.94946401  0.25220438  1
  Pb  Pb204  1  0.00109455  0.21400427  0.75860831  1
  Pb  Pb205  1  -0.00284749  0.54707050  0.75023169  1
  Pb  Pb206  1  -0.00212675  0.87975339  0.74307741  1
  Pb  Pb207  1  0.49813860  0.21255585  0.74424171  1
  Pb  Pb208  1  0.49801307  0.54569361  0.75327124  1
  Pb  Pb209  1  0.49770091  0.87928915  0.75111672  1
  Pb  Pb210  1  0.00407375  0.11997516  0.24214164  1
  Pb  Pb211  1  -0.00169658  0.45061879  0.25062079  1
  Pb  Pb212  1  0.00586532  0.78761697  0.24948917  1
  Pb  Pb213  1  0.50853896  0.11689648  0.25448675  1
  Pb  Pb214  1  0.50180120  0.45389439  0.25170403  1
  Pb  Pb215  1  0.49741090  0.78345584  0.25171043  1
  C  C216  1  -0.00599261  0.04714659  0.63106496  1
  C  C217  1  -0.00265562  0.37896981  0.63133808  1
  C  C218  1  0.00757727  0.71313287  0.63017814  1
  C  C219  1  0.49887332  0.04421229  0.63039619  1
  C  C220  1  0.49702512  0.38021055  0.63224135  1
  C  C221  1  0.50027428  0.71083804  0.62927748  1
  C  C222  1  -0.00401859  0.28804830  0.13291841  1
  C  C223  1  -0.00246193  0.62141185  0.13262775  1
  C  C224  1  -0.00549628  0.95326109  0.13389937  1
  C  C225  1  0.49471137  0.28852990  0.13072895  1
  C  C226  1  0.49978360  0.61969753  0.13357779  1
  C  C227  1  0.49729954  0.95373370  0.13165793  1
  C  C228  1  -0.00266297  0.04298557  0.86771168  1
  C  C229  1  0.00123850  0.38055989  0.87057023  1
  C  C230  1  -0.00624997  0.71332350  0.86685336  1
  C  C231  1  0.49534278  0.04567007  0.86584928  1
  C  C232  1  0.50194092  0.37900020  0.87278683  1
  C  C233  1  0.49896836  0.71185583  0.86844636  1
  C  C234  1  -0.00220486  0.28704873  0.36714188  1
  C  C235  1  -0.00167307  0.62309459  0.36780221  1
  C  C236  1  0.00721480  0.95518021  0.36571793  1
  C  C237  1  0.50290114  0.28747011  0.36593668  1
  C  C238  1  0.50616424  0.62076173  0.36897630  1
  C  C239  1  0.50329950  0.95380798  0.36841678  1
  C  C240  1  0.24937820  0.21156523  0.62947578  1
  C  C241  1  0.24724439  0.54584896  0.63288112  1
  C  C242  1  0.24512781  0.87908855  0.63309335  1
  C  C243  1  0.74931628  0.21098787  0.63308672  1
  C  C244  1  0.74881733  0.54547839  0.63040144  1
  C  C245  1  0.75208194  0.87607324  0.63124691  1
  C  C246  1  0.25546293  0.11992028  0.13517135  1
  C  C247  1  0.24555386  0.45403482  0.13232991  1
  C  C248  1  0.25175360  0.78805190  0.13518337  1
  C  C249  1  0.75169343  0.12014421  0.13234164  1
  C  C250  1  0.74795381  0.45350812  0.13056660  1
  C  C251  1  0.75238005  0.78809825  0.13387228  1
  C  C252  1  0.25137776  0.21362231  0.87162000  1
  C  C253  1  0.24507020  0.54475428  0.86617331  1
  C  C254  1  0.25089380  0.87923846  0.86742879  1
  C  C255  1  0.75684820  0.21363861  0.86481739  1
  C  C256  1  0.74977101  0.54394253  0.86534525  1
  C  C257  1  0.75015960  0.88034769  0.87000374  1
  C  C258  1  0.25659036  0.12047733  0.36596410  1
  C  C259  1  0.25394337  0.45458638  0.36601404  1
  C  C260  1  0.25312090  0.78936085  0.36966439  1
  C  C261  1  0.75447191  0.12012946  0.36882561  1
  C  C262  1  0.75562699  0.45366345  0.36823514  1
  C  C263  1  0.74560652  0.78570512  0.37274750  1
  C  C264  1  0.95347719  0.92504687  0.04192843  1
  C  C265  1  0.80535538  0.42553388  0.45761800  1
  C  C266  1  0.03724235  0.07223479  0.53722892  1
  C  C267  1  0.80887785  0.09698881  0.45903296  1
  C  C268  1  0.71381086  0.23974288  0.53994342  1
  C  C269  1  0.76961768  0.42276386  0.03557632  1
  C  C270  1  0.97123828  0.40917882  0.96565036  1
  C  C271  1  0.53332962  0.40754403  0.53832699  1
  C  C272  1  0.32249102  0.24010330  0.95369464  1
  C  C273  1  0.72075011  0.90652930  0.96569810  1
  C  C274  1  0.81260199  0.09232230  0.04591028  1
  C  C275  1  0.21086441  0.57223373  0.53811749  1
  C  C276  1  0.81886835  0.76659948  0.04827983  1
  C  C277  1  0.96764833  0.25625963  0.46004790  1
  C  C278  1  0.02370871  0.40753004  0.53591591  1
  C  C279  1  0.80210897  0.90520299  0.96134070  1
  C  C280  1  0.52906370  0.58912369  0.46317103  1
  C  C281  1  0.47225140  0.41311757  0.96662695  1
  C  C282  1  0.72773305  0.75741029  0.46978511  1
  C  C283  1  0.29863260  0.90521461  0.95940948  1
  C  C284  1  0.80813407  0.76095094  0.45985229  1
  C  C285  1  0.69674353  0.56869562  0.95570840  1
  C  C286  1  0.19643672  0.42585874  0.04294240  1
  C  C287  1  0.95555534  0.07304352  0.53685554  1
  C  C288  1  0.29308987  0.57141846  0.54029510  1
  C  C289  1  0.77850313  0.56977371  0.96180356  1
  C  C290  1  0.22068536  0.76133331  0.04104853  1
  C  C291  1  0.05280004  0.40707949  0.96160392  1
  C  C292  1  0.02621853  0.74538415  0.53548542  1
  C  C293  1  0.28544797  0.90875515  0.54230881  1
  C  C294  1  0.23230831  0.09223298  0.04005889  1
  C  C295  1  0.72770677  0.09511814  0.46618084  1
  C  C296  1  0.52148762  0.07109688  0.96114452  1
  C  C297  1  0.56026964  0.74104153  0.54289839  1
  C  C298  1  0.98115750  0.92953912  0.46089103  1
  C  C299  1  0.44413793  0.07309992  0.54143185  1
  C  C300  1  0.73918035  0.76352835  0.03478071  1
  C  C301  1  0.21905969  0.57248426  0.96089736  1
  C  C302  1  0.77847085  0.23848184  0.96268082  1
  C  C303  1  0.53647082  0.26036558  0.45945560  1
  C  C304  1  0.95214935  0.74149266  0.95831793  1
  C  C305  1  0.47442958  0.92685779  0.46419725  1
  C  C306  1  0.94045219  0.07163787  0.95479163  1
  C  C307  1  0.69724467  0.23716401  0.95302926  1
  C  C308  1  0.44320022  0.74183784  0.95541098  1
  C  C309  1  0.55570366  0.92793113  0.45898681  1
  C  C310  1  0.44984450  0.92528887  0.04173825  1
  C  C311  1  0.21643605  0.90628856  0.96240264  1
  N  N312  1  0.52240636  0.74432189  0.96172218  1
  N  N313  1  0.29993375  0.76139598  0.04326246  1
  N  N314  1  0.46499961  0.59226100  0.04181718  1
  N  N315  1  0.54329263  0.59220309  0.04129323  1
  N  N316  1  0.27179925  0.75707667  0.46220480  1
  N  N317  1  0.20915327  0.24641393  0.54074282  1
  N  N318  1  0.94432633  0.40603805  0.54317388  1
  N  N319  1  0.45372067  0.40703805  0.54135828  1
  N  N320  1  0.76671908  0.57886987  0.53809161  1
  N  N321  1  0.27347444  0.42338708  0.03642782  1
  N  N322  1  0.79153371  0.23928619  0.53967311  1
  N  N323  1  0.29824071  0.57159911  0.95654661  1
  N  N324  1  0.45699202  0.26068157  0.45865905  1
  N  N325  1  0.06010369  0.92993746  0.45646473  1
  N  N326  1  0.55092009  0.40956003  0.96065109  1
  N  N327  1  0.52984550  0.25828473  0.03742949  1
  N  N328  1  0.28321075  0.09207119  0.46145346  1
  N  N329  1  0.69254149  0.42529645  0.04156530  1
  N  N330  1  0.19440380  0.75897511  0.45538012  1
  N  N331  1  0.06053461  0.59460305  0.45290137  1
  N  N332  1  0.28787720  0.23277114  0.53597187  1
  N  N333  1  0.68840027  0.90412220  0.54711060  1
  N  N334  1  0.30196929  0.42812838  0.45723794  1
  N  N335  1  0.03664559  0.26847053  0.03942597  1
  N  N336  1  0.73461341  0.08960459  0.03774309  1
  N  N337  1  0.76512563  0.90736094  0.53748098  1
  N  N338  1  0.22561596  0.42644645  0.46140299  1
  N  N339  1  0.31109255  0.09355850  0.04580319  1
  N  N340  1  0.03114353  0.92533807  0.03881105  1
  N  N341  1  0.48202372  0.74315807  0.53552373  1
  N  N342  1  0.45189277  0.59148800  0.45827769  1
  N  N343  1  0.52717983  0.92343303  0.03610189  1
  N  N344  1  0.45162136  0.25978096  0.04140692  1
  N  N345  1  0.98025276  0.58864064  0.03988103  1
  N  N346  1  0.72805278  0.42415511  0.46466706  1
  N  N347  1  0.94953166  0.74205102  0.54283500  1
  N  N348  1  0.03134391  0.74176315  0.96124579  1
  N  N349  1  0.52278952  0.07419057  0.53658659  1
  N  N350  1  0.20698233  0.09453414  0.45666730  1
  N  N351  1  0.05777944  0.59178176  0.04712184  1
  N  N352  1  0.01954498  0.07434283  0.96152820  1
  N  N353  1  0.24548147  0.24478432  0.96689356  1
  N  N354  1  0.20626006  0.90894230  0.53965111  1
  N  N355  1  0.98335203  0.59133375  0.46120353  1
  N  N356  1  0.95541001  0.26319018  0.04050712  1
  N  N357  1  0.44258679  0.07291388  0.95605954  1
  N  N358  1  0.04703834  0.25780527  0.45809146  1
  N  N359  1  0.68943187  0.57618399  0.54496341  1
  N  N360  1  0.05986428  0.05622360  0.59710504  1
  N  N361  1  0.05695710  0.39148985  0.59072418  1
  N  N362  1  0.06423643  0.72772543  0.58792745  1
  N  N363  1  0.55773786  0.05461987  0.59066619  1
  N  N364  1  0.56046615  0.39074318  0.59472090  1
  N  N365  1  0.57174370  0.72178954  0.60115469  1
  N  N366  1  0.42922308  0.27888061  0.09770729  1
  N  N367  1  0.43726053  0.60775796  0.09796955  1
  N  N368  1  0.42904587  0.94324118  0.09985554  1
  N  N369  1  0.93230921  0.28477303  0.09631247  1
  N  N370  1  0.94196410  0.60946727  0.09055450  1
  N  N371  1  0.92867242  0.94187149  0.09939730  1
  N  N372  1  0.42805768  0.05688293  0.89678667  1
  N  N373  1  0.44166371  0.39422011  0.91238006  1
  N  N374  1  0.42845233  0.72305870  0.89714827  1
  N  N375  1  0.92668144  0.05404881  0.89596013  1
  N  N376  1  0.94029512  0.39328818  0.91076427  1
  N  N377  1  0.92786026  0.72431595  0.90061981  1
  N  N378  1  0.06396530  0.27729679  0.39962869  1
  N  N379  1  0.06911401  0.61239481  0.39412400  1
  N  N380  1  0.07463899  0.94580615  0.39718549  1
  N  N381  1  0.56594335  0.27657121  0.40294823  1
  N  N382  1  0.56491160  0.60694447  0.40992925  1
  N  N383  1  0.57232652  0.94463647  0.39839907  1
  N  N384  1  0.31295181  0.22323001  0.59482827  1
  N  N385  1  0.31392220  0.55539358  0.59946872  1
  N  N386  1  0.31092813  0.89076794  0.59937974  1
  N  N387  1  0.81373346  0.22083364  0.59879728  1
  N  N388  1  0.80469011  0.55798331  0.58876393  1
  N  N389  1  0.80546308  0.88807589  0.58760610  1
  N  N390  1  0.19647676  0.10829954  0.09454543  1
  N  N391  1  0.17667933  0.44386889  0.10127169  1
  N  N392  1  0.18983900  0.77736148  0.09700906  1
  N  N393  1  0.69591375  0.10885454  0.09044529  1
  N  N394  1  0.67896264  0.44445594  0.10197925  1
  N  N395  1  0.69847638  0.77737498  0.08961846  1
  N  N396  1  0.20062086  0.22638538  0.91672678  1
  N  N397  1  0.18501182  0.55641247  0.90586821  1
  N  N398  1  0.18823513  0.89027288  0.90484103  1
  N  N399  1  0.68555483  0.22175936  0.89235145  1
  N  N400  1  0.68059041  0.55296824  0.89565174  1
  N  N401  1  0.68948359  0.89155552  0.91079612  1
  N  N402  1  0.31532546  0.10818981  0.40549256  1
  N  N403  1  0.32068960  0.44536714  0.39793923  1
  N  N404  1  0.30940027  0.77814705  0.41143292  1
  N  N405  1  0.82434289  0.11183291  0.40010627  1
  N  N406  1  0.82448288  0.44290748  0.39878337  1
  N  N407  1  0.81770927  0.77805778  0.39842856  1
  N  N408  1  0.43792746  0.27720964  0.39972442  1
  N  N409  1  0.43756766  0.61118953  0.39801446  1
  N  N410  1  0.44306960  0.94232270  0.40946795  1
  N  N411  1  0.93604942  0.27392825  0.40468520  1
  N  N412  1  0.94393521  0.61107851  0.41064620  1
  N  N413  1  0.94706100  0.94477305  0.40555886  1
  N  N414  1  0.05459261  0.05362141  0.90878519  1
  N  N415  1  0.06984216  0.38936311  0.90111362  1
  N  N416  1  0.05563784  0.72402260  0.90378692  1
  N  N417  1  0.55554218  0.05487032  0.90606601  1
  N  N418  1  0.56982510  0.38781649  0.90307996  1
  N  N419  1  0.55672942  0.72276420  0.90898433  1
  N  N420  1  0.05938326  0.27300539  0.09930122  1
  N  N421  1  0.06761249  0.61027797  0.10545265  1
  N  N422  1  0.05669978  0.94328742  0.09742671  1
  N  N423  1  0.55598015  0.27539071  0.09325455  1
  N  N424  1  0.56424766  0.60956003  0.09853051  1
  N  N425  1  0.55689244  0.94152126  0.09334126  1
  N  N426  1  0.42912778  0.05514065  0.59967745  1
  N  N427  1  0.43155410  0.39056575  0.59931061  1
  N  N428  1  0.44384141  0.72233351  0.58777424  1
  N  N429  1  0.92977534  0.05807796  0.59358234  1
  N  N430  1  0.92887044  0.38822969  0.60203474  1
  N  N431  1  0.93766748  0.72227027  0.60286640  1
  N  N432  1  0.18919838  0.11191721  0.39740823  1
  N  N433  1  0.19463394  0.44261582  0.40514712  1
  N  N434  1  0.18340022  0.77751719  0.39723110  1
  N  N435  1  0.69471837  0.10955997  0.40866567  1
  N  N436  1  0.69703705  0.44232723  0.40764246  1
  N  N437  1  0.69006514  0.77241979  0.41720665  1
  N  N438  1  0.32630929  0.22183289  0.89440231  1
  N  N439  1  0.31240413  0.55439508  0.89718092  1
  N  N440  1  0.31825878  0.88863375  0.89999594  1
  N  N441  1  0.81446890  0.22384201  0.90723759  1
  N  N442  1  0.81013513  0.55440602  0.90506884  1
  N  N443  1  0.81891600  0.88900082  0.90038117  1
  N  N444  1  0.32382319  0.11060361  0.10497000  1
  N  N445  1  0.30434926  0.44145452  0.09341768  1
  N  N446  1  0.31771557  0.77792287  0.10250018  1
  N  N447  1  0.82369498  0.11042634  0.10470592  1
  N  N448  1  0.80579977  0.43985479  0.08898444  1
  N  N449  1  0.82621533  0.78098705  0.10830108  1
  N  N450  1  0.18504184  0.22181003  0.59505767  1
  N  N451  1  0.18383746  0.55650754  0.59605742  1
  N  N452  1  0.18274184  0.89046192  0.59654865  1
  N  N453  1  0.68567011  0.22267523  0.59634576  1
  N  N454  1  0.67879954  0.55677542  0.60294417  1
  N  N455  1  0.68073977  0.88622141  0.60570670  1
  Cl  Cl456  1  0.24717792  0.05378712  0.62744053  1
  Cl  Cl457  1  0.24618038  0.38460558  0.61666698  1
  Cl  Cl458  1  0.25823381  0.72845467  0.60289254  1
  Cl  Cl459  1  0.74178123  0.05517240  0.61814754  1
  Cl  Cl460  1  0.74589411  0.38272350  0.61974388  1
  Cl  Cl461  1  0.75398627  0.71680143  0.62303936  1
  Cl  Cl462  1  0.24220987  0.27705754  0.10687461  1
  Cl  Cl463  1  0.25318875  0.61152443  0.11535496  1
  Cl  Cl464  1  0.24247628  0.94537844  0.11659664  1
  Cl  Cl465  1  0.74744202  0.27649292  0.11084444  1
  Cl  Cl466  1  0.75591103  0.60822360  0.11704532  1
  Cl  Cl467  1  0.74422411  0.94811158  0.11934739  1
  Cl  Cl468  1  0.23712892  0.06082914  0.89056395  1
  Cl  Cl469  1  0.25655322  0.38160176  0.88074748  1
  Cl  Cl470  1  0.24054728  0.72087541  0.87516597  1
  Cl  Cl471  1  0.73981072  0.05541603  0.89253219  1
  Cl  Cl472  1  0.75395342  0.38822594  0.88407227  1
  Cl  Cl473  1  0.74110670  0.72454506  0.88926466  1
  Cl  Cl474  1  0.25167846  0.27601354  0.38602185  1
  Cl  Cl475  1  0.25386814  0.61588816  0.38179094  1
  Cl  Cl476  1  0.26167996  0.94260062  0.38252994  1
  Cl  Cl477  1  0.75069152  0.28018102  0.37803411  1
  Cl  Cl478  1  0.75915464  0.60681315  0.39514279  1
  Cl  Cl479  1  0.76402502  0.93726836  0.39338719  1
  Cl  Cl480  1  0.00103266  0.22397589  0.62458357  1
  Cl  Cl481  1  -0.01144468  0.56027378  0.60532610  1
  Cl  Cl482  1  -0.01157968  0.89160261  0.60692286  1
  Cl  Cl483  1  0.49859841  0.21590971  0.60925020  1
  Cl  Cl484  1  0.49716532  0.54965685  0.62272228  1
  Cl  Cl485  1  0.49546722  0.88136955  0.61696710  1
  Cl  Cl486  1  0.01156370  0.11086142  0.10343663  1
  Cl  Cl487  1  -0.00842121  0.44605421  0.11806374  1
  Cl  Cl488  1  0.00703005  0.78124475  0.11830539  1
  Cl  Cl489  1  0.51373264  0.10912684  0.11902059  1
  Cl  Cl490  1  0.49239858  0.44332087  0.11702570  1
  Cl  Cl491  1  0.51009120  0.77267797  0.10976368  1
  Cl  Cl492  1  0.01069428  0.22792969  0.90077314  1
  Cl  Cl493  1  -0.00484699  0.55728247  0.88903700  1
  Cl  Cl494  1  0.00396169  0.88669594  0.87282820  1
  Cl  Cl495  1  0.50409262  0.22153126  0.87483221  1
  Cl  Cl496  1  0.49538736  0.55138010  0.88858373  1
  Cl  Cl497  1  0.50525886  0.88288386  0.87919654  1
  Cl  Cl498  1  0.00642448  0.11424714  0.37328733  1
  Cl  Cl499  1  0.00919904  0.44482564  0.38837479  1
  Cl  Cl500  1  0.00160114  0.77902960  0.37968992  1
  Cl  Cl501  1  0.50587412  0.10653064  0.39344799  1
  Cl  Cl502  1  0.50783920  0.44444054  0.38907624  1
  Cl  Cl503  1  0.49393666  0.77162478  0.39640177  1
  Cl  Cl504  1  0.36048029  0.14681350  0.75540433  1
  Cl  Cl505  1  0.35985416  0.48081458  0.75050177  1
  Cl  Cl506  1  0.35954581  0.81371262  0.75291623  1
  Cl  Cl507  1  0.86227335  0.14586905  0.75052603  1
  Cl  Cl508  1  0.86010123  0.48024887  0.74715873  1
  Cl  Cl509  1  0.85799883  0.81457989  0.75022069  1
  Cl  Cl510  1  0.13916155  0.18765563  0.24858140  1
  Cl  Cl511  1  0.14339132  0.52279211  0.24878152  1
  Cl  Cl512  1  0.14309167  0.85278089  0.25746312  1
  Cl  Cl513  1  0.64528148  0.18303438  0.25073388  1
  Cl  Cl514  1  0.64027655  0.51976505  0.24570079  1
  Cl  Cl515  1  0.64668622  0.85119258  0.25710189  1
  Cl  Cl516  1  0.14078799  0.15061385  0.75221864  1
  Cl  Cl517  1  0.13798964  0.48186902  0.74775776  1
  Cl  Cl518  1  0.13858793  0.81484263  0.74494658  1
  Cl  Cl519  1  0.63742640  0.14779239  0.75470092  1
  Cl  Cl520  1  0.63801186  0.48065216  0.75006031  1
  Cl  Cl521  1  0.63616782  0.81363288  0.74529693  1
  Cl  Cl522  1  0.36149712  0.18878903  0.24327407  1
  Cl  Cl523  1  0.36563579  0.52112240  0.25125280  1
  Cl  Cl524  1  0.36558723  0.85253947  0.24279149  1
  Cl  Cl525  1  0.86795459  0.18934287  0.24246961  1
  Cl  Cl526  1  0.86165828  0.51785649  0.25371976  1
  Cl  Cl527  1  0.86481287  0.85484873  0.24935374  1
  Cl  Cl528  1  0.10823937  0.31716467  0.75000045  1
  Cl  Cl529  1  0.10927157  0.64721721  0.74496564  1
  Cl  Cl530  1  0.10666857  0.98234772  0.74809629  1
  Cl  Cl531  1  0.60940054  0.31354129  0.75186534  1
  Cl  Cl532  1  0.60852512  0.64718529  0.74920939  1
  Cl  Cl533  1  0.60991060  0.97948636  0.74593865  1
  Cl  Cl534  1  0.38945721  0.02127680  0.24666000  1
  Cl  Cl535  1  0.38768982  0.35393591  0.25460286  1
  Cl  Cl536  1  0.39538488  0.69011645  0.25160977  1
  Cl  Cl537  1  0.88815738  0.02254120  0.24651624  1
  Cl  Cl538  1  0.89441666  0.35438719  0.25002463  1
  Cl  Cl539  1  0.88963872  0.68879175  0.24880348  1
  Cl  Cl540  1  0.38976708  0.31478167  0.74706701  1
  Cl  Cl541  1  0.38739874  0.64746274  0.75435479  1
  Cl  Cl542  1  0.38869736  0.98177551  0.75241963  1
  Cl  Cl543  1  0.88916625  0.31473541  0.75334928  1
  Cl  Cl544  1  0.88798919  0.64659356  0.74736870  1
  Cl  Cl545  1  0.88615487  0.98099848  0.75286079  1
  Cl  Cl546  1  0.11198500  0.01853577  0.24967569  1
  Cl  Cl547  1  0.11125036  0.35328183  0.24942428  1
  Cl  Cl548  1  0.11300038  0.68526996  0.25004472  1
  Cl  Cl549  1  0.61023032  0.01930597  0.25752052  1
  Cl  Cl550  1  0.60726036  0.34916498  0.24436903  1
  Cl  Cl551  1  0.61292304  0.68467010  0.24843495  1
