# generated using pymatgen
data_H8PbC4(N3Cl2)2
_symmetry_space_group_name_H-M   'P 1'
_cell_length_a   16.64140622
_cell_length_b   22.54170553
_cell_length_c   21.60445979
_cell_angle_alpha   90.00701100
_cell_angle_beta   90.02432391
_cell_angle_gamma   90.01590371
_symmetry_Int_Tables_number   1
_chemical_formula_structural   H8PbC4(N3Cl2)2
_chemical_formula_sum   'H192 Pb24 C96 N144 Cl96'
_cell_volume   8104.38653671
_cell_formula_units_Z   24
loop_
 _symmetry_equiv_pos_site_id
 _symmetry_equiv_pos_as_xyz
  1  'x, y, z'
loop_
 _atom_site_type_symbol
 _atom_site_label
 _atom_site_symmetry_multiplicity
 _atom_site_fract_x
 _atom_site_fract_y
 _atom_site_fract_z
 _atom_site_occupancy
  H  H0  1  0.01244239  0.02954262  0.67301767  1
  H  H1  1  -0.00745139  0.35823377  0.67679690  1
  H  H2  1  -0.00518174  0.68920083  0.67936972  1
  H  H3  1  0.48933276  0.02418537  0.67804358  1
  H  H4  1  0.50313461  0.35691952  0.67420679  1
  H  H5  1  0.49591026  0.69250125  0.67693821  1
  H  H6  1  -0.03781991  0.30471015  0.16017653  1
  H  H7  1  -0.02122686  0.63483837  0.17432305  1
  H  H8  1  0.00613702  0.97654102  0.17724341  1
  H  H9  1  0.45931910  0.30867196  0.15503849  1
  H  H10  1  0.47610713  0.63544976  0.15439679  1
  H  H11  1  0.49978540  0.96368634  0.18221347  1
  H  H12  1  0.01370379  0.02044233  0.83014355  1
  H  H13  1  -0.00676171  0.36237825  0.81645799  1
  H  H14  1  -0.00038197  0.69127894  0.82508695  1
  H  H15  1  0.48108597  0.03149195  0.81922266  1
  H  H16  1  0.49222369  0.36581729  0.82492708  1
  H  H17  1  0.49770533  0.69525937  0.81893692  1
  H  H18  1  0.00660968  0.30735102  0.32971248  1
  H  H19  1  0.00361558  0.63210570  0.31963113  1
  H  H20  1  -0.00250328  0.96802284  0.32182985  1
  H  H21  1  0.50054180  0.30417732  0.31792862  1
  H  H22  1  0.48850351  0.64418570  0.32031306  1
  H  H23  1  0.49324381  0.97075113  0.32485672  1
  H  H24  1  0.25614477  0.19999849  0.68188994  1
  H  H25  1  0.25322842  0.52658732  0.67960999  1
  H  H26  1  0.24380238  0.86105260  0.67464307  1
  H  H27  1  0.74157074  0.19730489  0.67298542  1
  H  H28  1  0.75228892  0.52636875  0.67855536  1
  H  H29  1  0.75894990  0.85848775  0.67705595  1
  H  H30  1  0.26618976  0.14230579  0.17898775  1
  H  H31  1  0.24420753  0.47097476  0.17993952  1
  H  H32  1  0.24765534  0.80912686  0.17353290  1
  H  H33  1  0.73532964  0.13868728  0.17267533  1
  H  H34  1  0.76257206  0.47188617  0.18000355  1
  H  H35  1  0.74921527  0.80506819  0.17381576  1
  H  H36  1  0.28904676  0.20523911  0.83638014  1
  H  H37  1  0.27318203  0.52255967  0.84636838  1
  H  H38  1  0.24588059  0.86463455  0.81846350  1
  H  H39  1  0.78691621  0.19923364  0.83849587  1
  H  H40  1  0.77209474  0.52736351  0.82541492  1
  H  H41  1  0.74309570  0.86501166  0.82553917  1
  H  H42  1  0.25626738  0.15255084  0.32684732  1
  H  H43  1  0.23719937  0.47485649  0.32873726  1
  H  H44  1  0.23564943  0.80145985  0.32019534  1
  H  H45  1  0.74510921  0.14047812  0.32231457  1
  H  H46  1  0.74754584  0.47318614  0.32268513  1
  H  H47  1  0.76811861  0.80376160  0.31876000  1
  H  H48  1  0.11428933  0.06244256  0.58853323  1
  H  H49  1  0.12115102  0.38389820  0.61038262  1
  H  H50  1  0.12133060  0.71786304  0.61191754  1
  H  H51  1  0.61532972  0.05665885  0.61473256  1
  H  H52  1  0.62058857  0.38739065  0.59986535  1
  H  H53  1  0.62234246  0.72320097  0.61036883  1
  H  H54  1  0.32546172  0.28116034  0.09473190  1
  H  H55  1  0.33773077  0.61336353  0.10226771  1
  H  H56  1  0.37140148  0.94211539  0.11523166  1
  H  H57  1  0.82994370  0.27943551  0.09992730  1
  H  H58  1  0.84518154  0.61238378  0.11582788  1
  H  H59  1  0.87463752  0.94997535  0.11443837  1
  H  H60  1  0.36786575  0.06979104  0.89222955  1
  H  H61  1  0.37586878  0.39123442  0.90051067  1
  H  H62  1  0.36260519  0.71936337  0.87791637  1
  H  H63  1  0.87232528  0.04837057  0.87703203  1
  H  H64  1  0.87807505  0.39072491  0.89441222  1
  H  H65  1  0.86453947  0.72090575  0.88119314  1
  H  H66  1  0.11387731  0.27597303  0.40933439  1
  H  H67  1  0.12550940  0.60805243  0.39339179  1
  H  H68  1  0.10330565  0.94018448  0.40436114  1
  H  H69  1  0.61381770  0.27606992  0.39750341  1
  H  H70  1  0.62267438  0.62036356  0.38066115  1
  H  H71  1  0.61075086  0.94138254  0.39961516  1
  H  H72  1  0.38983157  0.22088609  0.62050036  1
  H  H73  1  0.36968129  0.55625102  0.60274814  1
  H  H74  1  0.38765065  0.87991536  0.62877820  1
  H  H75  1  0.88218015  0.21401947  0.62416368  1
  H  H76  1  0.87383395  0.55202572  0.60807987  1
  H  H77  1  0.88812584  0.88602528  0.61216916  1
  H  H78  1  0.13778343  0.11637352  0.11217548  1
  H  H79  1  0.12079424  0.44267033  0.11029643  1
  H  H80  1  0.14020825  0.77657176  0.09296030  1
  H  H81  1  0.63444546  0.10928163  0.08632070  1
  H  H82  1  0.62613021  0.45137847  0.12075011  1
  H  H83  1  0.64429648  0.77320359  0.09051765  1
  H  H84  1  0.17295538  0.22642987  0.91221833  1
  H  H85  1  0.16625551  0.56591403  0.92162603  1
  H  H86  1  0.12951836  0.89160948  0.89652511  1
  H  H87  1  0.67249110  0.22729367  0.91369143  1
  H  H88  1  0.65544702  0.55370366  0.89999608  1
  H  H89  1  0.62692690  0.89065292  0.90143251  1
  H  H90  1  0.38384907  0.11834140  0.38823431  1
  H  H91  1  0.37239296  0.44968169  0.38664267  1
  H  H92  1  0.37632366  0.78329279  0.37414574  1
  H  H93  1  0.88192350  0.11698870  0.38071868  1
  H  H94  1  0.87655107  0.44559795  0.38746991  1
  H  H95  1  0.87152382  0.77584319  0.40189343  1
  H  H96  1  0.36628805  0.28352131  0.37844686  1
  H  H97  1  0.37536144  0.61345041  0.39764946  1
  H  H98  1  0.36315130  0.94473147  0.39002627  1
  H  H99  1  0.86855808  0.28668199  0.38122869  1
  H  H100  1  0.87726193  0.61099347  0.38896942  1
  H  H101  1  0.85785647  0.95283961  0.37457222  1
  H  H102  1  0.11343393  0.05735133  0.91489679  1
  H  H103  1  0.12575408  0.38615312  0.88142017  1
  H  H104  1  0.11115758  0.72508620  0.90138281  1
  H  H105  1  0.61170129  0.04137545  0.88741741  1
  H  H106  1  0.62352803  0.38385500  0.88632759  1
  H  H107  1  0.60967308  0.72761860  0.89589798  1
  H  H108  1  0.07814392  0.27522434  0.08700301  1
  H  H109  1  0.09306973  0.60878447  0.09804692  1
  H  H110  1  0.12278231  0.94060734  0.10587128  1
  H  H111  1  0.57223792  0.27063255  0.08223790  1
  H  H112  1  0.58341894  0.59803353  0.07660119  1
  H  H113  1  0.61985749  0.94797567  0.10417082  1
  H  H114  1  0.36725812  0.05141081  0.60526899  1
  H  H115  1  0.37262038  0.38589502  0.61024414  1
  H  H116  1  0.37453590  0.72373352  0.60472445  1
  H  H117  1  0.87107026  0.05207448  0.62403160  1
  H  H118  1  0.87281654  0.38543181  0.60438897  1
  H  H119  1  0.87250238  0.72126041  0.61221039  1
  H  H120  1  0.13650528  0.11378171  0.39391957  1
  H  H121  1  0.12657233  0.43927218  0.40661862  1
  H  H122  1  0.13096030  0.77198259  0.40436116  1
  H  H123  1  0.63537766  0.10978348  0.40183862  1
  H  H124  1  0.62790272  0.44453935  0.39650484  1
  H  H125  1  0.62719989  0.78859607  0.37018296  1
  H  H126  1  0.42113242  0.22465795  0.89761924  1
  H  H127  1  0.41136521  0.54744798  0.89761928  1
  H  H128  1  0.37730946  0.88773186  0.88362883  1
  H  H129  1  0.92077764  0.21919686  0.89883522  1
  H  H130  1  0.90371600  0.55032196  0.88606878  1
  H  H131  1  0.87476891  0.88693470  0.88518796  1
  H  H132  1  0.38613433  0.10620423  0.11077140  1
  H  H133  1  0.36989105  0.44430740  0.11007118  1
  H  H134  1  0.38532400  0.78377277  0.12094453  1
  H  H135  1  0.87627184  0.11268847  0.12630354  1
  H  H136  1  0.87290547  0.44053691  0.10106330  1
  H  H137  1  0.88914668  0.78381684  0.12208172  1
  H  H138  1  0.14153895  0.22313835  0.60129408  1
  H  H139  1  0.12211567  0.54976283  0.61492431  1
  H  H140  1  0.14583443  0.89593207  0.58853344  1
  H  H141  1  0.63891912  0.22634403  0.58948105  1
  H  H142  1  0.62498212  0.55121467  0.61364300  1
  H  H143  1  0.63945734  0.88947256  0.60410477  1
  H  H144  1  0.45017498  0.12160129  0.97523104  1
  H  H145  1  0.20817263  0.74368527  0.50656615  1
  H  H146  1  0.88965143  0.75023700  0.99139038  1
  H  H147  1  0.54616568  0.76185681  1.00018951  1
  H  H148  1  0.03336032  0.57599548  -0.00924361  1
  H  H149  1  0.03484375  0.08680615  0.48967230  1
  H  H150  1  0.79746455  0.74945561  0.50748614  1
  H  H151  1  0.18491961  0.09177405  0.00520791  1
  H  H152  1  0.19693085  0.09439010  0.49846693  1
  H  H153  1  0.39650139  0.25379154  0.49022386  1
  H  H154  1  0.82561644  0.58481772  0.49940192  1
  H  H155  1  0.59257407  0.41454498  0.99988159  1
  H  H156  1  0.84417927  0.92097837  0.99772250  1
  H  H157  1  0.50918014  0.24496312  -0.02139604  1
  H  H158  1  0.21295919  0.75286398  -0.00912841  1
  H  H159  1  0.07247675  0.73881638  0.50411188  1
  H  H160  1  0.55012966  0.03341293  0.99443869  1
  H  H161  1  0.87162896  0.92265499  0.48904146  1
  H  H162  1  0.87345830  0.57983470  1.00081156  1
  H  H163  1  0.42401009  0.05879275  0.49793416  1
  H  H164  1  0.03326209  0.91349578  0.50923288  1
  H  H165  1  0.38942745  0.74971852  0.98687380  1
  H  H166  1  0.07110889  0.57639119  0.49535974  1
  H  H167  1  0.41487995  0.41642325  0.50589354  1
  H  H168  1  0.23519974  0.59003667  1.02454629  1
  H  H169  1  0.04645079  0.75955533  1.00589951  1
  H  H170  1  0.33335270  0.05904112  0.00963649  1
  H  H171  1  0.43967132  0.58129612  0.50162973  1
  H  H172  1  0.66269000  0.58472576  0.50363736  1
  H  H173  1  0.02499289  0.24340014  -0.02136565  1
  H  H174  1  0.57291724  0.09138165  0.50511698  1
  H  H175  1  0.19567290  0.41042523  0.50617669  1
  H  H176  1  0.41308678  0.91907798  0.00349720  1
  H  H177  1  0.72009974  0.75016464  -0.01027912  1
  H  H178  1  0.32232520  0.11609639  0.49709452  1
  H  H179  1  0.40041313  0.91384195  0.49774124  1
  H  H180  1  0.02811937  0.08247220  1.01231588  1
  H  H181  1  0.83545017  0.41132226  0.49562404  1
  H  H182  1  0.71197808  0.58218680  1.00936485  1
  H  H183  1  0.72750391  0.26136777  1.02044568  1
  H  H184  1  0.51363955  0.57335446  -0.02576687  1
  H  H185  1  0.22816671  0.91840385  0.49031975  1
  H  H186  1  0.71534530  0.08194284  -0.01122688  1
  H  H187  1  0.17055284  0.41024322  0.00308761  1
  H  H188  1  0.92108746  0.75786344  0.50429561  1
  H  H189  1  0.87872126  0.24394011  0.50083370  1
  H  H190  1  0.70568882  0.08062563  0.50673284  1
  H  H191  1  0.22668655  0.25753965  1.02121361  1
  Pb  Pb192  1  0.24818950  0.05613138  0.75423461  1
  Pb  Pb193  1  0.25437516  0.38104014  0.74905462  1
  Pb  Pb194  1  0.25091506  0.71650725  0.75114084  1
  Pb  Pb195  1  0.74850098  0.05171386  0.75470112  1
  Pb  Pb196  1  0.75263733  0.38333397  0.74839671  1
  Pb  Pb197  1  0.75053114  0.71556097  0.75562723  1
  Pb  Pb198  1  0.23619324  0.28566134  0.24865921  1
  Pb  Pb199  1  0.24952206  0.61712510  0.25085690  1
  Pb  Pb200  1  0.24440066  0.94896826  0.25757457  1
  Pb  Pb201  1  0.74050715  0.28239498  0.24687872  1
  Pb  Pb202  1  0.73736761  0.61447201  0.24333394  1
  Pb  Pb203  1  0.74779488  0.95059330  0.24435750  1
  Pb  Pb204  1  0.00931979  0.21434731  0.74979103  1
  Pb  Pb205  1  0.01000356  0.54911291  0.75502887  1
  Pb  Pb206  1  0.00406199  0.88522898  0.74778564  1
  Pb  Pb207  1  0.51518976  0.21650878  0.75379810  1
  Pb  Pb208  1  0.50384340  0.54840187  0.74774344  1
  Pb  Pb209  1  0.50749257  0.88386693  0.75278070  1
  Pb  Pb210  1  0.00067849  0.11930299  0.25124850  1
  Pb  Pb211  1  -0.00422566  0.44905817  0.25051593  1
  Pb  Pb212  1  0.00151934  0.77817943  0.25408558  1
  Pb  Pb213  1  0.50009876  0.11345415  0.24856814  1
  Pb  Pb214  1  0.49290837  0.44805791  0.25159894  1
  Pb  Pb215  1  0.50193633  0.78408525  0.23735864  1
  C  C216  1  -0.00062705  0.04568153  0.62694095  1
  C  C217  1  -0.00405554  0.37512570  0.63011277  1
  C  C218  1  -0.00304264  0.70721873  0.63272470  1
  C  C219  1  0.48990747  0.04194589  0.63130224  1
  C  C220  1  0.49838266  0.37542759  0.62807146  1
  C  C221  1  0.49738765  0.71145404  0.63084352  1
  C  C222  1  -0.04374700  0.28688027  0.11363387  1
  C  C223  1  -0.02787694  0.61856028  0.12720517  1
  C  C224  1  0.00094973  0.95639826  0.13209881  1
  C  C225  1  0.45211207  0.28843857  0.10953103  1
  C  C226  1  0.46578883  0.61673963  0.10859322  1
  C  C227  1  0.49714046  0.95127098  0.13370443  1
  C  C228  1  -0.00007487  0.03968791  0.87488467  1
  C  C229  1  -0.00073697  0.37861015  0.86361445  1
  C  C230  1  -0.00934783  0.71018406  0.87095025  1
  C  C231  1  0.48699729  0.04666189  0.86666187  1
  C  C232  1  0.49786381  0.37983926  0.87267128  1
  C  C233  1  0.48908424  0.71207075  0.86564662  1
  C  C234  1  -0.00410891  0.29037351  0.37592706  1
  C  C235  1  0.00247800  0.61688494  0.36723677  1
  C  C236  1  -0.01429967  0.95389030  0.36900905  1
  C  C237  1  0.49341468  0.28892283  0.36513115  1
  C  C238  1  0.49569180  0.62692339  0.36683167  1
  C  C239  1  0.48820903  0.95339262  0.37152237  1
  C  C240  1  0.26222062  0.21465290  0.63444126  1
  C  C241  1  0.24851044  0.54311650  0.63262329  1
  C  C242  1  0.25909410  0.87751063  0.62891005  1
  C  C243  1  0.75487059  0.21267816  0.62648546  1
  C  C244  1  0.75026185  0.54307161  0.63140624  1
  C  C245  1  0.76217644  0.87669308  0.63092038  1
  C  C246  1  0.26272718  0.12331665  0.13275740  1
  C  C247  1  0.24511308  0.45379379  0.13303197  1
  C  C248  1  0.25772554  0.79215455  0.12716895  1
  C  C249  1  0.74882241  0.12212185  0.12683249  1
  C  C250  1  0.75344879  0.45549211  0.13354974  1
  C  C251  1  0.76070672  0.78955735  0.12708637  1
  C  C252  1  0.29470506  0.21943005  0.88429702  1
  C  C253  1  0.28336672  0.54293100  0.89137691  1
  C  C254  1  0.25085682  0.88073062  0.86560660  1
  C  C255  1  0.79387782  0.21595310  0.88542539  1
  C  C256  1  0.77708588  0.54319240  0.87279248  1
  C  C257  1  0.74897621  0.88102808  0.87255234  1
  C  C258  1  0.25899796  0.13092878  0.37164504  1
  C  C259  1  0.24509060  0.45587407  0.37443305  1
  C  C260  1  0.24786171  0.78628855  0.36694310  1
  C  C261  1  0.75443548  0.12383489  0.36890102  1
  C  C262  1  0.75070693  0.45536477  0.36919692  1
  C  C263  1  0.75555008  0.78999630  0.36580412  1
  C  C264  1  0.77517039  0.42402767  0.03902463  1
  C  C265  1  0.91862454  0.59058215  0.03868275  1
  C  C266  1  -0.01123328  0.25566124  0.01887311  1
  C  C267  1  0.01568271  0.74575398  0.96374866  1
  C  C268  1  0.81964313  0.23748136  0.54132288  1
  C  C269  1  0.90580824  0.25815337  0.02257158  1
  C  C270  1  0.46649048  0.40640380  0.96809767  1
  C  C271  1  0.80505822  0.90825617  0.54100426  1
  C  C272  1  0.00346530  0.92586594  0.46620628  1
  C  C273  1  0.93546931  0.26087738  0.46139840  1
  C  C274  1  0.44313348  0.26251693  0.45420694  1
  C  C275  1  0.31208211  0.24106047  0.54499884  1
  C  C276  1  0.34510788  0.24383879  0.97616417  1
  C  C277  1  0.70502276  0.57308861  0.54014676  1
  C  C278  1  0.26218022  0.24561867  0.98054521  1
  C  C279  1  0.73500770  0.09281046  0.46345099  1
  C  C280  1  0.20911772  0.42277067  0.04159790  1
  C  C281  1  0.82826285  0.56907210  0.96285660  1
  C  C282  1  0.45459581  0.93022676  0.04072093  1
  C  C283  1  0.29840138  0.08169191  0.04483708  1
  C  C284  1  0.01586992  0.25732489  0.47019230  1
  C  C285  1  0.79307944  0.42349015  0.45869838  1
  C  C286  1  0.54784004  0.40466539  0.96453537  1
  C  C287  1  0.84600023  0.24512518  0.97565298  1
  C  C288  1  0.31883137  0.76307377  0.04123215  1
  C  C289  1  0.76320539  0.24836678  0.98007134  1
  C  C290  1  0.69041901  0.76748169  0.45129628  1
  C  C291  1  0.76979295  0.76235055  0.46388720  1
  C  C292  1  0.47227595  0.59469036  0.46023585  1
  C  C293  1  0.78706059  0.57313232  0.53809181  1
  C  C294  1  0.53428178  0.07334826  0.54109071  1
  C  C295  1  0.51464696  0.74671853  0.95876680  1
  C  C296  1  0.92261438  0.93077596  0.45602676  1
  C  C297  1  0.02969288  0.91680452  0.04231200  1
  C  C298  1  0.71826401  0.91203375  0.96657476  1
  C  C299  1  0.73982671  0.24184015  0.53038354  1
  C  C300  1  0.96283558  0.40681566  0.53760976  1
  C  C301  1  0.79954836  0.91079721  0.96254885  1
  C  C302  1  0.32893741  0.90361757  0.54608424  1
  C  C303  1  -0.00046249  0.58851444  0.03200601  1
  C  C304  1  0.81618892  0.08881060  0.04492362  1
  C  C305  1  0.40497293  0.58577990  0.02324225  1
  C  C306  1  0.82401929  0.76207231  0.04198356  1
  C  C307  1  0.34399378  0.57391407  0.97677173  1
  C  C308  1  0.74717085  0.57092964  0.96835936  1
  C  C309  1  0.23482569  0.75620331  0.46242508  1
  C  C310  1  0.95761554  0.74173969  0.54241097  1
  C  C311  1  0.93263687  0.07597351  0.54348421  1
  N  N312  1  0.40073465  0.25409791  0.02306595  1
  N  N313  1  0.52188819  0.92118456  0.46411329  1
  N  N314  1  0.23514660  0.24207351  0.53733030  1
  N  N315  1  0.95242700  0.92040509  0.04384964  1
  N  N316  1  0.00994738  0.07798099  0.53246616  1
  N  N317  1  0.28849350  0.42258366  0.04137236  1
  N  N318  1  0.27705880  0.57480168  0.53866714  1
  N  N319  1  0.22347724  0.08468448  0.45631959  1
  N  N320  1  0.24049753  0.75991415  0.03324681  1
  N  N321  1  0.25172088  0.91057736  0.53454171  1
  N  N322  1  0.20038283  0.57242957  0.54258449  1
  N  N323  1  0.31272420  0.75908112  0.45224904  1
  N  N324  1  0.45493426  0.40861950  0.54116991  1
  N  N325  1  0.97123265  0.40928173  0.95800704  1
  N  N326  1  0.53914033  0.74726293  0.54144247  1
  N  N327  1  0.52180745  0.25903277  0.46078948  1
  N  N328  1  0.22471457  0.41915892  0.46507386  1
  N  N329  1  0.48481217  0.57767271  0.01718348  1
  N  N330  1  0.53669962  0.06332021  0.95964129  1
  N  N331  1  0.30252561  0.42380897  0.46003927  1
  N  N332  1  0.48064328  0.24354404  0.02217187  1
  N  N333  1  0.04043951  0.40679740  0.53854802  1
  N  N334  1  0.73913687  0.08962043  0.03243446  1
  N  N335  1  0.55116245  0.59685306  0.45498925  1
  N  N336  1  0.21929252  0.08874485  0.04450610  1
  N  N337  1  0.53348955  0.93552895  0.03591100  1
  N  N338  1  0.72765041  0.90991877  0.53755739  1
  N  N339  1  0.71404757  0.42225980  0.46204813  1
  N  N340  1  0.93249330  0.07415659  0.95500013  1
  N  N341  1  0.29842249  0.91091250  0.95556874  1
  N  N342  1  0.93689042  0.74308816  0.95619260  1
  N  N343  1  0.30624192  0.09233989  0.45807796  1
  N  N344  1  0.44418074  0.92316013  0.46019738  1
  N  N345  1  0.00889100  0.07665906  0.96670397  1
  N  N346  1  0.45533383  0.07835232  0.96031868  1
  N  N347  1  0.03726189  0.73982013  0.54296991  1
  N  N348  1  0.81349543  0.09463213  0.45607207  1
  N  N349  1  0.03548653  0.59061744  0.45948896  1
  N  N350  1  0.22232507  0.91141192  0.95996193  1
  N  N351  1  0.69827777  0.42724896  0.04442094  1
  N  N352  1  0.43579112  0.74243494  0.95210400  1
  N  N353  1  0.26444875  0.58363986  0.98208916  1
  N  N354  1  0.46316464  0.74751821  0.53969087  1
  N  N355  1  0.53275460  0.40918522  0.53589076  1
  N  N356  1  0.95716260  0.59058319  0.45930800  1
  N  N357  1  0.74598408  0.75726124  0.03298791  1
  N  N358  1  0.45466121  0.06872857  0.53776376  1
  N  N359  1  0.04741240  0.40700850  0.95397409  1
  N  N360  1  0.05243891  0.05701743  0.58291782  1
  N  N361  1  0.06105501  0.38634290  0.59733839  1
  N  N362  1  0.06130429  0.71526871  0.59780887  1
  N  N363  1  0.55589826  0.05793187  0.59905414  1
  N  N364  1  0.55934296  0.38928377  0.59071576  1
  N  N365  1  0.56213320  0.72483279  0.59787150  1
  N  N366  1  0.38431435  0.27856182  0.07968735  1
  N  N367  1  0.39376736  0.60779772  0.08177414  1
  N  N368  1  0.43082711  0.94065098  0.10024789  1
  N  N369  1  0.88787882  0.27751490  0.08286001  1
  N  N370  1  0.90205384  0.60904047  0.09733296  1
  N  N371  1  0.93426617  0.94496676  0.10118614  1
  N  N372  1  0.42924683  0.07028428  0.90063319  1
  N  N373  1  0.43643410  0.39172102  0.91264969  1
  N  N374  1  0.42042841  0.71900088  0.89550912  1
  N  N375  1  0.92772443  0.05299622  0.89709082  1
  N  N376  1  0.94003344  0.39165891  0.90241820  1
  N  N377  1  0.92170869  0.71898860  0.89979133  1
  N  N378  1  0.05229907  0.27508931  0.41821336  1
  N  N379  1  0.06443209  0.60474513  0.40336242  1
  N  N380  1  0.04152560  0.94039386  0.41161411  1
  N  N381  1  0.55154499  0.27610794  0.40496421  1
  N  N382  1  0.56399576  0.61700551  0.39657989  1
  N  N383  1  0.54906752  0.93965380  0.40906524  1
  N  N384  1  0.33153035  0.22456441  0.60378167  1
  N  N385  1  0.30783187  0.55699500  0.59446836  1
  N  N386  1  0.33372604  0.88505771  0.60560472  1
  N  N387  1  0.82782926  0.21992246  0.60179258  1
  N  N388  1  0.81371188  0.55451597  0.59518848  1
  N  N389  1  0.82891403  0.88867802  0.59797554  1
  N  N390  1  0.19782956  0.11748140  0.09787713  1
  N  N391  1  0.18098950  0.44209067  0.09740256  1
  N  N392  1  0.20215110  0.78061920  0.08534715  1
  N  N393  1  0.69661427  0.11244550  0.08176812  1
  N  N394  1  0.68456746  0.44691578  0.10459919  1
  N  N395  1  0.70640025  0.77743256  0.08441521  1
  N  N396  1  0.23364452  0.23026216  0.92343658  1
  N  N397  1  0.22749829  0.56016881  0.93103717  1
  N  N398  1  0.19139342  0.89250096  0.90457816  1
  N  N399  1  0.73348647  0.22995897  0.92420932  1
  N  N400  1  0.71622301  0.55465328  0.91142701  1
  N  N401  1  0.68778082  0.89408178  0.91236893  1
  N  N402  1  0.32497949  0.12059280  0.40379893  1
  N  N403  1  0.31419023  0.44455057  0.40275248  1
  N  N404  1  0.31896737  0.77784464  0.39295787  1
  N  N405  1  0.82380270  0.11427200  0.39720736  1
  N  N406  1  0.81715333  0.44339573  0.40190341  1
  N  N407  1  0.80995211  0.77681876  0.40915912  1
  N  N408  1  0.42431911  0.28029265  0.39552169  1
  N  N409  1  0.43680761  0.61272013  0.40650044  1
  N  N410  1  0.42232605  0.94378126  0.40408422  1
  N  N411  1  0.92413361  0.28128280  0.40222392  1
  N  N412  1  0.93752216  0.60785178  0.40186847  1
  N  N413  1  0.91349088  0.94813192  0.39543428  1
  N  N414  1  0.05140182  0.05296386  0.91966101  1
  N  N415  1  0.06595980  0.38793137  0.89544570  1
  N  N416  1  0.04942478  0.72604314  0.91069046  1
  N  N417  1  0.55190686  0.04220488  0.90163325  1
  N  N418  1  0.56599306  0.38777773  0.90409230  1
  N  N419  1  0.54807741  0.72779146  0.90529518  1
  N  N420  1  0.01737521  0.27322342  0.07542034  1
  N  N421  1  0.03197854  0.60625560  0.08786800  1
  N  N422  1  0.06194495  0.93843807  0.09527762  1
  N  N423  1  0.51119695  0.27227136  0.07173662  1
  N  N424  1  0.52157928  0.60163329  0.06798166  1
  N  N425  1  0.55833294  0.94625962  0.09487469  1
  N  N426  1  0.42764699  0.04659303  0.59349411  1
  N  N427  1  0.43230099  0.38675769  0.59628219  1
  N  N428  1  0.43559744  0.72499404  0.59492277  1
  N  N429  1  0.92579156  0.05674702  0.60231331  1
  N  N430  1  0.93325119  0.38814377  0.59287566  1
  N  N431  1  0.93257461  0.72291577  0.59839594  1
  N  N432  1  0.19725248  0.11514264  0.40646183  1
  N  N433  1  0.18827617  0.44122860  0.41440645  1
  N  N434  1  0.19319010  0.77295503  0.41054924  1
  N  N435  1  0.69705717  0.11027429  0.41024340  1
  N  N436  1  0.68922079  0.44233561  0.40588898  1
  N  N437  1  0.68223262  0.78361661  0.39219075  1
  N  N438  1  0.36340383  0.22728143  0.91542802  1
  N  N439  1  0.35537807  0.55075460  0.91869494  1
  N  N440  1  0.31751252  0.89240618  0.89687931  1
  N  N441  1  0.86282471  0.22501531  0.91549165  1
  N  N442  1  0.84631658  0.55213700  0.90393000  1
  N  N443  1  0.81732259  0.89144881  0.90296500  1
  N  N444  1  0.32542248  0.10260628  0.09953284  1
  N  N445  1  0.30905528  0.44194086  0.09855419  1
  N  N446  1  0.32977632  0.78136426  0.10026529  1
  N  N447  1  0.82242012  0.10848447  0.10366303  1
  N  N448  1  0.81132316  0.44086160  0.09247754  1
  N  N449  1  0.83351047  0.78066091  0.10099515  1
  N  N450  1  0.20387124  0.22581440  0.59475644  1
  N  N451  1  0.18175453  0.55251796  0.60067077  1
  N  N452  1  0.20793309  0.89156348  0.58460828  1
  N  N453  1  0.70067775  0.22687689  0.58215139  1
  N  N454  1  0.68373668  0.55457629  0.59839494  1
  N  N455  1  0.70112788  0.88956953  0.59423464  1
  Cl  Cl456  1  0.23977945  0.06881966  0.60162659  1
  Cl  Cl457  1  0.24784283  0.39013877  0.61160707  1
  Cl  Cl458  1  0.24595370  0.72606488  0.61578913  1
  Cl  Cl459  1  0.73884386  0.06065697  0.62205271  1
  Cl  Cl460  1  0.74735260  0.38885374  0.61469987  1
  Cl  Cl461  1  0.75011025  0.72558487  0.62316452  1
  Cl  Cl462  1  0.20176918  0.27920122  0.11346016  1
  Cl  Cl463  1  0.21519064  0.61294664  0.11366735  1
  Cl  Cl464  1  0.24709788  0.94580352  0.12614858  1
  Cl  Cl465  1  0.69582043  0.27635442  0.11308357  1
  Cl  Cl466  1  0.70184699  0.60748993  0.11020035  1
  Cl  Cl467  1  0.74607442  0.94889409  0.10860969  1
  Cl  Cl468  1  0.23752234  0.06711316  0.89900913  1
  Cl  Cl469  1  0.25010154  0.39219098  0.88179918  1
  Cl  Cl470  1  0.23316710  0.72772333  0.89409500  1
  Cl  Cl471  1  0.73365078  0.05902956  0.89264127  1
  Cl  Cl472  1  0.75550048  0.38803580  0.88040549  1
  Cl  Cl473  1  0.73221748  0.73146575  0.89397926  1
  Cl  Cl474  1  0.23683289  0.27825781  0.37953611  1
  Cl  Cl475  1  0.24850084  0.61189558  0.38220495  1
  Cl  Cl476  1  0.23046307  0.93793964  0.39804313  1
  Cl  Cl477  1  0.73641079  0.27448129  0.37799481  1
  Cl  Cl478  1  0.75392812  0.61406153  0.37658654  1
  Cl  Cl479  1  0.72961228  0.94784648  0.37416835  1
  Cl  Cl480  1  0.01910872  0.21542812  0.61836523  1
  Cl  Cl481  1  -0.00064902  0.55566221  0.62025395  1
  Cl  Cl482  1  0.02061564  0.89078723  0.61202165  1
  Cl  Cl483  1  0.51628574  0.21988005  0.62303125  1
  Cl  Cl484  1  0.49259579  0.55519862  0.61474452  1
  Cl  Cl485  1  0.51688592  0.89444017  0.62153343  1
  Cl  Cl486  1  0.01641012  0.10181113  0.10967405  1
  Cl  Cl487  1  -0.00436615  0.43564073  0.11941739  1
  Cl  Cl488  1  0.01971688  0.77525218  0.11504081  1
  Cl  Cl489  1  0.51114767  0.10698346  0.10633651  1
  Cl  Cl490  1  0.49614139  0.44756211  0.11778758  1
  Cl  Cl491  1  0.52103942  0.77022360  0.10224466  1
  Cl  Cl492  1  0.04844604  0.21512348  0.88408641  1
  Cl  Cl493  1  0.04596301  0.56283253  0.88755474  1
  Cl  Cl494  1  0.00727301  0.89142135  0.87972047  1
  Cl  Cl495  1  0.54673226  0.21983557  0.89551447  1
  Cl  Cl496  1  0.53331576  0.55848542  0.88412135  1
  Cl  Cl497  1  0.50143083  0.88625875  0.88661943  1
  Cl  Cl498  1  0.01564188  0.10757110  0.38912138  1
  Cl  Cl499  1  0.00478197  0.44054202  0.38458070  1
  Cl  Cl500  1  0.00533800  0.76671083  0.39635976  1
  Cl  Cl501  1  0.50821929  0.10421801  0.38819293  1
  Cl  Cl502  1  0.49743774  0.44626993  0.38535466  1
  Cl  Cl503  1  0.49942563  0.78442752  0.36447425  1
  Cl  Cl504  1  0.38463139  0.13840622  0.76831349  1
  Cl  Cl505  1  0.37230019  0.47711524  0.76483319  1
  Cl  Cl506  1  0.37544174  0.80833650  0.74950270  1
  Cl  Cl507  1  0.87579149  0.14318808  0.75426159  1
  Cl  Cl508  1  0.87524182  0.47690002  0.75314754  1
  Cl  Cl509  1  0.87468364  0.80819220  0.76182408  1
  Cl  Cl510  1  0.14660537  0.17382994  0.24873816  1
  Cl  Cl511  1  0.14070986  0.51364477  0.25371071  1
  Cl  Cl512  1  0.14233029  0.84269376  0.24863474  1
  Cl  Cl513  1  0.64180075  0.17357496  0.25098453  1
  Cl  Cl514  1  0.64725661  0.51068241  0.25319359  1
  Cl  Cl515  1  0.64548994  0.84391363  0.24326167  1
  Cl  Cl516  1  0.16900321  0.15868030  0.75506407  1
  Cl  Cl517  1  0.14957882  0.48579255  0.74790699  1
  Cl  Cl518  1  0.14733070  0.82190027  0.74759395  1
  Cl  Cl519  1  0.66286953  0.16552606  0.75999619  1
  Cl  Cl520  1  0.65263912  0.49065587  0.75283277  1
  Cl  Cl521  1  0.65218354  0.82359243  0.75015896  1
  Cl  Cl522  1  0.36406473  0.19528130  0.24763646  1
  Cl  Cl523  1  0.35975138  0.52384211  0.24826139  1
  Cl  Cl524  1  0.36711517  0.85626213  0.24651489  1
  Cl  Cl525  1  0.86811179  0.19100219  0.23244685  1
  Cl  Cl526  1  0.87123084  0.52871188  0.24573806  1
  Cl  Cl527  1  0.86665121  0.86140753  0.24797554  1
  Cl  Cl528  1  0.11122287  0.32161010  0.74521505  1
  Cl  Cl529  1  0.10700176  0.65823598  0.74690104  1
  Cl  Cl530  1  0.10959349  0.99210108  0.74869782  1
  Cl  Cl531  1  0.60407520  0.32872320  0.75286414  1
  Cl  Cl532  1  0.60342703  0.65656709  0.74722510  1
  Cl  Cl533  1  0.60395335  0.99346212  0.75891852  1
  Cl  Cl534  1  0.36729837  0.02878439  0.26912947  1
  Cl  Cl535  1  0.38021292  0.35811803  0.23862885  1
  Cl  Cl536  1  0.38104773  0.68827382  0.22473909  1
  Cl  Cl537  1  0.87655325  0.02704883  0.25478102  1
  Cl  Cl538  1  0.87186643  0.35614675  0.25342575  1
  Cl  Cl539  1  0.87182564  0.69637348  0.23098786  1
  Cl  Cl540  1  0.38573342  0.30523121  0.75699938  1
  Cl  Cl541  1  0.37776584  0.63926793  0.76609255  1
  Cl  Cl542  1  0.38360176  0.97429874  0.74461920  1
  Cl  Cl543  1  0.89212041  0.30688849  0.74842273  1
  Cl  Cl544  1  0.88377393  0.64183972  0.76172346  1
  Cl  Cl545  1  0.88302611  0.97997359  0.74730858  1
  Cl  Cl546  1  0.10223693  0.01243759  0.25580480  1
  Cl  Cl547  1  0.08990033  0.33878854  0.24693832  1
  Cl  Cl548  1  0.09259302  0.67685886  0.24855806  1
  Cl  Cl549  1  0.59107952  0.01070991  0.24812068  1
  Cl  Cl550  1  0.60075373  0.34600358  0.25063454  1
  Cl  Cl551  1  0.60123246  0.67843040  0.25588100  1
