# generated using pymatgen
data_H8PbC4(N3Cl2)2
_symmetry_space_group_name_H-M   'P 1'
_cell_length_a   16.62266725
_cell_length_b   22.50180057
_cell_length_c   21.58850400
_cell_angle_alpha   90.00081825
_cell_angle_beta   90.00162079
_cell_angle_gamma   89.99987894
_symmetry_Int_Tables_number   1
_chemical_formula_structural   H8PbC4(N3Cl2)2
_chemical_formula_sum   'H192 Pb24 C96 N144 Cl96'
_cell_volume   8074.96281212
_cell_formula_units_Z   24
loop_
 _symmetry_equiv_pos_site_id
 _symmetry_equiv_pos_as_xyz
  1  'x, y, z'
loop_
 _atom_site_type_symbol
 _atom_site_label
 _atom_site_symmetry_multiplicity
 _atom_site_fract_x
 _atom_site_fract_y
 _atom_site_fract_z
 _atom_site_occupancy
  H  H0  1  0.00085637  0.03130123  0.68188782  1
  H  H1  1  -0.00377181  0.36509254  0.68170604  1
  H  H2  1  -0.00661796  0.70101363  0.68194588  1
  H  H3  1  0.49469388  0.03255396  0.68104772  1
  H  H4  1  0.50271330  0.36381745  0.67793423  1
  H  H5  1  0.51068677  0.69880564  0.67957822  1
  H  H6  1  0.00173526  0.29955014  0.18006934  1
  H  H7  1  -0.00385704  0.63578793  0.17874233  1
  H  H8  1  -0.00396225  0.96795687  0.18126756  1
  H  H9  1  0.49930243  0.30020128  0.18096183  1
  H  H10  1  0.49921387  0.63706129  0.18208753  1
  H  H11  1  0.50885348  0.96591888  0.17897403  1
  H  H12  1  -0.00899969  0.03155288  0.82017896  1
  H  H13  1  -0.00360355  0.36546853  0.81974812  1
  H  H14  1  0.00373300  0.69931633  0.81972799  1
  H  H15  1  0.50571844  0.03067421  0.81782003  1
  H  H16  1  0.50671796  0.36590470  0.81739905  1
  H  H17  1  0.50394639  0.69907003  0.81980591  1
  H  H18  1  -0.00059002  0.30223057  0.32103891  1
  H  H19  1  0.00784484  0.63401996  0.31707355  1
  H  H20  1  0.00255052  0.96816955  0.32152766  1
  H  H21  1  0.50251191  0.30068783  0.32128735  1
  H  H22  1  0.49346483  0.63242471  0.31870485  1
  H  H23  1  0.49759696  0.96946757  0.31956546  1
  H  H24  1  0.25594546  0.19875583  0.67807084  1
  H  H25  1  0.24932721  0.53085098  0.68223588  1
  H  H26  1  0.24240658  0.86517931  0.68043689  1
  H  H27  1  0.74505857  0.19866499  0.67995967  1
  H  H28  1  0.74621301  0.52971690  0.68098400  1
  H  H29  1  0.74916815  0.86569567  0.67976146  1
  H  H30  1  0.25661225  0.13452907  0.18043773  1
  H  H31  1  0.24225323  0.46740500  0.18020889  1
  H  H32  1  0.24618254  0.80118989  0.17778684  1
  H  H33  1  0.74361939  0.13423809  0.18403764  1
  H  H34  1  0.75620431  0.46797633  0.18228570  1
  H  H35  1  0.74813055  0.80085231  0.18179214  1
  H  H36  1  0.24493191  0.19951610  0.81946717  1
  H  H37  1  0.25749075  0.53244184  0.81918935  1
  H  H38  1  0.25107586  0.86478978  0.82173077  1
  H  H39  1  0.74958959  0.19912709  0.81922309  1
  H  H40  1  0.74096036  0.53394331  0.81874302  1
  H  H41  1  0.74814467  0.86450004  0.81951916  1
  H  H42  1  0.25695125  0.13522170  0.32022054  1
  H  H43  1  0.24783226  0.46815841  0.31783472  1
  H  H44  1  0.24850261  0.80203699  0.31930369  1
  H  H45  1  0.74648991  0.13680559  0.31964137  1
  H  H46  1  0.74351517  0.46922349  0.32030634  1
  H  H47  1  0.75085318  0.80691420  0.32246778  1
  H  H48  1  0.12699943  0.05202015  0.61371369  1
  H  H49  1  0.12501870  0.38601228  0.61527469  1
  H  H50  1  0.12725437  0.71915428  0.62060254  1
  H  H51  1  0.62594746  0.05388177  0.61514875  1
  H  H52  1  0.62293216  0.38700609  0.60441343  1
  H  H53  1  0.61873065  0.72523801  0.59555481  1
  H  H54  1  0.37580517  0.28009669  0.10940138  1
  H  H55  1  0.37451220  0.61401409  0.11307869  1
  H  H56  1  0.37377548  0.94704753  0.11798542  1
  H  H57  1  0.87378590  0.27920551  0.11050029  1
  H  H58  1  0.87969567  0.61131126  0.09981711  1
  H  H59  1  0.87310341  0.94442440  0.10955653  1
  H  H60  1  0.37645290  0.05482520  0.88441210  1
  H  H61  1  0.37200971  0.38596358  0.88046050  1
  H  H62  1  0.37491074  0.72032741  0.88745900  1
  H  H63  1  0.88314062  0.05766599  0.90381225  1
  H  H64  1  0.87505336  0.38668253  0.89333427  1
  H  H65  1  0.87584815  0.71873994  0.88485363  1
  H  H66  1  0.12711518  0.27904677  0.38875971  1
  H  H67  1  0.12140826  0.61217258  0.39600501  1
  H  H68  1  0.12268900  0.94502601  0.39540106  1
  H  H69  1  0.62496872  0.27909867  0.39404091  1
  H  H70  1  0.62832830  0.61452634  0.37835724  1
  H  H71  1  0.62597868  0.94613287  0.38666144  1
  H  H72  1  0.36944834  0.22400357  0.59790994  1
  H  H73  1  0.37565977  0.55485768  0.61294095  1
  H  H74  1  0.37422404  0.88600082  0.61536137  1
  H  H75  1  0.87481203  0.22048195  0.61538676  1
  H  H76  1  0.87465338  0.55320943  0.61194418  1
  H  H77  1  0.87409593  0.88795144  0.60860104  1
  H  H78  1  0.12048259  0.11439159  0.12042707  1
  H  H79  1  0.13018246  0.44263012  0.09900132  1
  H  H80  1  0.12787554  0.77569286  0.10324607  1
  H  H81  1  0.62413474  0.11227162  0.11025018  1
  H  H82  1  0.62658522  0.44485469  0.11556830  1
  H  H83  1  0.62602346  0.78146064  0.11077661  1
  H  H84  1  0.12729757  0.22329023  0.89676718  1
  H  H85  1  0.12209017  0.55144302  0.87624277  1
  H  H86  1  0.12783033  0.88965165  0.89216957  1
  H  H87  1  0.62481793  0.22129555  0.88909645  1
  H  H88  1  0.63019933  0.55917149  0.90185607  1
  H  H89  1  0.62833852  0.88776132  0.89581552  1
  H  H90  1  0.37269115  0.11237149  0.39816799  1
  H  H91  1  0.37555718  0.44581333  0.38678353  1
  H  H92  1  0.37607552  0.77943592  0.38717230  1
  H  H93  1  0.87058966  0.11229269  0.39026844  1
  H  H94  1  0.87513692  0.44671307  0.38413866  1
  H  H95  1  0.87553433  0.78007488  0.39111203  1
  H  H96  1  0.37586409  0.27816558  0.39037862  1
  H  H97  1  0.38028390  0.61134960  0.39697304  1
  H  H98  1  0.37636791  0.94721700  0.39271831  1
  H  H99  1  0.87729487  0.28005747  0.39357323  1
  H  H100  1  0.87333099  0.61526027  0.37584491  1
  H  H101  1  0.87351754  0.94626975  0.38810801  1
  H  H102  1  0.12817151  0.05257313  0.87735191  1
  H  H103  1  0.12317252  0.38674785  0.88823824  1
  H  H104  1  0.12487492  0.72155171  0.89350168  1
  H  H105  1  0.62615324  0.05264868  0.89165874  1
  H  H106  1  0.62012489  0.38931194  0.89729285  1
  H  H107  1  0.62359447  0.72418902  0.89275665  1
  H  H108  1  0.12250700  0.27910736  0.10500232  1
  H  H109  1  0.12771875  0.61447796  0.11539962  1
  H  H110  1  0.12228529  0.94495281  0.11149267  1
  H  H111  1  0.62565160  0.27943242  0.11078237  1
  H  H112  1  0.62434518  0.61217315  0.11140471  1
  H  H113  1  0.62101498  0.94104699  0.09904351  1
  H  H114  1  0.37782308  0.05592699  0.60220319  1
  H  H115  1  0.37395405  0.38535387  0.61132672  1
  H  H116  1  0.37264388  0.71913906  0.62468337  1
  H  H117  1  0.87740023  0.05392188  0.61165089  1
  H  H118  1  0.87550729  0.38647140  0.60979004  1
  H  H119  1  0.87895295  0.72276756  0.60441851  1
  H  H120  1  0.12449529  0.11339790  0.38364052  1
  H  H121  1  0.12653937  0.44414318  0.39043377  1
  H  H122  1  0.12731292  0.77928592  0.39490901  1
  H  H123  1  0.62203319  0.11331283  0.39147012  1
  H  H124  1  0.62683174  0.44400545  0.39688203  1
  H  H125  1  0.62687603  0.77727459  0.39083427  1
  H  H126  1  0.37546407  0.22043742  0.88376642  1
  H  H127  1  0.36927353  0.55597493  0.89855543  1
  H  H128  1  0.37624470  0.88410234  0.89233488  1
  H  H129  1  0.87374223  0.22152813  0.89125375  1
  H  H130  1  0.87701695  0.55102370  0.87919262  1
  H  H131  1  0.87700129  0.88538188  0.88572551  1
  H  H132  1  0.36836569  0.11094472  0.10041006  1
  H  H133  1  0.37762542  0.44707247  0.12112575  1
  H  H134  1  0.37661775  0.78075426  0.11262399  1
  H  H135  1  0.87332572  0.11519792  0.11954948  1
  H  H136  1  0.87651267  0.44610103  0.10835012  1
  H  H137  1  0.87556792  0.77999463  0.11345111  1
  H  H138  1  0.12210443  0.21936605  0.61779632  1
  H  H139  1  0.12556531  0.55341050  0.61129627  1
  H  H140  1  0.12589465  0.88904312  0.60336934  1
  H  H141  1  0.62633511  0.22346290  0.60362113  1
  H  H142  1  0.62629582  0.55444647  0.60504858  1
  H  H143  1  0.62511631  0.88870207  0.60977597  1
  H  H144  1  0.33457627  0.75240396  0.49773111  1
  H  H145  1  0.67355042  0.08777380  0.49611988  1
  H  H146  1  0.32712980  0.57394846  0.50497427  1
  H  H147  1  0.07172511  0.39122455  0.99638260  1
  H  H148  1  0.58135857  0.25054784  0.00590905  1
  H  H149  1  0.67225012  0.75462549  -0.00106204  1
  H  H150  1  0.81642977  0.76376869  0.49789979  1
  H  H151  1  0.82152744  0.42089284  -0.00287743  1
  H  H152  1  0.14338313  0.58161122  0.98984025  1
  H  H153  1  0.30623582  0.58106550  1.00693619  1
  H  H154  1  0.92505820  0.41659862  0.49935577  1
  H  H155  1  0.92076035  0.25079466  0.00556779  1
  H  H156  1  0.55285494  0.41400279  1.00477344  1
  H  H157  1  0.91198783  0.74742708  0.99833322  1
  H  H158  1  0.42210185  0.58916012  0.00026475  1
  H  H159  1  0.70432556  0.58688698  1.00187239  1
  H  H160  1  0.91555518  0.91785508  0.49427918  1
  H  H161  1  0.58546253  0.92157582  0.49310882  1
  H  H162  1  0.41575471  0.41309722  0.50479113  1
  H  H163  1  0.92263782  0.08201116  0.50133902  1
  H  H164  1  0.05977028  0.58846129  0.50531794  1
  H  H165  1  0.93480099  0.43243105  0.98842102  1
  H  H166  1  0.89961458  0.58652900  0.48941605  1
  H  H167  1  0.17860213  0.90443072  0.99766142  1
  H  H168  1  0.33118649  0.92068137  0.99291947  1
  H  H169  1  0.92518352  0.25108849  0.50277409  1
  H  H170  1  0.33763399  0.75135598  0.00602155  1
  H  H171  1  0.54497254  0.74608659  0.49424653  1
  H  H172  1  0.68504676  0.75929051  0.49783717  1
  H  H173  1  0.14937950  0.08896039  0.01154225  1
  H  H174  1  0.93926660  0.74599948  0.49371292  1
  H  H175  1  0.19915187  0.41849091  -0.00352905  1
  H  H176  1  0.57344856  0.59366412  0.00391623  1
  H  H177  1  0.57044993  0.07184055  1.00413721  1
  H  H178  1  0.42068697  0.25293363  -0.00083384  1
  H  H179  1  0.42653274  0.91894898  0.50194407  1
  H  H180  1  0.67039155  0.42308700  0.00707255  1
  H  H181  1  0.44339574  0.58621230  0.50733708  1
  H  H182  1  0.67825801  0.08917117  -0.00193644  1
  H  H183  1  0.08704548  0.08041989  0.50299164  1
  H  H184  1  0.92276414  0.91382801  0.00141932  1
  H  H185  1  0.08667726  0.25218412  0.49503242  1
  H  H186  1  0.17481032  0.57773180  0.49939949  1
  H  H187  1  0.95760376  0.08075488  1.00482280  1
  H  H188  1  0.30336357  0.08861181  -0.00826504  1
  H  H189  1  0.17773473  0.41513510  0.49863715  1
  H  H190  1  0.83592443  0.09012097  0.00491314  1
  H  H191  1  0.41988698  0.07318704  0.99300661  1
  Pb  Pb192  1  0.25310181  0.04760686  0.74982462  1
  Pb  Pb193  1  0.24902934  0.37925231  0.75288853  1
  Pb  Pb194  1  0.24879698  0.71326921  0.75581114  1
  Pb  Pb195  1  0.74771460  0.04715195  0.75237356  1
  Pb  Pb196  1  0.74907555  0.37848715  0.75530723  1
  Pb  Pb197  1  0.74846431  0.71700452  0.74330899  1
  Pb  Pb198  1  0.24972690  0.28812988  0.24874389  1
  Pb  Pb199  1  0.25005925  0.61986779  0.25574931  1
  Pb  Pb200  1  0.24963595  0.95225287  0.24745362  1
  Pb  Pb201  1  0.74816151  0.28600164  0.25049273  1
  Pb  Pb202  1  0.75212119  0.62073955  0.23988138  1
  Pb  Pb203  1  0.74941948  0.95431195  0.24717648  1
  Pb  Pb204  1  -0.00040534  0.21263223  0.75178931  1
  Pb  Pb205  1  -0.00221269  0.54671524  0.74584250  1
  Pb  Pb206  1  0.00087847  0.88243390  0.74725659  1
  Pb  Pb207  1  0.49979717  0.21349802  0.74980919  1
  Pb  Pb208  1  0.50089872  0.54772575  0.75489880  1
  Pb  Pb209  1  0.49822614  0.87930998  0.74889832  1
  Pb  Pb210  1  -0.00002485  0.12001754  0.24967908  1
  Pb  Pb211  1  -0.00028050  0.45171483  0.24385137  1
  Pb  Pb212  1  0.00056325  0.78798028  0.25045686  1
  Pb  Pb213  1  0.49509846  0.11883844  0.24559064  1
  Pb  Pb214  1  0.50139312  0.45377121  0.25406068  1
  Pb  Pb215  1  0.50137420  0.78650247  0.25377533  1
  C  C216  1  0.00173891  0.04627414  0.63403076  1
  C  C217  1  -0.00144687  0.37953930  0.63387656  1
  C  C218  1  -0.00038738  0.71437246  0.63398334  1
  C  C219  1  0.49945160  0.04705076  0.63326182  1
  C  C220  1  0.49946970  0.37876300  0.63033811  1
  C  C221  1  0.50107570  0.71307374  0.63212762  1
  C  C222  1  -0.00105329  0.28527697  0.13214967  1
  C  C223  1  0.00090468  0.62051435  0.13136665  1
  C  C224  1  -0.00271846  0.95256430  0.13371241  1
  C  C225  1  0.50069163  0.28563484  0.13290490  1
  C  C226  1  0.49998860  0.62143621  0.13445207  1
  C  C227  1  0.50076850  0.95180367  0.13154833  1
  C  C228  1  0.00066994  0.04656170  0.86744229  1
  C  C229  1  -0.00179343  0.37967895  0.86785687  1
  C  C230  1  0.00092804  0.71319938  0.86766707  1
  C  C231  1  0.50221711  0.04603715  0.86549047  1
  C  C232  1  0.49926231  0.38038306  0.86498178  1
  C  C233  1  0.50039359  0.71399488  0.86725083  1
  C  C234  1  0.00167276  0.28669916  0.36875318  1
  C  C235  1  0.00052790  0.62011690  0.36493834  1
  C  C236  1  -0.00081707  0.95313515  0.36911044  1
  C  C237  1  0.50092810  0.28586757  0.36886833  1
  C  C238  1  0.50054667  0.61910441  0.36658282  1
  C  C239  1  0.50032174  0.95398369  0.36722124  1
  C  C240  1  0.24926590  0.21351031  0.63073216  1
  C  C241  1  0.25072193  0.54623464  0.63450411  1
  C  C242  1  0.24784048  0.88005155  0.63303123  1
  C  C243  1  0.74852294  0.21361314  0.63249691  1
  C  C244  1  0.74897899  0.54566791  0.63360653  1
  C  C245  1  0.74971658  0.88078329  0.63232026  1
  C  C246  1  0.24777596  0.11993452  0.13287950  1
  C  C247  1  0.24979415  0.45310353  0.13271110  1
  C  C248  1  0.25067938  0.78614123  0.13025812  1
  C  C249  1  0.74722930  0.12019093  0.13599249  1
  C  C250  1  0.75249801  0.45335436  0.13436258  1
  C  C251  1  0.74940262  0.78714349  0.13372379  1
  C  C252  1  0.24905808  0.21416110  0.86699933  1
  C  C253  1  0.24924592  0.54728741  0.86666518  1
  C  C254  1  0.25168552  0.87971456  0.86961917  1
  C  C255  1  0.74962250  0.21380726  0.86684247  1
  C  C256  1  0.74902567  0.54813838  0.86635963  1
  C  C257  1  0.75086763  0.87925842  0.86710208  1
  C  C258  1  0.25103837  0.12042762  0.36763304  1
  C  C259  1  0.25022983  0.45304038  0.36549048  1
  C  C260  1  0.25050860  0.78687395  0.36692277  1
  C  C261  1  0.74600564  0.12094835  0.36703455  1
  C  C262  1  0.74878024  0.45373230  0.36750272  1
  C  C263  1  0.75108752  0.78932137  0.36941336  1
  C  C264  1  0.97262887  0.73774380  0.53617733  1
  C  C265  1  0.95572796  0.73770115  0.96112343  1
  C  C266  1  0.55628548  0.59614317  0.45617891  1
  C  C267  1  0.02713918  0.59646256  0.46239981  1
  C  C268  1  0.96200300  0.92498865  0.04068149  1
  C  C269  1  0.78835940  0.42794237  0.03986372  1
  C  C270  1  0.19829534  0.24032882  0.54146756  1
  C  C271  1  0.52258658  0.40510355  0.96108681  1
  C  C272  1  0.45832036  0.59510695  0.04166172  1
  C  C273  1  0.53566711  0.25824693  0.46189221  1
  C  C274  1  0.04502686  0.40526785  0.54197945  1
  C  C275  1  0.52414405  0.92417080  0.03593152  1
  C  C276  1  0.79396875  0.24086205  0.54183262  1
  C  C277  1  0.21653459  0.42637453  0.45917460  1
  C  C278  1  0.19216554  0.57197249  0.95609679  1
  C  C279  1  0.04493539  0.07101502  0.54041157  1
  C  C280  1  0.79513686  0.90517390  0.95879727  1
  C  C281  1  0.27361644  0.57240703  0.96418450  1
  C  C282  1  0.05360004  0.73697474  0.54364845  1
  C  C283  1  0.43893602  0.73966382  0.54507025  1
  C  C284  1  0.96445879  0.26074171  0.46297809  1
  C  C285  1  0.21639633  0.75650333  0.03558042  1
  C  C286  1  0.72026885  0.42431832  0.46146777  1
  C  C287  1  0.79392317  0.76280227  0.04081980  1
  C  C288  1  0.27835298  0.09226494  0.46223873  1
  C  C289  1  0.53319663  0.74310368  0.96095467  1
  C  C290  1  0.53598630  0.40694603  0.53579658  1
  C  C291  1  0.29194509  0.76171330  0.45932659  1
  C  C292  1  0.96352714  0.40584274  0.53855865  1
  C  C293  1  0.29527777  0.24137540  0.95756563  1
  C  C294  1  0.27318774  0.09544705  0.03587959  1
  C  C295  1  0.46392918  0.92818321  0.46173726  1
  C  C296  1  0.96270019  0.07177582  0.53965223  1
  C  C297  1  0.30720316  0.42626976  0.04387421  1
  C  C298  1  0.53797409  0.06970923  0.96053822  1
  C  C299  1  0.21089653  0.57177003  0.54098955  1
  C  C300  1  0.03736593  0.73829981  0.96244691  1
  C  C301  1  0.03565503  0.92475427  0.46378063  1
  C  C302  1  0.71300833  0.09724615  0.03988763  1
  C  C303  1  0.21925553  0.90818006  0.53855138  1
  C  C304  1  0.94565219  0.59651111  0.45505328  1
  C  C305  1  0.46097003  0.26157418  0.03871565  1
  C  C306  1  0.79490259  0.09813983  0.04323594  1
  C  C307  1  0.71056676  0.24011619  0.95994750  1
  C  C308  1  0.47538709  0.59520965  0.46443636  1
  C  C309  1  0.71139235  0.90898576  0.53964982  1
  C  C310  1  0.04867463  0.59420179  0.04074176  1
  C  C311  1  0.71231656  0.76311304  0.03808666  1
  N  N312  1  0.45519588  0.74096269  0.96020829  1
  N  N313  1  0.29603080  0.42729928  0.45867886  1
  N  N314  1  0.06083059  0.07284642  0.95428448  1
  N  N315  1  0.51728129  0.74064052  0.53639885  1
  N  N316  1  0.03728472  0.26202560  0.03729952  1
  N  N317  1  0.21789972  0.24223985  0.96305421  1
  N  N318  1  0.79222735  0.75010014  0.45629102  1
  N  N319  1  0.29043863  0.57403405  0.54289690  1
  N  N320  1  0.79785883  0.42530739  0.45887771  1
  N  N321  1  0.44370514  0.40417421  0.95520134  1
  N  N322  1  0.45831114  0.25795896  0.46205983  1
  N  N323  1  0.54085343  0.26171291  0.04023603  1
  N  N324  1  0.71040827  0.09365198  0.45845628  1
  N  N325  1  0.78853131  0.24016599  0.96175083  1
  N  N326  1  0.04428534  0.25999392  0.46007225  1
  N  N327  1  0.71111322  0.74893535  0.45581678  1
  N  N328  1  0.20104383  0.09210810  0.45871455  1
  N  N329  1  0.98327619  0.07543122  0.96171535  1
  N  N330  1  0.54364419  0.92666558  0.45807459  1
  N  N331  1  0.47039670  0.07379446  0.53771370  1
  N  N332  1  0.22892621  0.42595543  0.03729176  1
  N  N333  1  0.45695951  0.40591713  0.53931748  1
  N  N334  1  0.79191867  0.57388005  0.54159595  1
  N  N335  1  0.78957413  0.90835436  0.53804416  1
  N  N336  1  0.71658556  0.24197576  0.53670267  1
  N  N337  1  0.44681082  0.92713319  0.04036218  1
  N  N338  1  0.27537770  0.24242427  0.53399835  1
  N  N339  1  0.21358714  0.91277721  0.95943309  1
  N  N340  1  0.04202162  0.40743350  0.95827941  1
  N  N341  1  0.04150487  0.92485356  0.04076233  1
  N  N342  1  0.70899780  0.42542481  0.04386968  1
  N  N343  1  0.71587674  0.57420806  0.53929018  1
  N  N344  1  0.78883184  0.09378087  0.45967825  1
  N  N345  1  0.29211661  0.89968949  0.96277354  1
  N  N346  1  0.95915306  0.26251237  0.04069112  1
  N  N347  1  0.95672583  0.92610489  0.46012777  1
  N  N348  1  0.21269027  0.76092891  0.46205148  1
  N  N349  1  0.96110745  0.39968378  0.96227115  1
  N  N350  1  0.54690314  0.07291731  0.54187559  1
  N  N351  1  0.29539144  0.75901230  0.03979869  1
  N  N352  1  0.97153531  0.59280116  0.03456543  1
  N  N353  1  0.80754093  0.56917525  0.95536089  1
  N  N354  1  0.29675348  0.90723209  0.54104537  1
  N  N355  1  0.71774491  0.90623870  0.96309138  1
  N  N356  1  0.19429083  0.09571774  0.04425604  1
  N  N357  1  0.45869027  0.07294898  0.95628593  1
  N  N358  1  0.73008949  0.57114295  0.96172245  1
  N  N359  1  0.53800539  0.59287727  0.04265521  1
  N  N360  1  0.06758341  0.05546026  0.59935743  1
  N  N361  1  0.06578236  0.38951635  0.59972529  1
  N  N362  1  0.06935787  0.72307556  0.60260693  1
  N  N363  1  0.56604454  0.05645353  0.60116912  1
  N  N364  1  0.56253009  0.39051719  0.59217870  1
  N  N365  1  0.55654986  0.72174991  0.58926031  1
  N  N366  1  0.43602324  0.27644910  0.09638767  1
  N  N367  1  0.43442398  0.61076193  0.09906462  1
  N  N368  1  0.43232657  0.94424708  0.10165398  1
  N  N369  1  0.93415701  0.27530089  0.09829146  1
  N  N370  1  0.94147759  0.60980851  0.09243433  1
  N  N371  1  0.93356672  0.94181766  0.09739222  1
  N  N372  1  0.43664064  0.05569982  0.89839677  1
  N  N373  1  0.43106261  0.38888718  0.89546228  1
  N  N374  1  0.43504282  0.72266381  0.90072843  1
  N  N375  1  0.94523872  0.05663961  0.91010038  1
  N  N376  1  0.93564425  0.39360430  0.90283407  1
  N  N377  1  0.93440726  0.72202951  0.90097421  1
  N  N378  1  0.06671006  0.27640677  0.40218557  1
  N  N379  1  0.06019071  0.61098598  0.40578560  1
  N  N380  1  0.06226608  0.94155265  0.40742092  1
  N  N381  1  0.56479315  0.27524551  0.40586554  1
  N  N382  1  0.57086685  0.61029762  0.39717653  1
  N  N383  1  0.56573303  0.94372820  0.40019534  1
  N  N384  1  0.30736610  0.22504029  0.59076744  1
  N  N385  1  0.31501242  0.55547703  0.59989758  1
  N  N386  1  0.31460042  0.88955179  0.60145384  1
  N  N387  1  0.81607747  0.22374734  0.59964906  1
  N  N388  1  0.81405541  0.55641901  0.60015167  1
  N  N389  1  0.81318593  0.89069342  0.59708730  1
  N  N390  1  0.17899029  0.11131801  0.10382292  1
  N  N391  1  0.19210257  0.44397649  0.09162958  1
  N  N392  1  0.18847702  0.77323297  0.09155015  1
  N  N393  1  0.68449127  0.11075963  0.09799304  1
  N  N394  1  0.68685589  0.44349691  0.10155770  1
  N  N395  1  0.68585525  0.77826241  0.09722775  1
  N  N396  1  0.18893898  0.22503848  0.90531710  1
  N  N397  1  0.17907308  0.55654319  0.89523590  1
  N  N398  1  0.18820742  0.88899681  0.90516432  1
  N  N399  1  0.68471218  0.22431591  0.90253375  1
  N  N400  1  0.69251879  0.55994928  0.90763209  1
  N  N401  1  0.68988705  0.88979822  0.90471736  1
  N  N402  1  0.31158563  0.10936534  0.40773329  1
  N  N403  1  0.31511819  0.44368438  0.39951929  1
  N  N404  1  0.31655987  0.77703448  0.40099862  1
  N  N405  1  0.81006578  0.10954521  0.40209459  1
  N  N406  1  0.81563795  0.44404291  0.39888534  1
  N  N407  1  0.81507199  0.77863622  0.40400664  1
  N  N408  1  0.43637932  0.27524109  0.40282850  1
  N  N409  1  0.44129571  0.60962257  0.40722414  1
  N  N410  1  0.43692152  0.94395657  0.40491465  1
  N  N411  1  0.93794807  0.27674536  0.40596527  1
  N  N412  1  0.93073361  0.61117215  0.39445374  1
  N  N413  1  0.93343915  0.94377937  0.40192108  1
  N  N414  1  0.07078535  0.05682345  0.89493736  1
  N  N415  1  0.06325773  0.38437798  0.90272774  1
  N  N416  1  0.06435913  0.72363095  0.90590419  1
  N  N417  1  0.56569946  0.05511826  0.90369377  1
  N  N418  1  0.55850130  0.39092345  0.90590264  1
  N  N419  1  0.56285330  0.72654508  0.90491218  1
  N  N420  1  0.06157338  0.27633785  0.09466301  1
  N  N421  1  0.06918608  0.61046637  0.09949343  1
  N  N422  1  0.06159751  0.94217743  0.09927952  1
  N  N423  1  0.56504778  0.27541196  0.09861819  1
  N  N424  1  0.56359909  0.61265129  0.09901764  1
  N  N425  1  0.55957767  0.93944749  0.09022901  1
  N  N426  1  0.43973520  0.05771662  0.59411887  1
  N  N427  1  0.43378964  0.38821213  0.59753579  1
  N  N428  1  0.42906028  0.72361147  0.60467535  1
  N  N429  1  0.93732405  0.05650539  0.59824260  1
  N  N430  1  0.93567635  0.38967890  0.59690699  1
  N  N431  1  0.93966194  0.72364527  0.59388315  1
  N  N432  1  0.18382866  0.10985132  0.39825544  1
  N  N433  1  0.18717021  0.44226951  0.40251539  1
  N  N434  1  0.18868324  0.77672723  0.40426973  1
  N  N435  1  0.68293390  0.11156053  0.40295860  1
  N  N436  1  0.68777276  0.44145438  0.40673283  1
  N  N437  1  0.68738198  0.77653399  0.40358701  1
  N  N438  1  0.31692256  0.22434805  0.89950668  1
  N  N439  1  0.30814766  0.55729638  0.90794737  1
  N  N440  1  0.31600729  0.89027115  0.90396961  1
  N  N441  1  0.81276819  0.22352941  0.90254892  1
  N  N442  1  0.81871076  0.55453933  0.89592586  1
  N  N443  1  0.81791256  0.88902583  0.90066751  1
  N  N444  1  0.30680740  0.10971126  0.09103108  1
  N  N445  1  0.32046440  0.44285852  0.10286810  1
  N  N446  1  0.31706609  0.77769976  0.09801075  1
  N  N447  1  0.81471067  0.11229171  0.10313363  1
  N  N448  1  0.81603208  0.44386659  0.09628783  1
  N  N449  1  0.81597226  0.77720693  0.09865134  1
  N  N450  1  0.17984358  0.22306512  0.60035744  1
  N  N451  1  0.18578028  0.55634218  0.59823652  1
  N  N452  1  0.18682870  0.89168132  0.59355623  1
  N  N453  1  0.68800876  0.22458574  0.59452118  1
  N  N454  1  0.68761780  0.55683125  0.59608890  1
  N  N455  1  0.68509112  0.89221777  0.59657660  1
  Cl  Cl456  1  0.25488952  0.05108920  0.61950564  1
  Cl  Cl457  1  0.24980856  0.38644680  0.62069131  1
  Cl  Cl458  1  0.25063686  0.71549033  0.62474399  1
  Cl  Cl459  1  0.74925133  0.05395614  0.61839424  1
  Cl  Cl460  1  0.74808290  0.38278023  0.62452221  1
  Cl  Cl461  1  0.74406128  0.73302129  0.59924376  1
  Cl  Cl462  1  0.24927754  0.28421590  0.11668583  1
  Cl  Cl463  1  0.25202249  0.61560928  0.12178640  1
  Cl  Cl464  1  0.24690910  0.94385443  0.10936076  1
  Cl  Cl465  1  0.74968605  0.28272698  0.11571971  1
  Cl  Cl466  1  0.74731374  0.60950442  0.10215541  1
  Cl  Cl467  1  0.74746034  0.94632034  0.11866825  1
  Cl  Cl468  1  0.25475923  0.05481012  0.88837891  1
  Cl  Cl469  1  0.24319776  0.39207733  0.89123267  1
  Cl  Cl470  1  0.25076092  0.72482063  0.89028988  1
  Cl  Cl471  1  0.75688961  0.05581380  0.88813016  1
  Cl  Cl472  1  0.74705636  0.38989572  0.89614705  1
  Cl  Cl473  1  0.74604533  0.71893384  0.87540298  1
  Cl  Cl474  1  0.24950659  0.28094837  0.38026097  1
  Cl  Cl475  1  0.25097242  0.60787201  0.39173280  1
  Cl  Cl476  1  0.24950086  0.94953692  0.37807553  1
  Cl  Cl477  1  0.75270286  0.28292180  0.38044628  1
  Cl  Cl478  1  0.75014421  0.61910949  0.36827422  1
  Cl  Cl479  1  0.74939777  0.94585890  0.38255968  1
  Cl  Cl480  1  -0.00145465  0.22397699  0.61691617  1
  Cl  Cl481  1  0.00001862  0.55424516  0.61194013  1
  Cl  Cl482  1  -0.00117422  0.88793397  0.61131098  1
  Cl  Cl483  1  0.49889714  0.22332061  0.61881550  1
  Cl  Cl484  1  0.49937469  0.55224311  0.61912628  1
  Cl  Cl485  1  0.50163057  0.88595143  0.61185053  1
  Cl  Cl486  1  -0.00364958  0.10979147  0.10964919  1
  Cl  Cl487  1  0.00477170  0.44025889  0.10208598  1
  Cl  Cl488  1  0.00138956  0.77902305  0.11877465  1
  Cl  Cl489  1  0.49442730  0.10974539  0.10731782  1
  Cl  Cl490  1  0.50503601  0.44655843  0.11818777  1
  Cl  Cl491  1  0.49985193  0.78219298  0.12269616  1
  Cl  Cl492  1  -0.00161523  0.22203488  0.88625840  1
  Cl  Cl493  1  -0.00130424  0.54648688  0.87582231  1
  Cl  Cl494  1  0.00337500  0.88660409  0.88057998  1
  Cl  Cl495  1  0.50158988  0.22042455  0.88772706  1
  Cl  Cl496  1  0.50581064  0.56051675  0.89652968  1
  Cl  Cl497  1  0.50048287  0.88495809  0.88152549  1
  Cl  Cl498  1  -0.00434196  0.11373252  0.38242230  1
  Cl  Cl499  1  0.00131208  0.44435278  0.37574514  1
  Cl  Cl500  1  -0.00114412  0.78158471  0.38629185  1
  Cl  Cl501  1  0.49916058  0.11471781  0.37756177  1
  Cl  Cl502  1  0.50024698  0.44517805  0.38791613  1
  Cl  Cl503  1  0.50531629  0.77548257  0.39329227  1
  Cl  Cl504  1  0.36255527  0.14374540  0.75471418  1
  Cl  Cl505  1  0.36103634  0.47829776  0.75273779  1
  Cl  Cl506  1  0.36288081  0.81112265  0.74846329  1
  Cl  Cl507  1  0.86381907  0.14472070  0.74865597  1
  Cl  Cl508  1  0.86287732  0.47762073  0.75354768  1
  Cl  Cl509  1  0.86097108  0.81016861  0.74784074  1
  Cl  Cl510  1  0.13511312  0.18883415  0.24967582  1
  Cl  Cl511  1  0.13870250  0.52165329  0.24865126  1
  Cl  Cl512  1  0.13857143  0.85562821  0.24809515  1
  Cl  Cl513  1  0.64107383  0.19032856  0.24602941  1
  Cl  Cl514  1  0.63661258  0.52309988  0.24611289  1
  Cl  Cl515  1  0.63690095  0.85488792  0.25498323  1
  Cl  Cl516  1  0.13645283  0.14385863  0.75036564  1
  Cl  Cl517  1  0.13697953  0.47748632  0.75190955  1
  Cl  Cl518  1  0.14008326  0.81003444  0.75124873  1
  Cl  Cl519  1  0.63730970  0.14284687  0.75196634  1
  Cl  Cl520  1  0.63764750  0.47890083  0.75271790  1
  Cl  Cl521  1  0.63819923  0.80913744  0.74817735  1
  Cl  Cl522  1  0.35984802  0.18750099  0.24652420  1
  Cl  Cl523  1  0.36390133  0.52102348  0.24779961  1
  Cl  Cl524  1  0.36149154  0.85609840  0.24798606  1
  Cl  Cl525  1  0.86284584  0.18850242  0.24891171  1
  Cl  Cl526  1  0.86161891  0.52178053  0.25012563  1
  Cl  Cl527  1  0.86209984  0.85461761  0.25116566  1
  Cl  Cl528  1  0.11183777  0.31225712  0.75096823  1
  Cl  Cl529  1  0.11428804  0.64383554  0.74907325  1
  Cl  Cl530  1  0.11274009  0.97664215  0.75437937  1
  Cl  Cl531  1  0.61112948  0.31208643  0.75302858  1
  Cl  Cl532  1  0.60977615  0.64438763  0.74812882  1
  Cl  Cl533  1  0.61207886  0.97835301  0.74892379  1
  Cl  Cl534  1  0.38886265  0.02215604  0.24483178  1
  Cl  Cl535  1  0.38776868  0.35531283  0.25064940  1
  Cl  Cl536  1  0.38828772  0.68797513  0.25072867  1
  Cl  Cl537  1  0.88674758  0.02161979  0.25114951  1
  Cl  Cl538  1  0.88991645  0.35638420  0.24625701  1
  Cl  Cl539  1  0.88727025  0.68885449  0.25017763  1
  Cl  Cl540  1  0.38680624  0.31208676  0.75401281  1
  Cl  Cl541  1  0.38682017  0.64367126  0.74985845  1
  Cl  Cl542  1  0.38731185  0.97695221  0.75395243  1
  Cl  Cl543  1  0.88736233  0.31182600  0.75497307  1
  Cl  Cl544  1  0.89060336  0.64429159  0.75050530  1
  Cl  Cl545  1  0.89283647  0.97678990  0.74904726  1
  Cl  Cl546  1  0.11068750  0.02222370  0.24711002  1
  Cl  Cl547  1  0.11057524  0.35532717  0.24843723  1
  Cl  Cl548  1  0.11297095  0.68798110  0.25093881  1
  Cl  Cl549  1  0.61250569  0.02196747  0.25059084  1
  Cl  Cl550  1  0.61285588  0.35500529  0.24567483  1
  Cl  Cl551  1  0.61185907  0.68948153  0.25200217  1
