# generated using pymatgen
data_H8PbC4(N3Cl2)2
_symmetry_space_group_name_H-M   'P 1'
_cell_length_a   16.62138236
_cell_length_b   22.50100379
_cell_length_c   21.58701785
_cell_angle_alpha   90.00023381
_cell_angle_beta   90.01012321
_cell_angle_gamma   90.00125201
_symmetry_Int_Tables_number   1
_chemical_formula_structural   H8PbC4(N3Cl2)2
_chemical_formula_sum   'H192 Pb24 C96 N144 Cl96'
_cell_volume   8073.49678846
_cell_formula_units_Z   24
loop_
 _symmetry_equiv_pos_site_id
 _symmetry_equiv_pos_as_xyz
  1  'x, y, z'
loop_
 _atom_site_type_symbol
 _atom_site_label
 _atom_site_symmetry_multiplicity
 _atom_site_fract_x
 _atom_site_fract_y
 _atom_site_fract_z
 _atom_site_occupancy
  H  H0  1  -0.00271618  0.03218231  0.67773596  1
  H  H1  1  0.00863219  0.36680879  0.68266774  1
  H  H2  1  -0.00085116  0.69806483  0.68123832  1
  H  H3  1  0.49805196  0.03112222  0.68004777  1
  H  H4  1  0.49247426  0.36621131  0.68046119  1
  H  H5  1  0.49493597  0.70057832  0.67892192  1
  H  H6  1  -0.00658897  0.30173146  0.17772876  1
  H  H7  1  0.00320695  0.63583532  0.17824826  1
  H  H8  1  -0.00574333  0.96613823  0.17804953  1
  H  H9  1  0.50425642  0.29933247  0.18103933  1
  H  H10  1  0.50477456  0.63666256  0.17978775  1
  H  H11  1  0.50676394  0.96637709  0.17904786  1
  H  H12  1  0.00050646  0.03198976  0.82205219  1
  H  H13  1  -0.00668058  0.36452639  0.82170896  1
  H  H14  1  0.00149253  0.69983062  0.82152937  1
  H  H15  1  0.49495157  0.03213953  0.82034725  1
  H  H16  1  0.50553382  0.36425125  0.82064586  1
  H  H17  1  0.50375435  0.70018544  0.82168344  1
  H  H18  1  -0.00074002  0.29991804  0.31858817  1
  H  H19  1  -0.00088774  0.63583420  0.31798016  1
  H  H20  1  -0.00377183  0.96690694  0.31794198  1
  H  H21  1  0.49592992  0.30139590  0.32114672  1
  H  H22  1  0.50074028  0.63977981  0.32178378  1
  H  H23  1  0.50181691  0.96528105  0.32299343  1
  H  H24  1  0.25579224  0.19881626  0.68009221  1
  H  H25  1  0.25832537  0.53362217  0.68102274  1
  H  H26  1  0.25035942  0.86484324  0.67890172  1
  H  H27  1  0.75491296  0.19905501  0.67873807  1
  H  H28  1  0.74260362  0.53211293  0.68263907  1
  H  H29  1  0.75148148  0.86760969  0.68037798  1
  H  H30  1  0.24977135  0.13356957  0.18105748  1
  H  H31  1  0.25148048  0.46756744  0.17934246  1
  H  H32  1  0.24327605  0.79950737  0.17924211  1
  H  H33  1  0.75401774  0.13407831  0.17944565  1
  H  H34  1  0.74548635  0.46716672  0.18211950  1
  H  H35  1  0.75185870  0.80084170  0.17563514  1
  H  H36  1  0.25701185  0.19853755  0.82339518  1
  H  H37  1  0.24830439  0.53080251  0.81945774  1
  H  H38  1  0.24640156  0.86694755  0.81955372  1
  H  H39  1  0.74743477  0.20045129  0.81830546  1
  H  H40  1  0.74477117  0.53271635  0.82164490  1
  H  H41  1  0.75230774  0.86533106  0.82221109  1
  H  H42  1  0.25688906  0.13334312  0.32141644  1
  H  H43  1  0.24948806  0.46872768  0.31764562  1
  H  H44  1  0.25123755  0.80205351  0.31904369  1
  H  H45  1  0.75320243  0.13419353  0.32159038  1
  H  H46  1  0.75052136  0.46777906  0.31867179  1
  H  H47  1  0.75018938  0.80156203  0.32039520  1
  H  H48  1  0.12970692  0.05189443  0.61412979  1
  H  H49  1  0.12104516  0.39033731  0.60200719  1
  H  H50  1  0.12451911  0.72124641  0.61061014  1
  H  H51  1  0.63239462  0.05188064  0.61783712  1
  H  H52  1  0.62664688  0.38492897  0.61869316  1
  H  H53  1  0.62846288  0.72103466  0.61793905  1
  H  H54  1  0.37151877  0.28062396  0.11862075  1
  H  H55  1  0.36878640  0.61376547  0.12230693  1
  H  H56  1  0.37237385  0.94730243  0.11559660  1
  H  H57  1  0.88003756  0.27616099  0.09777011  1
  H  H58  1  0.86684173  0.61907077  0.11743724  1
  H  H59  1  0.87622004  0.94361490  0.10444678  1
  H  H60  1  0.38733110  0.05658965  0.90127726  1
  H  H61  1  0.37240518  0.38234808  0.88351689  1
  H  H62  1  0.36958844  0.72094442  0.88403224  1
  H  H63  1  0.88412637  0.05585808  0.89967512  1
  H  H64  1  0.88003591  0.38968951  0.90220137  1
  H  H65  1  0.86928174  0.72023253  0.88468090  1
  H  H66  1  0.13178132  0.27958300  0.38303602  1
  H  H67  1  0.12610690  0.61281989  0.38785326  1
  H  H68  1  0.12855348  0.94764075  0.38377633  1
  H  H69  1  0.63222218  0.28367176  0.38124340  1
  H  H70  1  0.62441717  0.61166180  0.39073148  1
  H  H71  1  0.62625793  0.94563049  0.39194007  1
  H  H72  1  0.36435576  0.22525403  0.59660977  1
  H  H73  1  0.36925464  0.55850116  0.60035633  1
  H  H74  1  0.37346415  0.88704434  0.60715634  1
  H  H75  1  0.86334608  0.22361345  0.59545183  1
  H  H76  1  0.87691685  0.55088453  0.62355275  1
  H  H77  1  0.86910127  0.88847208  0.60547795  1
  H  H78  1  0.11804008  0.11315992  0.11731459  1
  H  H79  1  0.12472596  0.44498913  0.11003751  1
  H  H80  1  0.13697505  0.77781090  0.09540247  1
  H  H81  1  0.61687070  0.11490882  0.12061801  1
  H  H82  1  0.62979095  0.44377696  0.10388871  1
  H  H83  1  0.62926126  0.77912490  0.10614370  1
  H  H84  1  0.12381510  0.21861370  0.88519839  1
  H  H85  1  0.13437527  0.55771890  0.89876646  1
  H  H86  1  0.12924708  0.88807417  0.89499313  1
  H  H87  1  0.62994029  0.22124686  0.89323332  1
  H  H88  1  0.63644734  0.55944016  0.90453565  1
  H  H89  1  0.62710063  0.88735953  0.89318601  1
  H  H90  1  0.36418728  0.10665831  0.40489333  1
  H  H91  1  0.37450256  0.44616489  0.38703696  1
  H  H92  1  0.37383379  0.78075004  0.39323389  1
  H  H93  1  0.86751589  0.10905254  0.39981707  1
  H  H94  1  0.87375633  0.44493735  0.39271191  1
  H  H95  1  0.87217662  0.77867542  0.39253136  1
  H  H96  1  0.38570951  0.27305131  0.40198419  1
  H  H97  1  0.37580044  0.61263798  0.38997190  1
  H  H98  1  0.37739516  0.94712509  0.39194008  1
  H  H99  1  0.88288678  0.27741047  0.39552700  1
  H  H100  1  0.87803819  0.61175837  0.39325779  1
  H  H101  1  0.87941590  0.94546177  0.39586294  1
  H  H102  1  0.13295675  0.05247453  0.88541513  1
  H  H103  1  0.12704615  0.38445895  0.88212891  1
  H  H104  1  0.11812591  0.72478891  0.89887816  1
  H  H105  1  0.63427561  0.04870963  0.87546281  1
  H  H106  1  0.62005542  0.39152879  0.89893043  1
  H  H107  1  0.61667014  0.72382601  0.90287952  1
  H  H108  1  0.12734313  0.28054106  0.11744673  1
  H  H109  1  0.11357264  0.60586855  0.09805969  1
  H  H110  1  0.12430750  0.94889430  0.11394635  1
  H  H111  1  0.62029992  0.27816453  0.10503699  1
  H  H112  1  0.61596549  0.61120367  0.09824273  1
  H  H113  1  0.62003817  0.94238208  0.09850718  1
  H  H114  1  0.38344347  0.05348332  0.60125808  1
  H  H115  1  0.37953851  0.39089197  0.59890590  1
  H  H116  1  0.38104908  0.72438600  0.59867730  1
  H  H117  1  0.88173609  0.05681296  0.60075096  1
  H  H118  1  0.87313373  0.38444431  0.62051589  1
  H  H119  1  0.87565678  0.72142523  0.61063965  1
  H  H120  1  0.11805142  0.11514303  0.37623600  1
  H  H121  1  0.12452332  0.44432982  0.38848543  1
  H  H122  1  0.12448091  0.78060521  0.38805994  1
  H  H123  1  0.61978302  0.11282530  0.38411632  1
  H  H124  1  0.62535108  0.44513410  0.39070380  1
  H  H125  1  0.62225137  0.78187995  0.38953999  1
  H  H126  1  0.37174483  0.22391726  0.90077359  1
  H  H127  1  0.38227395  0.55248438  0.87915297  1
  H  H128  1  0.37835565  0.88484644  0.88335188  1
  H  H129  1  0.87903072  0.21838722  0.88246298  1
  H  H130  1  0.88277905  0.54994556  0.87754263  1
  H  H131  1  0.87637169  0.88663319  0.89375389  1
  H  H132  1  0.36678241  0.11331990  0.10592107  1
  H  H133  1  0.37284018  0.44359067  0.10579306  1
  H  H134  1  0.38336863  0.78295933  0.12612118  1
  H  H135  1  0.86481714  0.10954498  0.09836395  1
  H  H136  1  0.87848807  0.44720300  0.11740952  1
  H  H137  1  0.87801471  0.78162094  0.10805881  1
  H  H138  1  0.11894650  0.21741899  0.62121564  1
  H  H139  1  0.12126960  0.55218398  0.62221385  1
  H  H140  1  0.12425638  0.88764361  0.60867762  1
  H  H141  1  0.61707530  0.21880015  0.62301602  1
  H  H142  1  0.62891458  0.55490933  0.60400929  1
  H  H143  1  0.61971819  0.88581385  0.61599018  1
  H  H144  1  0.04201482  0.58918165  -0.00491101  1
  H  H145  1  0.69273973  0.41660083  -0.00310921  1
  H  H146  1  0.40639338  0.41904452  0.98706813  1
  H  H147  1  0.20742569  0.75292945  -0.01071834  1
  H  H148  1  0.40435672  0.91883767  0.00900246  1
  H  H149  1  0.54599395  0.58667244  -0.00400411  1
  H  H150  1  0.56537491  0.59437098  0.49798217  1
  H  H151  1  0.60025634  0.07610322  0.50974238  1
  H  H152  1  0.70880754  0.58771446  1.00477210  1
  H  H153  1  0.55314535  0.40492444  1.00292828  1
  H  H154  1  0.82380610  0.75063292  0.50203677  1
  H  H155  1  0.85096711  0.57797594  0.50989068  1
  H  H156  1  0.15584008  0.24759998  0.99339077  1
  H  H157  1  0.94738596  0.08137746  1.00392048  1
  H  H158  1  0.44978767  0.41470571  0.49705915  1
  H  H159  1  0.45617398  0.08377095  1.00877939  1
  H  H160  1  0.89383014  0.58315510  0.01109817  1
  H  H161  1  0.60567929  0.25179467  0.48922166  1
  H  H162  1  0.44442135  0.07653745  0.49268021  1
  H  H163  1  0.68988564  0.57565180  0.49414705  1
  H  H164  1  0.63982277  0.08500212  0.01020389  1
  H  H165  1  0.29127269  0.07840377  0.50462221  1
  H  H166  1  0.39919765  0.74994700  0.99237541  1
  H  H167  1  0.94190239  0.91796432  0.50351219  1
  H  H168  1  0.17442866  0.42416185  0.49571037  1
  H  H169  1  0.19880402  0.57844090  1.00239243  1
  H  H170  1  0.94080696  0.25208448  0.50452710  1
  H  H171  1  0.09640889  0.08035550  0.50569979  1
  H  H172  1  0.43484975  0.60198987  0.49756036  1
  H  H173  1  0.79202602  0.25010704  0.49478059  1
  H  H174  1  0.17062586  0.75361235  0.49822955  1
  H  H175  1  0.45705173  0.25860824  0.50520090  1
  H  H176  1  0.05457746  0.75481196  1.00192317  1
  H  H177  1  0.29139660  0.24884269  0.49585557  1
  H  H178  1  0.35424325  0.58168902  0.99223306  1
  H  H179  1  0.09668699  0.25075093  0.48986543  1
  H  H180  1  0.14899276  0.58280485  0.51476746  1
  H  H181  1  0.30366705  0.58293179  0.49299967  1
  H  H182  1  0.05299725  0.41555091  0.49513699  1
  H  H183  1  0.16870156  0.41635213  0.00518799  1
  H  H184  1  0.56150532  0.25144018  -0.00582500  1
  H  H185  1  0.31024790  0.08568563  -0.00507796  1
  H  H186  1  0.81294622  0.91754046  0.49491319  1
  H  H187  1  0.32775491  0.42072529  0.49937816  1
  H  H188  1  0.68613381  0.24685635  1.00479506  1
  H  H189  1  0.18289849  0.91748330  1.00379119  1
  H  H190  1  0.79797231  0.08270228  -0.00796066  1
  H  H191  1  0.66303331  0.75406100  0.49533246  1
  Pb  Pb192  1  0.25243058  0.04509191  0.74736416  1
  Pb  Pb193  1  0.24914871  0.38123975  0.74500985  1
  Pb  Pb194  1  0.24804631  0.71388604  0.74784521  1
  Pb  Pb195  1  0.75237331  0.04539788  0.75126082  1
  Pb  Pb196  1  0.75328161  0.37959405  0.75756510  1
  Pb  Pb197  1  0.75094235  0.71668404  0.74797330  1
  Pb  Pb198  1  0.24838290  0.28433859  0.25363936  1
  Pb  Pb199  1  0.24708900  0.61881527  0.24822758  1
  Pb  Pb200  1  0.25094630  0.95480500  0.24962140  1
  Pb  Pb201  1  0.75283516  0.28382770  0.24905133  1
  Pb  Pb202  1  0.74836243  0.62195169  0.24817240  1
  Pb  Pb203  1  0.74834009  0.95190777  0.24943409  1
  Pb  Pb204  1  0.00008462  0.21142472  0.74328597  1
  Pb  Pb205  1  0.00076610  0.54726398  0.75854810  1
  Pb  Pb206  1  0.00174511  0.87934263  0.74803766  1
  Pb  Pb207  1  0.49951598  0.21446064  0.74968753  1
  Pb  Pb208  1  0.50488404  0.55016885  0.74627399  1
  Pb  Pb209  1  0.49968669  0.87891441  0.75267878  1
  Pb  Pb210  1  -0.00468496  0.11675314  0.24771401  1
  Pb  Pb211  1  -0.00356887  0.45235398  0.25319005  1
  Pb  Pb212  1  0.00063799  0.78846188  0.24396258  1
  Pb  Pb213  1  0.49837905  0.11814109  0.25513522  1
  Pb  Pb214  1  0.50233857  0.45041077  0.24665942  1
  Pb  Pb215  1  0.49959804  0.78806843  0.25189096  1
  C  C216  1  0.00349508  0.04683080  0.63019627  1
  C  C217  1  0.00077194  0.38065247  0.63492749  1
  C  C218  1  0.00005496  0.71318504  0.63383477  1
  C  C219  1  0.50528395  0.04594580  0.63240744  1
  C  C220  1  0.49906090  0.38074038  0.63279406  1
  C  C221  1  0.50136489  0.71484466  0.63133615  1
  C  C222  1  0.00012035  0.28640545  0.13056211  1
  C  C223  1  -0.00572486  0.62053749  0.13091395  1
  C  C224  1  -0.00166132  0.95256438  0.13015598  1
  C  C225  1  0.49886137  0.28611897  0.13298317  1
  C  C226  1  0.49676895  0.62146413  0.13249532  1
  C  C227  1  0.49935875  0.95212381  0.13135209  1
  C  C228  1  0.00569409  0.04597934  0.86991064  1
  C  C229  1  -0.00009623  0.37968209  0.86896800  1
  C  C230  1  -0.00340293  0.71459370  0.86910653  1
  C  C231  1  0.50551701  0.04590662  0.86792470  1
  C  C232  1  0.49927430  0.37916109  0.86843369  1
  C  C233  1  0.49624104  0.71472328  0.86926009  1
  C  C234  1  0.00544675  0.28535605  0.36636677  1
  C  C235  1  0.00103478  0.62074513  0.36573225  1
  C  C236  1  0.00158788  0.95304409  0.36588066  1
  C  C237  1  0.50486941  0.28666065  0.36863186  1
  C  C238  1  0.50030886  0.62262464  0.36887275  1
  C  C239  1  0.50187160  0.95207822  0.37130627  1
  C  C240  1  0.24619018  0.21317874  0.63266874  1
  C  C241  1  0.24903738  0.54803485  0.63341129  1
  C  C242  1  0.24911245  0.87993108  0.63141149  1
  C  C243  1  0.74526063  0.21315029  0.63122103  1
  C  C244  1  0.74974303  0.54619906  0.63482056  1
  C  C245  1  0.74701972  0.88103018  0.63231751  1
  C  C246  1  0.24500804  0.12002491  0.13306186  1
  C  C247  1  0.24945402  0.45175727  0.13189460  1
  C  C248  1  0.25453248  0.78662875  0.13162567  1
  C  C249  1  0.74449742  0.11967294  0.13185222  1
  C  C250  1  0.75140633  0.45282571  0.13442186  1
  C  C251  1  0.75313416  0.78663449  0.12753956  1
  C  C252  1  0.25046998  0.21366770  0.87082752  1
  C  C253  1  0.25474379  0.54569610  0.86707342  1
  C  C254  1  0.25109893  0.88024651  0.86765907  1
  C  C255  1  0.75183272  0.21358682  0.86644238  1
  C  C256  1  0.75460078  0.54692725  0.86911502  1
  C  C257  1  0.75176481  0.87973398  0.86992110  1
  C  C258  1  0.24657524  0.11922323  0.36886333  1
  C  C259  1  0.24896640  0.45360296  0.36551671  1
  C  C260  1  0.24986493  0.78734473  0.36681310  1
  C  C261  1  0.74638316  0.11922555  0.36881480  1
  C  C262  1  0.74987694  0.45314485  0.36655075  1
  C  C263  1  0.74769552  0.78689904  0.36841617  1
  C  C264  1  0.96557778  0.92650170  0.03572174  1
  C  C265  1  0.04657009  0.92851641  0.03891418  1
  C  C266  1  0.02281110  0.40555560  0.53864231  1
  C  C267  1  0.23797338  0.76254070  0.03278734  1
  C  C268  1  0.28497711  0.90837675  0.53890291  1
  C  C269  1  0.72556039  0.42710280  0.03912570  1
  C  C270  1  0.27319775  0.57352169  0.53657114  1
  C  C271  1  0.52748404  0.26136938  0.03595848  1
  C  C272  1  0.97477583  0.92815841  0.46121418  1
  C  C273  1  0.29056359  0.42783391  0.45851966  1
  C  C274  1  0.22096266  0.90624006  0.96403931  1
  C  C275  1  0.77772489  0.90660903  0.53586728  1
  C  C276  1  0.47694641  0.06950548  0.53580460  1
  C  C277  1  0.18450157  0.09298683  0.45539886  1
  C  C278  1  0.27523114  0.09569739  0.03616047  1
  C  C279  1  0.54228376  0.92710712  0.46382096  1
  C  C280  1  0.79560688  0.76122235  0.03578024  1
  C  C281  1  0.68449118  0.23851455  0.54376178  1
  C  C282  1  0.96247961  0.74111330  0.54094154  1
  C  C283  1  0.05115795  0.40627847  0.95828187  1
  C  C284  1  0.21052853  0.76240485  0.45940692  1
  C  C285  1  0.71501740  0.76046839  0.03509835  1
  C  C286  1  0.80456624  0.56892775  0.54437888  1
  C  C287  1  0.56744504  0.06954263  0.95528568  1
  C  C288  1  0.46146219  0.92769485  0.46387180  1
  C  C289  1  0.30910017  0.57259514  0.95587651  1
  C  C290  1  0.44622869  0.26253232  0.04233638  1
  C  C291  1  0.72124138  0.23779345  0.96335554  1
  C  C292  1  0.97254795  0.07552801  0.53437979  1
  C  C293  1  0.31821679  0.76452312  0.04481012  1
  C  C294  1  0.72286659  0.56912596  0.53714144  1
  C  C295  1  0.69633056  0.90535578  0.54124249  1
  C  C296  1  0.81580836  0.57063388  0.95686447  1
  C  C297  1  0.77257233  0.08930462  0.46342271  1
  C  C298  1  0.05833649  0.07283852  0.96052432  1
  C  C299  1  0.19374825  0.09618382  0.04170419  1
  C  C300  1  0.76760496  0.09346102  0.03532494  1
  C  C301  1  0.97457504  0.26117545  0.46233674  1
  C  C302  1  0.55177020  0.74072378  0.54159664  1
  C  C303  1  0.78847814  0.90607660  0.96295265  1
  C  C304  1  0.30275087  0.90444902  0.95877766  1
  C  C305  1  0.43858188  0.59361114  0.04486652  1
  C  C306  1  0.94397031  0.74288407  0.95917056  1
  C  C307  1  0.05112812  0.25901068  0.04134692  1
  C  C308  1  0.28000555  0.24262805  0.96684025  1
  C  C309  1  0.80237005  0.23693924  0.95766209  1
  C  C310  1  0.48685276  0.07256538  0.96573974  1
  C  C311  1  0.78498495  0.76081676  0.46254020  1
  N  N312  1  0.18678672  0.23743733  0.54497120  1
  N  N313  1  0.47465411  0.74157046  0.53401529  1
  N  N314  1  0.26260626  0.09068908  0.46441667  1
  N  N315  1  0.20960587  0.42726986  0.04028760  1
  N  N316  1  0.52757374  0.92632213  0.03526426  1
  N  N317  1  0.76281563  0.24075485  0.53557847  1
  N  N318  1  0.51692010  0.59285630  0.03753915  1
  N  N319  1  0.94403796  0.40367134  0.54485896  1
  N  N320  1  0.52376683  0.74089247  0.96538460  1
  N  N321  1  0.69523173  0.09078107  0.45934057  1
  N  N322  1  0.97391592  0.25686989  0.03396114  1
  N  N323  1  0.70517599  0.76181455  0.46020757  1
  N  N324  1  0.04042318  0.74119758  0.53981125  1
  N  N325  1  0.02274041  0.74356586  0.96292343  1
  N  N326  1  0.21088732  0.42542253  0.45755069  1
  N  N327  1  0.20132900  0.24035808  0.96019736  1
  N  N328  1  0.22977272  0.57483347  0.96129136  1
  N  N329  1  0.80450612  0.42789123  0.04360063  1
  N  N330  1  0.55601959  0.07082771  0.54316996  1
  N  N331  1  0.01653253  0.58646439  0.03866204  1
  N  N332  1  0.20764702  0.90904457  0.53817555  1
  N  N333  1  0.73760490  0.57437010  0.96487927  1
  N  N334  1  0.97936720  0.07383667  0.96407258  1
  N  N335  1  0.19427230  0.57066847  0.54494850  1
  N  N336  1  0.55990061  0.26679733  0.45705824  1
  N  N337  1  0.45820935  0.58543178  0.45676813  1
  N  N338  1  0.78666753  0.42813563  0.46117198  1
  N  N339  1  0.97394853  0.40859895  0.96581374  1
  N  N340  1  0.96659729  0.59381603  0.46030146  1
  N  N341  1  0.53979578  0.58314444  0.45612272  1
  N  N342  1  0.71044950  0.42843532  0.46061209  1
  N  N343  1  0.05373349  0.92870022  0.45712855  1
  N  N344  1  0.04317204  0.59472433  0.45875622  1
  N  N345  1  0.26429144  0.24072334  0.53818689  1
  N  N346  1  0.05389417  0.26155942  0.45675043  1
  N  N347  1  0.44633651  0.74000940  0.95762061  1
  N  N348  1  0.28979832  0.76138071  0.46132141  1
  N  N349  1  0.28852156  0.42676674  0.03765875  1
  N  N350  1  0.44789188  0.39960912  0.95813307  1
  N  N351  1  0.55532573  0.40337670  0.54325148  1
  N  N352  1  0.93930116  0.59911784  0.04298234  1
  N  N353  1  0.68878667  0.09503236  0.04398577  1
  N  N354  1  0.05116419  0.07289407  0.53998753  1
  N  N355  1  0.71120562  0.90678986  0.96391273  1
  N  N356  1  0.47765747  0.40494549  0.53806733  1
  N  N357  1  0.44976890  0.92845826  0.04248907  1
  N  N358  1  0.48254115  0.25436446  0.46175121  1
  N  N359  1  0.52591441  0.41175804  0.96083630  1
  N  N360  1  0.07082783  0.05512447  0.59909921  1
  N  N361  1  0.05951256  0.39146723  0.59362944  1
  N  N362  1  0.06379416  0.72359498  0.59899710  1
  N  N363  1  0.57318800  0.05570691  0.60238059  1
  N  N364  1  0.56807472  0.38902940  0.60268960  1
  N  N365  1  0.57057732  0.72443936  0.60070396  1
  N  N366  1  0.42962895  0.27729444  0.10101536  1
  N  N367  1  0.42567166  0.61022184  0.10391758  1
  N  N368  1  0.43164107  0.94367857  0.10073035  1
  N  N369  1  0.94198515  0.27452531  0.09074052  1
  N  N370  1  0.92489814  0.61118463  0.10249556  1
  N  N371  1  0.93640006  0.94110710  0.09144866  1
  N  N372  1  0.44901475  0.05754827  0.90996339  1
  N  N373  1  0.43120892  0.38906016  0.89843259  1
  N  N374  1  0.42833335  0.72396953  0.89948545  1
  N  N375  1  0.94589574  0.05536013  0.90905390  1
  N  N376  1  0.94189621  0.39147960  0.90884880  1
  N  N377  1  0.92746232  0.72493499  0.90109795  1
  N  N378  1  0.07262829  0.27539645  0.39734134  1
  N  N379  1  0.06576388  0.61142332  0.40013589  1
  N  N380  1  0.06870012  0.94387632  0.39769505  1
  N  N381  1  0.57420217  0.27771039  0.39724576  1
  N  N382  1  0.56395267  0.61067350  0.40361288  1
  N  N383  1  0.56716630  0.94199655  0.40724444  1
  N  N384  1  0.30195191  0.22382940  0.59043100  1
  N  N385  1  0.30759692  0.55880399  0.59135072  1
  N  N386  1  0.31331579  0.89088252  0.59493146  1
  N  N387  1  0.80105911  0.22341931  0.58919696  1
  N  N388  1  0.81949569  0.55496096  0.60514025  1
  N  N389  1  0.80840423  0.89113004  0.59378510  1
  N  N390  1  0.17627100  0.11070921  0.10054546  1
  N  N391  1  0.18512255  0.44128318  0.09762764  1
  N  N392  1  0.19916835  0.77656587  0.08825841  1
  N  N393  1  0.67513068  0.11105067  0.10340514  1
  N  N394  1  0.69111334  0.44239349  0.09448209  1
  N  N395  1  0.68873827  0.77569630  0.09093669  1
  N  N396  1  0.18271338  0.22271596  0.90103288  1
  N  N397  1  0.19633582  0.55504084  0.90745352  1
  N  N398  1  0.19013116  0.89079164  0.90619738  1
  N  N399  1  0.69046589  0.22309832  0.90512009  1
  N  N400  1  0.69894995  0.55899803  0.91076106  1
  N  N401  1  0.68797112  0.88990484  0.90485044  1
  N  N402  1  0.30188722  0.10809988  0.41116133  1
  N  N403  1  0.31449515  0.44363199  0.40107113  1
  N  N404  1  0.31255660  0.77736470  0.40336133  1
  N  N405  1  0.80614868  0.10676829  0.40913039  1
  N  N406  1  0.81270619  0.44344237  0.40294522  1
  N  N407  1  0.81155513  0.77608134  0.40533413  1
  N  N408  1  0.44760584  0.27661304  0.41012233  1
  N  N409  1  0.43607738  0.61218000  0.40322207  1
  N  N410  1  0.43661734  0.94283554  0.40741851  1
  N  N411  1  0.94423096  0.27594858  0.40633296  1
  N  N412  1  0.93921074  0.61001868  0.40290051  1
  N  N413  1  0.94097192  0.94309180  0.40556843  1
  N  N414  1  0.07474065  0.05619789  0.90195829  1
  N  N415  1  0.06930642  0.38922805  0.89938916  1
  N  N416  1  0.05644441  0.72541949  0.90789219  1
  N  N417  1  0.57805697  0.05359277  0.89557551  1
  N  N418  1  0.55830090  0.38873768  0.90844070  1
  N  N419  1  0.55473655  0.72541480  0.91010743  1
  N  N420  1  0.06934619  0.27639550  0.10032306  1
  N  N421  1  0.05155923  0.60982194  0.08965204  1
  N  N422  1  0.06606906  0.94421213  0.09696652  1
  N  N423  1  0.55953697  0.27623380  0.09368726  1
  N  N424  1  0.55376870  0.61236974  0.09104528  1
  N  N425  1  0.55809810  0.94118060  0.09079322  1
  N  N426  1  0.44505033  0.05534765  0.59152607  1
  N  N427  1  0.44140080  0.39105211  0.59201466  1
  N  N428  1  0.44305098  0.72524503  0.59129966  1
  N  N429  1  0.94273649  0.05925465  0.59008515  1
  N  N430  1  0.93217605  0.38856600  0.60474080  1
  N  N431  1  0.93566001  0.72420644  0.59769857  1
  N  N432  1  0.17425930  0.11044941  0.39622599  1
  N  N433  1  0.18535117  0.44434689  0.40088927  1
  N  N434  1  0.18433231  0.77747115  0.40153820  1
  N  N435  1  0.67874351  0.10975651  0.39917556  1
  N  N436  1  0.68606808  0.44367374  0.40196417  1
  N  N437  1  0.68268639  0.77831849  0.40239204  1
  N  N438  1  0.31079176  0.22596563  0.91142477  1
  N  N439  1  0.32468147  0.55586871  0.89694244  1
  N  N440  1  0.31985378  0.88883051  0.90008639  1
  N  N441  1  0.82046601  0.22246440  0.89926435  1
  N  N442  1  0.82674700  0.55424802  0.89731343  1
  N  N443  1  0.81634217  0.89007563  0.90625160  1
  N  N444  1  0.30615211  0.11079800  0.09409396  1
  N  N445  1  0.31211211  0.44194893  0.09493989  1
  N  N446  1  0.32746082  0.77889279  0.10489930  1
  N  N447  1  0.80270696  0.10871637  0.08972256  1
  N  N448  1  0.81884361  0.44366665  0.10299896  1
  N  N449  1  0.81940765  0.77704827  0.09243892  1
  N  N450  1  0.17622437  0.22192663  0.60429966  1
  N  N451  1  0.17976679  0.55634735  0.60490563  1
  N  N452  1  0.18493274  0.89106265  0.59713274  1
  N  N453  1  0.67331440  0.22223730  0.60331612  1
  N  N454  1  0.68998707  0.55530625  0.59408636  1
  N  N455  1  0.67841948  0.89007136  0.59954628  1
  Cl  Cl456  1  0.25969958  0.05683453  0.60667198  1
  Cl  Cl457  1  0.25154881  0.39207059  0.60290106  1
  Cl  Cl458  1  0.25209940  0.71905140  0.61540153  1
  Cl  Cl459  1  0.75672408  0.05271977  0.61939743  1
  Cl  Cl460  1  0.74948372  0.37931310  0.62676834  1
  Cl  Cl461  1  0.75217354  0.72319164  0.61173730  1
  Cl  Cl462  1  0.24791126  0.28016072  0.12105394  1
  Cl  Cl463  1  0.23505663  0.60367449  0.10603601  1
  Cl  Cl464  1  0.25095691  0.94801057  0.11625659  1
  Cl  Cl465  1  0.74946438  0.27795456  0.11646055  1
  Cl  Cl466  1  0.73868088  0.61100305  0.10577384  1
  Cl  Cl467  1  0.74613113  0.94802275  0.11762103  1
  Cl  Cl468  1  0.26078301  0.05522162  0.87964344  1
  Cl  Cl469  1  0.25049475  0.38385153  0.87963457  1
  Cl  Cl470  1  0.24205784  0.72053285  0.88477941  1
  Cl  Cl471  1  0.76299896  0.05530519  0.88754031  1
  Cl  Cl472  1  0.74317210  0.39024110  0.89321156  1
  Cl  Cl473  1  0.74155080  0.71521140  0.87938600  1
  Cl  Cl474  1  0.26335761  0.27477895  0.39724077  1
  Cl  Cl475  1  0.25262883  0.60830457  0.38724607  1
  Cl  Cl476  1  0.25315203  0.95342666  0.37961991  1
  Cl  Cl477  1  0.75945772  0.27396977  0.39099737  1
  Cl  Cl478  1  0.74898969  0.61363422  0.38349619  1
  Cl  Cl479  1  0.75584787  0.94698794  0.38357053  1
  Cl  Cl480  1  -0.01239164  0.22060990  0.60678259  1
  Cl  Cl481  1  0.00108725  0.54992268  0.62876991  1
  Cl  Cl482  1  -0.00430905  0.88755381  0.61359731  1
  Cl  Cl483  1  0.48537023  0.22728250  0.60401950  1
  Cl  Cl484  1  0.49754642  0.56238758  0.60275128  1
  Cl  Cl485  1  0.49632973  0.88355075  0.62214604  1
  Cl  Cl486  1  -0.01289370  0.10817933  0.11020178  1
  Cl  Cl487  1  0.00444100  0.45036940  0.12177222  1
  Cl  Cl488  1  0.01231981  0.77684864  0.10587659  1
  Cl  Cl489  1  0.49201337  0.11473152  0.12201390  1
  Cl  Cl490  1  0.50147958  0.44195487  0.10420603  1
  Cl  Cl491  1  0.50673811  0.78017407  0.12057163  1
  Cl  Cl492  1  0.00246690  0.21326562  0.87361310  1
  Cl  Cl493  1  0.01322861  0.56223172  0.89667038  1
  Cl  Cl494  1  0.00268341  0.88289043  0.87988052  1
  Cl  Cl495  1  0.49977785  0.22286810  0.88166898  1
  Cl  Cl496  1  0.51412881  0.55803109  0.89212680  1
  Cl  Cl497  1  0.50281709  0.88705940  0.88490405  1
  Cl  Cl498  1  -0.00805979  0.11409078  0.38219919  1
  Cl  Cl499  1  0.00129455  0.44282332  0.38924742  1
  Cl  Cl500  1  -0.00411222  0.78181284  0.37521792  1
  Cl  Cl501  1  0.48849124  0.11021334  0.39156637  1
  Cl  Cl502  1  0.49733104  0.44287410  0.38698285  1
  Cl  Cl503  1  0.49902606  0.78106235  0.38344125  1
  Cl  Cl504  1  0.35976281  0.14713713  0.74693611  1
  Cl  Cl505  1  0.36099535  0.47818514  0.75261259  1
  Cl  Cl506  1  0.36314014  0.81142544  0.75483737  1
  Cl  Cl507  1  0.86208847  0.14614378  0.75110129  1
  Cl  Cl508  1  0.86227593  0.47691261  0.75147253  1
  Cl  Cl509  1  0.86139825  0.80857098  0.75031464  1
  Cl  Cl510  1  0.13878008  0.19080113  0.25401370  1
  Cl  Cl511  1  0.14185120  0.52323735  0.25074803  1
  Cl  Cl512  1  0.13764744  0.85564265  0.25087240  1
  Cl  Cl513  1  0.63585576  0.18983849  0.25268676  1
  Cl  Cl514  1  0.63603489  0.52154613  0.25160751  1
  Cl  Cl515  1  0.63881170  0.85458734  0.25100264  1
  Cl  Cl516  1  0.13686279  0.14429726  0.74562771  1
  Cl  Cl517  1  0.14077959  0.47742517  0.74911943  1
  Cl  Cl518  1  0.13776778  0.80989434  0.74770980  1
  Cl  Cl519  1  0.63616077  0.14398800  0.74597706  1
  Cl  Cl520  1  0.63806999  0.47880142  0.74993330  1
  Cl  Cl521  1  0.63952395  0.80945715  0.74863227  1
  Cl  Cl522  1  0.36036841  0.18941501  0.25181502  1
  Cl  Cl523  1  0.36045818  0.52279115  0.24916159  1
  Cl  Cl524  1  0.36212338  0.85504570  0.24700339  1
  Cl  Cl525  1  0.85777971  0.18933203  0.25127861  1
  Cl  Cl526  1  0.86224754  0.52162100  0.24579810  1
  Cl  Cl527  1  0.86149463  0.85452806  0.24848524  1
  Cl  Cl528  1  0.11323567  0.31121967  0.74920271  1
  Cl  Cl529  1  0.11365340  0.64311678  0.75054671  1
  Cl  Cl530  1  0.11346680  0.97892942  0.74857253  1
  Cl  Cl531  1  0.60598625  0.31083105  0.74569275  1
  Cl  Cl532  1  0.60831910  0.64272600  0.74724450  1
  Cl  Cl533  1  0.61473625  0.97796324  0.75004560  1
  Cl  Cl534  1  0.38803685  0.02144691  0.25019458  1
  Cl  Cl535  1  0.38817168  0.35569881  0.24958686  1
  Cl  Cl536  1  0.38736076  0.68814171  0.24706625  1
  Cl  Cl537  1  0.88909445  0.02310095  0.24797300  1
  Cl  Cl538  1  0.89168975  0.35478188  0.24874800  1
  Cl  Cl539  1  0.88653304  0.68835789  0.24545933  1
  Cl  Cl540  1  0.38702874  0.31195236  0.75088717  1
  Cl  Cl541  1  0.38879946  0.64272041  0.75291409  1
  Cl  Cl542  1  0.39093642  0.97988047  0.75152851  1
  Cl  Cl543  1  0.88828335  0.31224424  0.75017765  1
  Cl  Cl544  1  0.88989140  0.64147527  0.75428274  1
  Cl  Cl545  1  0.88966840  0.97888755  0.74873793  1
  Cl  Cl546  1  0.11232282  0.02446506  0.24970761  1
  Cl  Cl547  1  0.11578719  0.35586009  0.25404554  1
  Cl  Cl548  1  0.11125084  0.68727238  0.24856500  1
  Cl  Cl549  1  0.61042577  0.02359795  0.25095235  1
  Cl  Cl550  1  0.60828212  0.35685332  0.25295885  1
  Cl  Cl551  1  0.61081381  0.68686301  0.25364078  1
