# generated using pymatgen
data_H8PbC4(N3Cl2)2
_symmetry_space_group_name_H-M   'P 1'
_cell_length_a   16.62235289
_cell_length_b   22.50175699
_cell_length_c   21.58802380
_cell_angle_alpha   90.00003714
_cell_angle_beta   90.00178738
_cell_angle_gamma   89.99713996
_symmetry_Int_Tables_number   1
_chemical_formula_structural   H8PbC4(N3Cl2)2
_chemical_formula_sum   'H192 Pb24 C96 N144 Cl96'
_cell_volume   8074.61484106
_cell_formula_units_Z   24
loop_
 _symmetry_equiv_pos_site_id
 _symmetry_equiv_pos_as_xyz
  1  'x, y, z'
loop_
 _atom_site_type_symbol
 _atom_site_label
 _atom_site_symmetry_multiplicity
 _atom_site_fract_x
 _atom_site_fract_y
 _atom_site_fract_z
 _atom_site_occupancy
  H  H0  1  0.00694698  0.03426236  0.67821051  1
  H  H1  1  0.00039123  0.36561414  0.68291285  1
  H  H2  1  0.00276314  0.69892171  0.67920940  1
  H  H3  1  0.50150212  0.03165246  0.67800949  1
  H  H4  1  0.49908794  0.36589027  0.67580770  1
  H  H5  1  0.50083878  0.69864942  0.68195702  1
  H  H6  1  -0.00259361  0.30077444  0.17918655  1
  H  H7  1  -0.00317902  0.63188769  0.17835088  1
  H  H8  1  -0.00177105  0.96974451  0.18200413  1
  H  H9  1  0.50107961  0.29964848  0.18222308  1
  H  H10  1  0.50266012  0.63672806  0.17938472  1
  H  H11  1  0.49330717  0.96641007  0.17917325  1
  H  H12  1  0.00437099  0.03213242  0.81917368  1
  H  H13  1  -0.00184216  0.36439723  0.81836807  1
  H  H14  1  0.00682999  0.69930708  0.81921145  1
  H  H15  1  0.50823860  0.03058244  0.82013145  1
  H  H16  1  0.49882784  0.36653195  0.81806003  1
  H  H17  1  0.49383696  0.69852027  0.82063679  1
  H  H18  1  -0.00738604  0.30022843  0.32225391  1
  H  H19  1  -0.00114312  0.63313718  0.31910225  1
  H  H20  1  -0.00131972  0.97475177  0.32350985  1
  H  H21  1  0.49726242  0.30139293  0.32198311  1
  H  H22  1  0.50139981  0.63450747  0.32056100  1
  H  H23  1  0.50279510  0.96904848  0.32334204  1
  H  H24  1  0.25176167  0.19820754  0.67816988  1
  H  H25  1  0.24211162  0.53209424  0.68080846  1
  H  H26  1  0.23875416  0.86443479  0.67688116  1
  H  H27  1  0.75506317  0.19716356  0.67884129  1
  H  H28  1  0.75684953  0.53226166  0.67945406  1
  H  H29  1  0.75981480  0.86532471  0.68115618  1
  H  H30  1  0.25197749  0.13457912  0.17922953  1
  H  H31  1  0.26019271  0.46970278  0.18068785  1
  H  H32  1  0.24906682  0.80029490  0.18071735  1
  H  H33  1  0.74763583  0.13475234  0.18264593  1
  H  H34  1  0.73851123  0.46705171  0.17939898  1
  H  H35  1  0.74976310  0.80162727  0.18092074  1
  H  H36  1  0.24927556  0.19764229  0.81851321  1
  H  H37  1  0.25762744  0.53363995  0.82080884  1
  H  H38  1  0.24160513  0.86530228  0.82053243  1
  H  H39  1  0.75628826  0.19835598  0.81772127  1
  H  H40  1  0.74057559  0.53238013  0.81830098  1
  H  H41  1  0.76097797  0.86595264  0.81831029  1
  H  H42  1  0.24210513  0.13576170  0.32218710  1
  H  H43  1  0.24461555  0.46677462  0.31934811  1
  H  H44  1  0.24477560  0.80044509  0.31757018  1
  H  H45  1  0.74458974  0.13372658  0.32114252  1
  H  H46  1  0.75665241  0.46760128  0.32130997  1
  H  H47  1  0.75840206  0.80102725  0.31990395  1
  H  H48  1  0.11972811  0.05538353  0.59970011  1
  H  H49  1  0.12536467  0.38628672  0.61385234  1
  H  H50  1  0.12508747  0.72146530  0.60668804  1
  H  H51  1  0.62058359  0.05649406  0.60278559  1
  H  H52  1  0.62359208  0.38752428  0.60769412  1
  H  H53  1  0.62556069  0.71937534  0.61254269  1
  H  H54  1  0.37398196  0.27950751  0.11230194  1
  H  H55  1  0.37210080  0.61525100  0.11364950  1
  H  H56  1  0.37684709  0.94346462  0.10222349  1
  H  H57  1  0.87669933  0.27797908  0.10593084  1
  H  H58  1  0.87660676  0.61143462  0.10329065  1
  H  H59  1  0.87356953  0.94736569  0.11287491  1
  H  H60  1  0.37151132  0.05012709  0.87882625  1
  H  H61  1  0.37602458  0.38707144  0.89076720  1
  H  H62  1  0.37628883  0.72162333  0.89866778  1
  H  H63  1  0.87282854  0.05262717  0.88478510  1
  H  H64  1  0.87370654  0.38727823  0.88886894  1
  H  H65  1  0.87138052  0.71943939  0.87996915  1
  H  H66  1  0.13241062  0.28273544  0.37593104  1
  H  H67  1  0.12988217  0.61446464  0.38401680  1
  H  H68  1  0.12335222  0.94674971  0.39209956  1
  H  H69  1  0.62624646  0.28073110  0.38537070  1
  H  H70  1  0.62586792  0.61218161  0.39067971  1
  H  H71  1  0.62175577  0.94441124  0.39720408  1
  H  H72  1  0.36754863  0.22454683  0.60020354  1
  H  H73  1  0.37395551  0.55066178  0.61445109  1
  H  H74  1  0.37863201  0.88413396  0.62513184  1
  H  H75  1  0.86667391  0.22244647  0.59722830  1
  H  H76  1  0.86889465  0.55928677  0.59912044  1
  H  H77  1  0.87274257  0.88886785  0.60206912  1
  H  H78  1  0.12972283  0.11343113  0.10551925  1
  H  H79  1  0.12433915  0.44874642  0.12352941  1
  H  H80  1  0.13132921  0.77787370  0.10677557  1
  H  H81  1  0.63002514  0.11192718  0.10750595  1
  H  H82  1  0.63235716  0.44063424  0.09409197  1
  H  H83  1  0.62736892  0.77987110  0.10842742  1
  H  H84  1  0.12548990  0.22015838  0.89175612  1
  H  H85  1  0.12319446  0.55278555  0.88053783  1
  H  H86  1  0.13004488  0.89198485  0.90258720  1
  H  H87  1  0.62630196  0.22008415  0.88618386  1
  H  H88  1  0.62963874  0.55771253  0.89931819  1
  H  H89  1  0.62131553  0.88238877  0.87279179  1
  H  H90  1  0.37704171  0.11561866  0.38291640  1
  H  H91  1  0.37987430  0.44767555  0.37828884  1
  H  H92  1  0.37366794  0.78073128  0.38691316  1
  H  H93  1  0.87554998  0.11503414  0.38331513  1
  H  H94  1  0.86958644  0.44280989  0.40166785  1
  H  H95  1  0.87394043  0.77611471  0.39730599  1
  H  H96  1  0.37796174  0.27989980  0.39672613  1
  H  H97  1  0.37609603  0.61114936  0.39070503  1
  H  H98  1  0.37342429  0.94630030  0.38890813  1
  H  H99  1  0.88666341  0.27366514  0.40687479  1
  H  H100  1  0.88067722  0.61333238  0.39361891  1
  H  H101  1  0.87465207  0.94610269  0.39202848  1
  H  H102  1  0.12144292  0.05721657  0.89530558  1
  H  H103  1  0.12245519  0.38877161  0.89001931  1
  H  H104  1  0.11989543  0.72209249  0.89845222  1
  H  H105  1  0.61752521  0.05668594  0.90318442  1
  H  H106  1  0.62435360  0.38894181  0.88758483  1
  H  H107  1  0.62442911  0.72072731  0.88417390  1
  H  H108  1  0.12569408  0.27923188  0.11197406  1
  H  H109  1  0.12480814  0.61154885  0.11093994  1
  H  H110  1  0.12341808  0.94427178  0.11151487  1
  H  H111  1  0.62390382  0.27904427  0.11067351  1
  H  H112  1  0.62030472  0.61046631  0.10239349  1
  H  H113  1  0.62471933  0.94768480  0.11813376  1
  H  H114  1  0.37204379  0.05366405  0.61045366  1
  H  H115  1  0.37511755  0.38612546  0.60726518  1
  H  H116  1  0.37591729  0.72052969  0.61298357  1
  H  H117  1  0.87251950  0.05185681  0.61915986  1
  H  H118  1  0.87530975  0.38632709  0.61414467  1
  H  H119  1  0.87582132  0.71985150  0.60936168  1
  H  H120  1  0.12933520  0.10864958  0.40091681  1
  H  H121  1  0.13229705  0.44686186  0.39849792  1
  H  H122  1  0.12507832  0.77692969  0.39419051  1
  H  H123  1  0.62719924  0.11156302  0.39721329  1
  H  H124  1  0.62146333  0.44697845  0.38072039  1
  H  H125  1  0.62561257  0.78166068  0.38434468  1
  H  H126  1  0.37403097  0.22142790  0.89066389  1
  H  H127  1  0.36987247  0.55847597  0.90216165  1
  H  H128  1  0.37732962  0.88305682  0.88194893  1
  H  H129  1  0.87433322  0.22204914  0.89537957  1
  H  H130  1  0.87700930  0.55174969  0.87821874  1
  H  H131  1  0.86774258  0.89073970  0.90052420  1
  H  H132  1  0.37858635  0.11080649  0.10899190  1
  H  H133  1  0.37123537  0.44242126  0.09935903  1
  H  H134  1  0.38042057  0.78252705  0.11597840  1
  H  H135  1  0.87903387  0.11665539  0.11922915  1
  H  H136  1  0.87756418  0.44816424  0.12609945  1
  H  H137  1  0.87646139  0.77871654  0.11098540  1
  H  H138  1  0.11950860  0.21785332  0.61210901  1
  H  H139  1  0.12631032  0.55766204  0.60162660  1
  H  H140  1  0.13410272  0.89310774  0.59198216  1
  H  H141  1  0.61902369  0.21880668  0.62085671  1
  H  H142  1  0.62146452  0.54997397  0.62005797  1
  H  H143  1  0.62503490  0.88458103  0.62269856  1
  H  H144  1  0.08566877  0.58944567  0.00469909  1
  H  H145  1  0.41113107  0.91780202  0.49602276  1
  H  H146  1  0.41848123  0.74890149  0.50240356  1
  H  H147  1  0.64902305  0.91252904  0.50909710  1
  H  H148  1  0.79741317  0.91570036  1.00758301  1
  H  H149  1  0.81028149  0.91300375  0.49323903  1
  H  H150  1  0.05694604  0.74707904  1.00671420  1
  H  H151  1  0.14972673  0.41748524  0.01086708  1
  H  H152  1  0.21042660  0.91654145  0.49239555  1
  H  H153  1  0.70832037  0.41746442  -0.00595542  1
  H  H154  1  0.06498896  0.93018095  0.49938313  1
  H  H155  1  0.33026485  0.08322714  0.00455193  1
  H  H156  1  0.19543111  0.42370471  0.50884038  1
  H  H157  1  0.93375260  0.93238668  0.49885672  1
  H  H158  1  0.92035561  0.41279829  0.50124435  1
  H  H159  1  0.69862872  0.58488688  1.00482478  1
  H  H160  1  0.30233259  0.42510800  -0.00412009  1
  H  H161  1  0.80105853  0.41784352  0.50477993  1
  H  H162  1  0.08259370  0.24954835  0.00610365  1
  H  H163  1  0.58363510  0.74929328  0.50249446  1
  H  H164  1  0.67625759  0.75234971  -0.00037384  1
  H  H165  1  0.55600108  0.58667172  -0.00134295  1
  H  H166  1  0.96117587  0.24484527  0.50587200  1
  H  H167  1  0.41836260  0.24953941  0.00780493  1
  H  H168  1  0.07247886  0.92711987  0.00340810  1
  H  H169  1  0.57641532  0.24966506  0.00077409  1
  H  H170  1  0.20258483  0.91517633  1.00444558  1
  H  H171  1  0.84680840  0.08408709  0.49670650  1
  H  H172  1  0.79696385  0.24854745  0.49542957  1
  H  H173  1  0.59292447  0.25186526  0.49919424  1
  H  H174  1  0.84677462  0.08822241  0.00684083  1
  H  H175  1  0.79996953  0.58675046  0.49713890  1
  H  H176  1  0.91892007  0.41448266  0.99847294  1
  H  H177  1  0.58244273  0.58177780  0.50015466  1
  H  H178  1  0.43262240  0.42916580  0.98813942  1
  H  H179  1  0.57321366  0.39611574  0.99530570  1
  H  H180  1  0.59691377  0.91716073  0.00383630  1
  H  H181  1  0.92041683  0.92410453  -0.00011202  1
  H  H182  1  0.07973807  0.41318311  0.50124211  1
  H  H183  1  0.41521561  0.08359869  0.50566058  1
  H  H184  1  0.93544497  0.58871198  0.50553997  1
  H  H185  1  0.54419077  0.07992884  1.00396279  1
  H  H186  1  0.90187703  0.74801895  0.98728180  1
  H  H187  1  0.68534484  0.08598911  -0.00265702  1
  H  H188  1  0.15576260  0.24662008  0.50555935  1
  H  H189  1  0.93031587  0.57623268  0.00360686  1
  H  H190  1  0.18653525  0.75087888  -0.00459631  1
  H  H191  1  0.42229217  0.58029484  0.49460808  1
  Pb  Pb192  1  0.25307715  0.04780733  0.74948901  1
  Pb  Pb193  1  0.24935232  0.37968382  0.75590343  1
  Pb  Pb194  1  0.24790424  0.71228395  0.75402094  1
  Pb  Pb195  1  0.74615188  0.04593182  0.75227522  1
  Pb  Pb196  1  0.74988926  0.38217328  0.74997219  1
  Pb  Pb197  1  0.75100396  0.71369369  0.74877216  1
  Pb  Pb198  1  0.25225643  0.28800132  0.25060608  1
  Pb  Pb199  1  0.25188412  0.62125330  0.24838824  1
  Pb  Pb200  1  0.24783378  0.95213426  0.24908504  1
  Pb  Pb201  1  0.75560498  0.28578669  0.25604843  1
  Pb  Pb202  1  0.74802562  0.61874162  0.25139840  1
  Pb  Pb203  1  0.75129596  0.95508042  0.25275106  1
  Pb  Pb204  1  -0.00123148  0.21173356  0.75079621  1
  Pb  Pb205  1  0.00038471  0.54746352  0.74820731  1
  Pb  Pb206  1  0.00365142  0.88426823  0.74696229  1
  Pb  Pb207  1  0.50075668  0.21509993  0.75220384  1
  Pb  Pb208  1  0.49643513  0.54845956  0.75482007  1
  Pb  Pb209  1  0.49836438  0.87762508  0.74705531  1
  Pb  Pb210  1  0.00357655  0.12189917  0.25082245  1
  Pb  Pb211  1  0.00206582  0.45420525  0.25782114  1
  Pb  Pb212  1  -0.00308262  0.78395308  0.24758664  1
  Pb  Pb213  1  0.50066585  0.11990891  0.24806071  1
  Pb  Pb214  1  0.50276702  0.45182574  0.23682311  1
  Pb  Pb215  1  0.50160688  0.78830550  0.25239441  1
  C  C216  1  -0.00049115  0.04726708  0.63024672  1
  C  C217  1  0.00031265  0.37991448  0.63486507  1
  C  C218  1  0.00095439  0.71360831  0.63154061  1
  C  C219  1  0.49762882  0.04745931  0.63060733  1
  C  C220  1  0.49926199  0.38017831  0.62783443  1
  C  C221  1  0.50074183  0.71342729  0.63405983  1
  C  C222  1  0.00030345  0.28576957  0.13160939  1
  C  C223  1  -0.00062984  0.61845076  0.12998342  1
  C  C224  1  -0.00087347  0.95444679  0.13420054  1
  C  C225  1  0.49919243  0.28534073  0.13413293  1
  C  C226  1  0.49876825  0.62108790  0.13195474  1
  C  C227  1  0.49895973  0.95268941  0.13127928  1
  C  C228  1  -0.00087960  0.04701711  0.86655981  1
  C  C229  1  -0.00174894  0.37975373  0.86594240  1
  C  C230  1  -0.00130355  0.71431209  0.86669225  1
  C  C231  1  0.49919406  0.04538635  0.86746292  1
  C  C232  1  0.49974601  0.38068417  0.86627160  1
  C  C233  1  0.49793379  0.71340998  0.86810995  1
  C  C234  1  0.00366913  0.28576256  0.36949375  1
  C  C235  1  0.00286012  0.62018230  0.36727541  1
  C  C236  1  -0.00109528  0.95698228  0.37033898  1
  C  C237  1  0.50111421  0.28702828  0.36979686  1
  C  C238  1  0.50075775  0.61920615  0.36834010  1
  C  C239  1  0.49882928  0.95354559  0.37077929  1
  C  C240  1  0.24572174  0.21308997  0.63060362  1
  C  C241  1  0.24733493  0.54622251  0.63287512  1
  C  C242  1  0.25034227  0.87942456  0.62990724  1
  C  C243  1  0.74722956  0.21216156  0.63147745  1
  C  C244  1  0.74947668  0.54666914  0.63186557  1
  C  C245  1  0.75226685  0.87944268  0.63337177  1
  C  C246  1  0.25387515  0.11961143  0.13154208  1
  C  C247  1  0.25230147  0.45470310  0.13319213  1
  C  C248  1  0.25331187  0.78680463  0.13272977  1
  C  C249  1  0.75246052  0.12059537  0.13469171  1
  C  C250  1  0.74909122  0.45291137  0.13204685  1
  C  C251  1  0.75147756  0.78649982  0.13318514  1
  C  C252  1  0.24967325  0.21263531  0.86622408  1
  C  C253  1  0.25031231  0.54769541  0.86833937  1
  C  C254  1  0.24922536  0.87950544  0.86823904  1
  C  C255  1  0.75219645  0.21320946  0.86546124  1
  C  C256  1  0.74945578  0.54685148  0.86577074  1
  C  C257  1  0.75026644  0.87969473  0.86573760  1
  C  C258  1  0.24987296  0.12019429  0.36916731  1
  C  C259  1  0.25205003  0.45353123  0.36721543  1
  C  C260  1  0.24785346  0.78621580  0.36549426  1
  C  C261  1  0.74974350  0.11981341  0.36902619  1
  C  C262  1  0.74959129  0.45321832  0.36889068  1
  C  C263  1  0.75227875  0.78630480  0.36732554  1
  C  C264  1  0.02546810  0.73927735  0.96322883  1
  C  C265  1  0.69153911  0.57223509  0.54284018  1
  C  C266  1  0.06712564  0.25960948  0.45550284  1
  C  C267  1  0.77802518  0.90401162  0.53600296  1
  C  C268  1  0.72062056  0.09597441  0.03847099  1
  C  C269  1  0.94468222  0.07005485  0.54079890  1
  C  C270  1  0.81324441  0.42624693  0.04587791  1
  C  C271  1  0.22190393  0.76160960  0.03632366  1
  C  C272  1  0.30306363  0.76354574  0.04148412  1
  C  C273  1  0.54210833  0.73881955  0.54004919  1
  C  C274  1  0.54452592  0.74148630  0.95822982  1
  C  C275  1  0.96045730  0.40490519  0.95935726  1
  C  C276  1  0.68896310  0.23949113  0.54340482  1
  C  C277  1  0.02525007  0.07147450  0.53404346  1
  C  C278  1  0.54835400  0.26154354  0.46266181  1
  C  C279  1  0.19819031  0.57357595  0.95765814  1
  C  C280  1  0.04114214  0.40397097  0.54068764  1
  C  C281  1  0.46834908  0.92688572  0.03568801  1
  C  C282  1  0.53820296  0.26022726  0.04012387  1
  C  C283  1  0.77949787  0.75774472  0.46188156  1
  C  C284  1  0.02844808  0.07626885  0.96066302  1
  C  C285  1  0.69641743  0.90310563  0.54345993  1
  C  C286  1  0.72898069  0.57313243  0.96179706  1
  C  C287  1  0.45980502  0.73883903  0.54003116  1
  C  C288  1  0.53990782  0.40615846  0.53560161  1
  C  C289  1  0.54170066  0.59222554  0.46135344  1
  C  C290  1  0.31543463  0.90611147  0.54451175  1
  C  C291  1  0.54971058  0.92752563  0.03945598  1
  C  C292  1  0.79954869  0.09434371  0.46098714  1
  C  C293  1  0.71793731  0.09365457  0.46432004  1
  C  C294  1  0.95915621  0.40378351  0.54070580  1
  C  C295  1  0.97109039  0.59729092  0.46425371  1
  C  C296  1  0.71622016  0.76170284  0.03919939  1
  C  C297  1  0.46697735  0.26185588  0.46480694  1
  C  C298  1  0.53411562  0.92452412  0.46568040  1
  C  C299  1  0.68723676  0.90264659  0.95264746  1
  C  C300  1  0.69276708  0.42599166  0.45779916  1
  C  C301  1  0.95729861  0.92924044  0.04110940  1
  C  C302  1  0.03585203  0.74030601  0.53809961  1
  C  C303  1  0.22760619  0.43084690  0.46555710  1
  C  C304  1  0.22589283  0.08905766  0.46345405  1
  C  C305  1  0.19515334  0.42712248  0.04576381  1
  C  C306  1  0.05234040  0.59795042  0.45901480  1
  C  C307  1  0.76736598  0.90536935  0.96420401  1
  C  C308  1  0.45904673  0.40574094  0.53537915  1
  C  C309  1  0.96294568  0.25789082  0.03707356  1
  C  C310  1  0.30822728  0.43048926  0.45653621  1
  C  C311  1  0.80260242  0.09731545  0.04289145  1
  N  N312  1  0.98910660  0.25674879  0.46505678  1
  N  N313  1  0.21400445  0.09368267  0.03778019  1
  N  N314  1  0.52564368  0.59271911  0.03933831  1
  N  N315  1  0.53360231  0.07490132  0.53638939  1
  N  N316  1  0.22938497  0.90642773  0.96249415  1
  N  N317  1  0.77022685  0.57489142  0.53690023  1
  N  N318  1  0.30677516  0.90346475  0.95669635  1
  N  N319  1  0.45514282  0.92604155  0.46155843  1
  N  N320  1  0.30334139  0.09185343  0.45905449  1
  N  N321  1  0.77139193  0.42554324  0.46390318  1
  N  N322  1  0.96544688  0.59942199  0.03483699  1
  N  N323  1  0.03697315  0.92658742  0.04211240  1
  N  N324  1  0.80789199  0.57034280  0.95522086  1
  N  N325  1  0.73509024  0.42449365  0.03631871  1
  N  N326  1  0.95098425  0.07425718  0.95860095  1
  N  N327  1  0.27529151  0.57456367  0.96599298  1
  N  N328  1  0.27435452  0.42520823  0.03833719  1
  N  N329  1  0.45842281  0.26146076  0.04171132  1
  N  N330  1  0.28881502  0.23936108  0.95974003  1
  N  N331  1  0.70710895  0.23847649  0.95797035  1
  N  N332  1  0.43978103  0.07034708  0.95496396  1
  N  N333  1  0.21909818  0.57201908  0.53682843  1
  N  N334  1  0.76752106  0.24077945  0.53658439  1
  N  N335  1  0.23753465  0.90874781  0.53435800  1
  N  N336  1  0.95844312  0.74009711  0.53770717  1
  N  N337  1  0.95855296  0.91822090  0.45770699  1
  N  N338  1  0.44782164  0.59430837  0.04181942  1
  N  N339  1  0.45550071  0.07362181  0.54052546  1
  N  N340  1  0.04371916  0.58756154  0.04114520  1
  N  N341  1  0.79579521  0.76142277  0.03933159  1
  N  N342  1  0.21542106  0.76061686  0.46077952  1
  N  N343  1  0.78358109  0.23964470  0.96086859  1
  N  N344  1  0.29210999  0.09285327  0.04070849  1
  N  N345  1  0.27721980  0.24092570  0.53581882  1
  N  N346  1  0.19938436  0.23819645  0.54114719  1
  N  N347  1  0.46724253  0.74190574  0.96411204  1
  N  N348  1  0.29544311  0.56977422  0.54098128  1
  N  N349  1  0.54178121  0.40901478  0.95676717  1
  N  N350  1  0.04195795  0.25914298  0.04016237  1
  N  N351  1  0.29182128  0.76151269  0.45829107  1
  N  N352  1  0.51736184  0.07362919  0.96164351  1
  N  N353  1  0.46191030  0.59234779  0.46040305  1
  N  N354  1  0.46178491  0.39895982  0.96053268  1
  N  N355  1  0.21154078  0.23888039  0.96007299  1
  N  N356  1  0.94646208  0.73910789  0.95541841  1
  N  N357  1  0.70214204  0.75945261  0.45882744  1
  N  N358  1  0.03955799  0.91847313  0.45756639  1
  N  N359  1  0.03988206  0.40568559  0.96009623  1
  N  N360  1  0.05873528  0.05787654  0.58885519  1
  N  N361  1  0.06554060  0.38928643  0.59956002  1
  N  N362  1  0.06475590  0.72454763  0.59454656  1
  N  N363  1  0.55925372  0.05843328  0.59276369  1
  N  N364  1  0.56454426  0.39082646  0.59215366  1
  N  N365  1  0.56589241  0.72316004  0.59877846  1
  N  N366  1  0.43458726  0.27560706  0.10000659  1
  N  N367  1  0.43160101  0.61069375  0.10013837  1
  N  N368  1  0.43761537  0.94183220  0.09092055  1
  N  N369  1  0.93687491  0.27439664  0.09350626  1
  N  N370  1  0.93739835  0.60731011  0.09321488  1
  N  N371  1  0.93358082  0.94442260  0.09869532  1
  N  N372  1  0.42937379  0.05468428  0.89573558  1
  N  N373  1  0.43660704  0.39356939  0.90100408  1
  N  N374  1  0.43794137  0.72384071  0.90675841  1
  N  N375  1  0.93246198  0.05576315  0.89854847  1
  N  N376  1  0.93376085  0.38927366  0.90172486  1
  N  N377  1  0.93024018  0.72443026  0.89575334  1
  N  N378  1  0.07639324  0.27722070  0.39619329  1
  N  N379  1  0.07108260  0.61138301  0.40042557  1
  N  N380  1  0.06286069  0.94559625  0.40491117  1
  N  N381  1  0.56833660  0.27737533  0.40198872  1
  N  N382  1  0.56586371  0.60911919  0.40404633  1
  N  N383  1  0.56148202  0.94160004  0.40936783  1
  N  N384  1  0.30576383  0.22539615  0.59160628  1
  N  N385  1  0.31408877  0.55342049  0.60039945  1
  N  N386  1  0.32328597  0.88899589  0.60402665  1
  N  N387  1  0.80437839  0.22203596  0.59023187  1
  N  N388  1  0.80696841  0.55822826  0.59142003  1
  N  N389  1  0.81162893  0.88945484  0.59249115  1
  N  N390  1  0.19072996  0.10992909  0.09487964  1
  N  N391  1  0.18162893  0.44360190  0.10486405  1
  N  N392  1  0.19174881  0.77628294  0.09452774  1
  N  N393  1  0.69078296  0.11040471  0.09611018  1
  N  N394  1  0.69444450  0.44334403  0.08874715  1
  N  N395  1  0.68801699  0.77661203  0.09639480  1
  N  N396  1  0.18653113  0.22222298  0.90239792  1
  N  N397  1  0.18064449  0.55682092  0.89848072  1
  N  N398  1  0.19224121  0.89047088  0.90948122  1
  N  N399  1  0.68653934  0.22242395  0.89872354  1
  N  N400  1  0.69167492  0.55867339  0.90740352  1
  N  N401  1  0.67755646  0.88741572  0.89307554  1
  N  N402  1  0.31819241  0.11164025  0.39884405  1
  N  N403  1  0.32245494  0.44404102  0.39724531  1
  N  N404  1  0.31322610  0.77723550  0.39926415  1
  N  N405  1  0.81767152  0.11080901  0.40039939  1
  N  N406  1  0.80768350  0.44381601  0.40963352  1
  N  N407  1  0.81280872  0.77399120  0.40711705  1
  N  N408  1  0.43863647  0.27702578  0.40900260  1
  N  N409  1  0.43691220  0.60862101  0.40298747  1
  N  N410  1  0.43290212  0.94422653  0.40316366  1
  N  N411  1  0.94929752  0.27398150  0.41220639  1
  N  N412  1  0.94118021  0.61121021  0.40574962  1
  N  N413  1  0.93518783  0.94532147  0.40488812  1
  N  N414  1  0.06037254  0.05973334  0.90556032  1
  N  N415  1  0.06180129  0.38999288  0.90133575  1
  N  N416  1  0.05831340  0.72437808  0.90801321  1
  N  N417  1  0.55515034  0.05604738  0.90954352  1
  N  N418  1  0.56443196  0.38593202  0.90158614  1
  N  N419  1  0.56585956  0.72448219  0.90017848  1
  N  N420  1  0.06574156  0.27631607  0.09851062  1
  N  N421  1  0.06496472  0.61074875  0.09633959  1
  N  N422  1  0.06274220  0.94569438  0.09873116  1
  N  N423  1  0.56374321  0.27556233  0.09744059  1
  N  N424  1  0.55871217  0.61059011  0.09322816  1
  N  N425  1  0.56717248  0.94390908  0.10025781  1
  N  N426  1  0.43214946  0.05768053  0.59761356  1
  N  N427  1  0.43415665  0.39005349  0.59171845  1
  N  N428  1  0.43563593  0.72316380  0.59885348  1
  N  N429  1  0.92940078  0.05560348  0.59989884  1
  N  N430  1  0.93501535  0.38889977  0.59969535  1
  N  N431  1  0.93646070  0.72341686  0.59734762  1
  N  N432  1  0.19086049  0.10611431  0.40966331  1
  N  N433  1  0.19318595  0.44494831  0.40843152  1
  N  N434  1  0.18670721  0.77579868  0.40342887  1
  N  N435  1  0.68802472  0.10893445  0.40891121  1
  N  N436  1  0.67921886  0.44252984  0.39887313  1
  N  N437  1  0.68508722  0.77739628  0.39851513  1
  N  N438  1  0.31318829  0.22344397  0.90155857  1
  N  N439  1  0.30796068  0.55847954  0.90895451  1
  N  N440  1  0.31861679  0.88760236  0.89775896  1
  N  N441  1  0.81280697  0.22407745  0.90385593  1
  N  N442  1  0.81850614  0.55439794  0.89513504  1
  N  N443  1  0.80616252  0.89078364  0.90852792  1
  N  N444  1  0.31811386  0.10872034  0.09730327  1
  N  N445  1  0.30966693  0.44612130  0.09153817  1
  N  N446  1  0.32171065  0.77860641  0.09955600  1
  N  N447  1  0.82074433  0.11232750  0.10280003  1
  N  N448  1  0.82175279  0.44303561  0.10537186  1
  N  N449  1  0.81599049  0.77689949  0.09875264  1
  N  N450  1  0.17898027  0.22082726  0.59845549  1
  N  N451  1  0.18793286  0.55762656  0.59362695  1
  N  N452  1  0.19633686  0.89006275  0.58645511  1
  N  N453  1  0.67626567  0.22279618  0.60249757  1
  N  N454  1  0.67868317  0.55498496  0.60174696  1
  N  N455  1  0.68234702  0.88789686  0.60411315  1
  Cl  Cl456  1  0.24847005  0.04946536  0.61645927  1
  Cl  Cl457  1  0.24855968  0.38452410  0.62388988  1
  Cl  Cl458  1  0.24896194  0.71962321  0.62378903  1
  Cl  Cl459  1  0.74314732  0.05493272  0.62057312  1
  Cl  Cl460  1  0.75210480  0.38825796  0.61357505  1
  Cl  Cl461  1  0.75208420  0.71501455  0.61811974  1
  Cl  Cl462  1  0.25039256  0.28247979  0.11786551  1
  Cl  Cl463  1  0.24709114  0.61543464  0.11657745  1
  Cl  Cl464  1  0.24626481  0.94220146  0.11017447  1
  Cl  Cl465  1  0.75027064  0.28533080  0.12461627  1
  Cl  Cl466  1  0.74495790  0.60996043  0.11360058  1
  Cl  Cl467  1  0.75312412  0.94640195  0.12089056  1
  Cl  Cl468  1  0.24657930  0.05246633  0.88462040  1
  Cl  Cl469  1  0.25326772  0.39317239  0.89550303  1
  Cl  Cl470  1  0.24599674  0.72093428  0.88912454  1
  Cl  Cl471  1  0.74021541  0.05448627  0.88794353  1
  Cl  Cl472  1  0.74529362  0.39356978  0.89080391  1
  Cl  Cl473  1  0.74777973  0.71931288  0.88251645  1
  Cl  Cl474  1  0.25573166  0.28145600  0.38245525  1
  Cl  Cl475  1  0.25442416  0.61265396  0.37911560  1
  Cl  Cl476  1  0.24502481  0.94336844  0.39194815  1
  Cl  Cl477  1  0.76505384  0.27657059  0.39675862  1
  Cl  Cl478  1  0.75430232  0.60954608  0.38961675  1
  Cl  Cl479  1  0.75108879  0.94538901  0.38719803  1
  Cl  Cl480  1  -0.00919728  0.22242231  0.60582456  1
  Cl  Cl481  1  -0.00424414  0.55731946  0.61469017  1
  Cl  Cl482  1  0.00702487  0.89706187  0.60176823  1
  Cl  Cl483  1  0.49082638  0.22120614  0.61969115  1
  Cl  Cl484  1  0.49634904  0.55364574  0.61728019  1
  Cl  Cl485  1  0.50098901  0.89077891  0.61424700  1
  Cl  Cl486  1  0.00702726  0.11735162  0.11784326  1
  Cl  Cl487  1  0.00089675  0.45081080  0.12492992  1
  Cl  Cl488  1  0.00315677  0.77655550  0.10991085  1
  Cl  Cl489  1  0.50393941  0.10985072  0.10747031  1
  Cl  Cl490  1  0.50267017  0.43883547  0.09646904  1
  Cl  Cl491  1  0.50506478  0.78297532  0.12246367  1
  Cl  Cl492  1  0.00115195  0.22127181  0.88647212  1
  Cl  Cl493  1  0.00033250  0.55757435  0.88682633  1
  Cl  Cl494  1  0.00554307  0.89350644  0.89425150  1
  Cl  Cl495  1  0.49902671  0.22293516  0.89068381  1
  Cl  Cl496  1  0.50468829  0.55531213  0.89257774  1
  Cl  Cl497  1  0.49806949  0.88338379  0.87781273  1
  Cl  Cl498  1  0.00565004  0.11588254  0.38268520  1
  Cl  Cl499  1  -0.00401202  0.44316208  0.39265413  1
  Cl  Cl500  1  0.00079692  0.78016345  0.37958366  1
  Cl  Cl501  1  0.50167558  0.11296825  0.38017209  1
  Cl  Cl502  1  0.50218754  0.45223116  0.36727525  1
  Cl  Cl503  1  0.49828873  0.78180205  0.38720368  1
  Cl  Cl504  1  0.35864429  0.14311860  0.75124698  1
  Cl  Cl505  1  0.36214349  0.47864635  0.75327976  1
  Cl  Cl506  1  0.36119171  0.81190729  0.74791452  1
  Cl  Cl507  1  0.86198295  0.14423316  0.75008004  1
  Cl  Cl508  1  0.86228038  0.47625471  0.75251398  1
  Cl  Cl509  1  0.85875586  0.81083485  0.75153252  1
  Cl  Cl510  1  0.14004551  0.18884847  0.24986731  1
  Cl  Cl511  1  0.13714225  0.52224820  0.24723744  1
  Cl  Cl512  1  0.14021066  0.85835920  0.24874365  1
  Cl  Cl513  1  0.63830080  0.18829114  0.25123037  1
  Cl  Cl514  1  0.63902011  0.52192841  0.24965014  1
  Cl  Cl515  1  0.63851697  0.85539765  0.25440396  1
  Cl  Cl516  1  0.13507800  0.14514026  0.74620937  1
  Cl  Cl517  1  0.13536896  0.47797266  0.75424198  1
  Cl  Cl518  1  0.13685592  0.81348178  0.75094881  1
  Cl  Cl519  1  0.63550682  0.14603113  0.75008998  1
  Cl  Cl520  1  0.64140086  0.47710779  0.74905723  1
  Cl  Cl521  1  0.63637322  0.81133691  0.74876481  1
  Cl  Cl522  1  0.36464190  0.18864066  0.24952714  1
  Cl  Cl523  1  0.36237178  0.52088542  0.24908442  1
  Cl  Cl524  1  0.36396440  0.85581556  0.24968996  1
  Cl  Cl525  1  0.86239557  0.18943373  0.24948438  1
  Cl  Cl526  1  0.86280794  0.52169161  0.24640775  1
  Cl  Cl527  1  0.86375688  0.85522629  0.24875049  1
  Cl  Cl528  1  0.11198568  0.31143670  0.75081526  1
  Cl  Cl529  1  0.10839433  0.64552485  0.75257813  1
  Cl  Cl530  1  0.10590257  0.97633404  0.74975145  1
  Cl  Cl531  1  0.61039802  0.31104136  0.75066976  1
  Cl  Cl532  1  0.61341455  0.64369543  0.75029783  1
  Cl  Cl533  1  0.60966219  0.97810506  0.75028540  1
  Cl  Cl534  1  0.38916838  0.02198230  0.25113270  1
  Cl  Cl535  1  0.38839781  0.35606651  0.24689246  1
  Cl  Cl536  1  0.38961084  0.68823047  0.24869079  1
  Cl  Cl537  1  0.89072896  0.02175505  0.25055357  1
  Cl  Cl538  1  0.88815707  0.35516687  0.24950756  1
  Cl  Cl539  1  0.88896441  0.69002024  0.24582293  1
  Cl  Cl540  1  0.38731733  0.31333755  0.75313908  1
  Cl  Cl541  1  0.38996769  0.64356004  0.75102812  1
  Cl  Cl542  1  0.38768353  0.97866445  0.75137143  1
  Cl  Cl543  1  0.88714368  0.31179775  0.74877076  1
  Cl  Cl544  1  0.88500572  0.64395154  0.75479579  1
  Cl  Cl545  1  0.88615132  0.97746704  0.74903621  1
  Cl  Cl546  1  0.11336864  0.02108226  0.25056444  1
  Cl  Cl547  1  0.11229089  0.35436090  0.25113935  1
  Cl  Cl548  1  0.11193083  0.68669048  0.24913139  1
  Cl  Cl549  1  0.61293057  0.02090694  0.24885991  1
  Cl  Cl550  1  0.60882807  0.35616229  0.24907022  1
  Cl  Cl551  1  0.61210599  0.68758229  0.25337786  1
