# generated using pymatgen
data_H8PbC4(N3Cl2)2
_symmetry_space_group_name_H-M   'P 1'
_cell_length_a   16.63018255
_cell_length_b   22.51259753
_cell_length_c   21.59272770
_cell_angle_alpha   90.00002428
_cell_angle_beta   89.97555421
_cell_angle_gamma   90.00407220
_symmetry_Int_Tables_number   1
_chemical_formula_structural   H8PbC4(N3Cl2)2
_chemical_formula_sum   'H192 Pb24 C96 N144 Cl96'
_cell_volume   8084.07047827
_cell_formula_units_Z   24
loop_
 _symmetry_equiv_pos_site_id
 _symmetry_equiv_pos_as_xyz
  1  'x, y, z'
loop_
 _atom_site_type_symbol
 _atom_site_label
 _atom_site_symmetry_multiplicity
 _atom_site_fract_x
 _atom_site_fract_y
 _atom_site_fract_z
 _atom_site_occupancy
  H  H0  1  -0.00387514  0.03094917  0.68014604  1
  H  H1  1  -0.01633092  0.36912484  0.68038643  1
  H  H2  1  -0.00194518  0.69276463  0.67980538  1
  H  H3  1  0.50569391  0.03108240  0.67983826  1
  H  H4  1  0.51606888  0.36664555  0.67990496  1
  H  H5  1  0.49680560  0.69607879  0.67950459  1
  H  H6  1  0.00593514  0.30557034  0.17635177  1
  H  H7  1  0.00139554  0.63616092  0.17940584  1
  H  H8  1  -0.00273471  0.96585259  0.17455627  1
  H  H9  1  0.49860071  0.30213955  0.17951265  1
  H  H10  1  0.50574533  0.63638717  0.17643499  1
  H  H11  1  0.49693451  0.97048568  0.18107072  1
  H  H12  1  0.00460102  0.02846320  0.81934639  1
  H  H13  1  0.00019907  0.36083095  0.82381388  1
  H  H14  1  -0.00439451  0.69516265  0.81707015  1
  H  H15  1  0.49050311  0.02974036  0.82693182  1
  H  H16  1  0.49766341  0.36336075  0.82181415  1
  H  H17  1  0.49724199  0.69116536  0.82266151  1
  H  H18  1  0.00639503  0.30067410  0.31875607  1
  H  H19  1  -0.00809878  0.63529726  0.32152740  1
  H  H20  1  -0.01008904  0.97060455  0.31768676  1
  H  H21  1  0.50936238  0.30432317  0.32011949  1
  H  H22  1  0.50212846  0.63564280  0.32019408  1
  H  H23  1  0.51273440  0.97138876  0.32224119  1
  H  H24  1  0.24647000  0.19433171  0.67997996  1
  H  H25  1  0.27026456  0.53106581  0.67294577  1
  H  H26  1  0.24024095  0.86579583  0.68195645  1
  H  H27  1  0.74800869  0.19417658  0.67738294  1
  H  H28  1  0.73627354  0.53232577  0.67884007  1
  H  H29  1  0.75894085  0.86582020  0.68377549  1
  H  H30  1  0.23185789  0.13798802  0.17703997  1
  H  H31  1  0.24289838  0.47127918  0.17838606  1
  H  H32  1  0.25106341  0.80312475  0.18204808  1
  H  H33  1  0.76779696  0.13941165  0.17416242  1
  H  H34  1  0.75590255  0.47191035  0.17847620  1
  H  H35  1  0.75091662  0.80589473  0.17634654  1
  H  H36  1  0.25598888  0.19594148  0.82307693  1
  H  H37  1  0.25191712  0.53299859  0.82403840  1
  H  H38  1  0.26217629  0.86462928  0.82136366  1
  H  H39  1  0.75000491  0.19849865  0.82190622  1
  H  H40  1  0.75143065  0.52730169  0.82256396  1
  H  H41  1  0.73429507  0.86320830  0.82363248  1
  H  H42  1  0.24594108  0.13721916  0.31866924  1
  H  H43  1  0.25010955  0.47019158  0.32343794  1
  H  H44  1  0.25849396  0.80446840  0.32053393  1
  H  H45  1  0.74820378  0.13548964  0.32039165  1
  H  H46  1  0.74923922  0.46759879  0.31584192  1
  H  H47  1  0.75642438  0.80230380  0.31853791  1
  H  H48  1  0.12867475  0.05352021  0.61887220  1
  H  H49  1  0.12795849  0.38297761  0.63388036  1
  H  H50  1  0.13304146  0.71597917  0.62249758  1
  H  H51  1  0.62817776  0.05504987  0.60815385  1
  H  H52  1  0.61760000  0.39126009  0.59408428  1
  H  H53  1  0.63397575  0.71504771  0.62418698  1
  H  H54  1  0.38297574  0.27825760  0.10418881  1
  H  H55  1  0.37670792  0.61273584  0.10994291  1
  H  H56  1  0.38243200  0.94579053  0.10284026  1
  H  H57  1  0.87827651  0.27935720  0.10963285  1
  H  H58  1  0.87594285  0.61365468  0.10764176  1
  H  H59  1  0.87946948  0.94570512  0.09798558  1
  H  H60  1  0.37966420  0.06082975  0.90586657  1
  H  H61  1  0.36631457  0.38658076  0.88494199  1
  H  H62  1  0.38377206  0.71975401  0.90168335  1
  H  H63  1  0.87840403  0.05441052  0.88687713  1
  H  H64  1  0.86608714  0.38571052  0.88273795  1
  H  H65  1  0.88437636  0.72146761  0.89781949  1
  H  H66  1  0.11417147  0.27580518  0.40181717  1
  H  H67  1  0.12311478  0.61259519  0.38479172  1
  H  H68  1  0.12094155  0.94467627  0.38103278  1
  H  H69  1  0.61394550  0.27313126  0.40514125  1
  H  H70  1  0.62648030  0.61203740  0.39277393  1
  H  H71  1  0.61671514  0.94437452  0.40912092  1
  H  H72  1  0.37970342  0.21659205  0.62071125  1
  H  H73  1  0.36798906  0.56043031  0.58543913  1
  H  H74  1  0.37794737  0.88560970  0.62370353  1
  H  H75  1  0.88319157  0.21460073  0.61717163  1
  H  H76  1  0.86976521  0.55187305  0.61768651  1
  H  H77  1  0.87836974  0.88824642  0.60889795  1
  H  H78  1  0.12808320  0.10929402  0.09057555  1
  H  H79  1  0.13775563  0.44325555  0.09430540  1
  H  H80  1  0.11824806  0.78245872  0.12134950  1
  H  H81  1  0.62320094  0.12131609  0.12865873  1
  H  H82  1  0.62991913  0.44776179  0.11013024  1
  H  H83  1  0.61879080  0.77993237  0.11616690  1
  H  H84  1  0.12137684  0.22027328  0.88137342  1
  H  H85  1  0.12588032  0.55166017  0.89155871  1
  H  H86  1  0.11774543  0.88229091  0.86711051  1
  H  H87  1  0.62279723  0.22092593  0.89086967  1
  H  H88  1  0.62454774  0.55325822  0.89038129  1
  H  H89  1  0.62572404  0.89166142  0.90673115  1
  H  H90  1  0.36825429  0.11263350  0.39205508  1
  H  H91  1  0.37511044  0.44813046  0.39316358  1
  H  H92  1  0.36628160  0.77484517  0.40261943  1
  H  H93  1  0.87408236  0.11056491  0.39038881  1
  H  H94  1  0.87560668  0.44854522  0.38379334  1
  H  H95  1  0.86558711  0.77445109  0.40021588  1
  H  H96  1  0.37030045  0.28484280  0.37485040  1
  H  H97  1  0.37781674  0.61247202  0.39308214  1
  H  H98  1  0.37310654  0.94858231  0.37543169  1
  H  H99  1  0.86812799  0.28144535  0.37611216  1
  H  H100  1  0.87583262  0.61127848  0.40098152  1
  H  H101  1  0.87198343  0.94896396  0.39458644  1
  H  H102  1  0.12606360  0.05495916  0.89095786  1
  H  H103  1  0.11380294  0.38969745  0.90219964  1
  H  H104  1  0.13176272  0.71698111  0.87688158  1
  H  H105  1  0.62611682  0.05179438  0.88537339  1
  H  H106  1  0.61439580  0.38885810  0.89841127  1
  H  H107  1  0.63042482  0.71802538  0.88291627  1
  H  H108  1  0.12723681  0.27580098  0.10560387  1
  H  H109  1  0.12486864  0.61041091  0.10671093  1
  H  H110  1  0.12757765  0.94268989  0.10959568  1
  H  H111  1  0.63172961  0.28238893  0.11754611  1
  H  H112  1  0.62546904  0.61121764  0.10262364  1
  H  H113  1  0.63058492  0.94742376  0.11838163  1
  H  H114  1  0.37901017  0.05143031  0.61389903  1
  H  H115  1  0.37421488  0.38310727  0.63211921  1
  H  H116  1  0.38689081  0.72078427  0.59844636  1
  H  H117  1  0.88102980  0.05538117  0.60108878  1
  H  H118  1  0.88563662  0.39180880  0.59200797  1
  H  H119  1  0.88554001  0.72345026  0.60079784  1
  H  H120  1  0.11946108  0.11209942  0.38556265  1
  H  H121  1  0.12609389  0.44735633  0.39123413  1
  H  H122  1  0.12048065  0.78074014  0.37423968  1
  H  H123  1  0.62529429  0.11179447  0.39455340  1
  H  H124  1  0.62593803  0.44945233  0.38754426  1
  H  H125  1  0.61860830  0.78049952  0.37591587  1
  H  H126  1  0.36894289  0.22243370  0.90221893  1
  H  H127  1  0.37501229  0.55545638  0.89330857  1
  H  H128  1  0.36059002  0.89249289  0.90798123  1
  H  H129  1  0.87152934  0.22439276  0.89355929  1
  H  H130  1  0.87365380  0.55363720  0.89338512  1
  H  H131  1  0.87113295  0.88435809  0.87855697  1
  H  H132  1  0.37238899  0.11679377  0.12353234  1
  H  H133  1  0.38360688  0.45308793  0.12453055  1
  H  H134  1  0.36670999  0.77750806  0.10617324  1
  H  H135  1  0.86467449  0.10467358  0.08664836  1
  H  H136  1  0.87888042  0.44468002  0.10598703  1
  H  H137  1  0.86656410  0.77696348  0.09981024  1
  H  H138  1  0.13217454  0.22372330  0.60179267  1
  H  H139  1  0.12708582  0.54659654  0.62841786  1
  H  H140  1  0.13149606  0.89190378  0.59957133  1
  H  H141  1  0.63631995  0.22165523  0.59723726  1
  H  H142  1  0.62203221  0.55714445  0.59890175  1
  H  H143  1  0.62891063  0.88860984  0.61786034  1
  H  H144  1  0.09354112  0.91771848  0.00061571  1
  H  H145  1  0.61264340  0.74331443  0.51047417  1
  H  H146  1  0.45359895  0.74711042  0.49158185  1
  H  H147  1  0.16170985  0.08298834  0.49587440  1
  H  H148  1  0.53573620  0.92120986  0.50765854  1
  H  H149  1  0.78006203  0.07957726  -0.00964012  1
  H  H150  1  0.21041863  0.41861308  -0.00994378  1
  H  H151  1  0.19622999  0.24976241  0.49948832  1
  H  H152  1  0.29228216  0.74724211  0.50313399  1
  H  H153  1  0.79478160  0.74367268  0.50357868  1
  H  H154  1  0.35058271  0.25014740  0.50905415  1
  H  H155  1  0.82285536  0.90863719  0.49760638  1
  H  H156  1  0.16560733  0.41616568  0.50282739  1
  H  H157  1  0.53565649  0.24857369  0.50411999  1
  H  H158  1  0.95305655  0.74629690  0.49804514  1
  H  H159  1  0.44124404  0.24913638  -0.00572671  1
  H  H160  1  0.85266864  0.24994822  0.51172744  1
  H  H161  1  0.95209722  0.74792154  1.00303388  1
  H  H162  1  0.93140828  0.10679809  0.97892631  1
  H  H163  1  0.36606399  0.42382545  0.01455765  1
  H  H164  1  0.30083624  0.24894698  1.00499873  1
  H  H165  1  0.41935598  0.08102062  0.50095750  1
  H  H166  1  0.59896921  0.08365307  0.99452142  1
  H  H167  1  0.67666840  0.41584859  0.00134650  1
  H  H168  1  0.20921046  0.08589741  -0.00776587  1
  H  H169  1  0.70672799  0.23688830  0.49385512  1
  H  H170  1  0.96593429  0.41625644  0.48875020  1
  H  H171  1  0.38080563  0.41470145  0.51793524  1
  H  H172  1  0.54131613  0.41885982  0.49049341  1
  H  H173  1  0.67192764  0.92228475  0.51298482  1
  H  H174  1  0.30903999  0.74802624  -0.00208686  1
  H  H175  1  0.80195125  0.74645023  -0.00268058  1
  H  H176  1  0.28109471  0.91974980  1.01044462  1
  H  H177  1  0.44591840  0.91615481  -0.00306746  1
  H  H178  1  0.10750053  0.74732785  0.50992862  1
  H  H179  1  0.06712460  0.06296662  0.99695597  1
  H  H180  1  0.14786310  0.75093956  0.00941732  1
  H  H181  1  0.04260834  0.25041153  0.50657047  1
  H  H182  1  0.93155360  0.93369588  0.50610379  1
  H  H183  1  0.08239749  0.92705222  0.49026878  1
  H  H184  1  0.83312297  0.42602652  0.49774267  1
  H  H185  1  0.67347094  0.43025336  0.50085329  1
  H  H186  1  0.45391347  0.74462962  1.00404271  1
  H  H187  1  0.93598282  0.91087446  -0.00235944  1
  H  H188  1  0.13241907  0.57889453  0.51355098  1
  H  H189  1  0.93959369  0.57947940  0.50134497  1
  H  H190  1  0.20391607  0.91875156  0.49468938  1
  H  H191  1  0.04674189  0.41823023  1.00424164  1
  Pb  Pb192  1  0.25639943  0.04874935  0.75660355  1
  Pb  Pb193  1  0.25057384  0.38114796  0.75828611  1
  Pb  Pb194  1  0.25892631  0.71644078  0.74602270  1
  Pb  Pb195  1  0.75315559  0.04719839  0.75347341  1
  Pb  Pb196  1  0.75386372  0.38266785  0.74261072  1
  Pb  Pb197  1  0.75483051  0.71327833  0.75321639  1
  Pb  Pb198  1  0.24486372  0.28434890  0.24939192  1
  Pb  Pb199  1  0.24851104  0.61994557  0.25070823  1
  Pb  Pb200  1  0.24635387  0.95382056  0.24882507  1
  Pb  Pb201  1  0.74722695  0.28667448  0.25728354  1
  Pb  Pb202  1  0.74828938  0.62022624  0.25134440  1
  Pb  Pb203  1  0.74417462  0.95166743  0.25745968  1
  Pb  Pb204  1  0.00188306  0.21351459  0.74712192  1
  Pb  Pb205  1  0.00344049  0.54760631  0.74764180  1
  Pb  Pb206  1  0.00220397  0.88137603  0.74392342  1
  Pb  Pb207  1  0.50568129  0.21595417  0.74805913  1
  Pb  Pb208  1  0.50111563  0.54717002  0.74343723  1
  Pb  Pb209  1  0.50640309  0.88232815  0.75659645  1
  Pb  Pb210  1  -0.00723555  0.11764659  0.23776742  1
  Pb  Pb211  1  -0.00069781  0.45275607  0.24187719  1
  Pb  Pb212  1  -0.00670308  0.78451338  0.25371396  1
  Pb  Pb213  1  0.49847868  0.12001709  0.25471352  1
  Pb  Pb214  1  0.49938540  0.45367365  0.25169988  1
  Pb  Pb215  1  0.49200852  0.78486912  0.24627496  1
  C  C216  1  0.00173876  0.04638089  0.63295418  1
  C  C217  1  -0.00089737  0.38146162  0.63325426  1
  C  C218  1  0.00537375  0.70992441  0.63306099  1
  C  C219  1  0.50368452  0.04616766  0.63230987  1
  C  C220  1  0.50192998  0.38074920  0.63297933  1
  C  C221  1  0.50630431  0.71051321  0.63210556  1
  C  C222  1  0.00360836  0.28731213  0.13010059  1
  C  C223  1  0.00076315  0.62037648  0.13191401  1
  C  C224  1  0.00162587  0.95128933  0.12655166  1
  C  C225  1  0.50421199  0.28789252  0.13182342  1
  C  C226  1  0.50235715  0.62026080  0.12935822  1
  C  C227  1  0.50350748  0.95462336  0.13393218  1
  C  C228  1  0.00300350  0.04569189  0.86635071  1
  C  C229  1  -0.00630090  0.37760623  0.87048831  1
  C  C230  1  0.00429815  0.71065323  0.86421319  1
  C  C231  1  0.49936124  0.04631037  0.87352029  1
  C  C232  1  0.49279759  0.37921679  0.86894737  1
  C  C233  1  0.50364263  0.70856516  0.86919388  1
  C  C234  1  -0.00448318  0.28684145  0.36620069  1
  C  C235  1  -0.00350467  0.61963602  0.36883950  1
  C  C236  1  -0.00533229  0.95493052  0.36519082  1
  C  C237  1  0.49808254  0.28882100  0.36688908  1
  C  C238  1  0.50222875  0.62041036  0.36787982  1
  C  C239  1  0.50106668  0.95601825  0.36905152  1
  C  C240  1  0.25253880  0.21083020  0.63285390  1
  C  C241  1  0.25391175  0.54626781  0.62700555  1
  C  C242  1  0.25015870  0.88022584  0.63467177  1
  C  C243  1  0.75610870  0.20988292  0.63010667  1
  C  C244  1  0.74255913  0.54682397  0.63139714  1
  C  C245  1  0.75489860  0.88084182  0.63602019  1
  C  C246  1  0.24359228  0.12218648  0.13048593  1
  C  C247  1  0.25549815  0.45610266  0.13151130  1
  C  C248  1  0.24502952  0.78791004  0.13450711  1
  C  C249  1  0.75215454  0.12279013  0.12849162  1
  C  C250  1  0.75516133  0.45507931  0.13146176  1
  C  C251  1  0.74565637  0.78888000  0.12966078  1
  C  C252  1  0.24899249  0.21198320  0.87001577  1
  C  C253  1  0.25081045  0.54729551  0.87218953  1
  C  C254  1  0.24667203  0.87956354  0.86768200  1
  C  C255  1  0.74780747  0.21441865  0.86909933  1
  C  C256  1  0.74975408  0.54460528  0.86922522  1
  C  C257  1  0.74347990  0.87919306  0.87025859  1
  C  C258  1  0.24475191  0.12079701  0.36583389  1
  C  C259  1  0.24985624  0.45500514  0.37101935  1
  C  C260  1  0.24862763  0.78816007  0.36720121  1
  C  C261  1  0.74913404  0.11947612  0.36779712  1
  C  C262  1  0.75027093  0.45436202  0.36424379  1
  C  C263  1  0.74649169  0.78654348  0.36536744  1
  C  C264  1  0.03726297  0.25204098  0.03954085  1
  C  C265  1  0.47862196  0.92671594  0.03923189  1
  C  C266  1  0.28885256  0.57471979  0.96405003  1
  C  C267  1  0.20866172  0.57330845  0.96342359  1
  C  C268  1  0.71614489  0.42667467  0.03973912  1
  C  C269  1  0.27448061  0.75997445  0.03880993  1
  C  C270  1  0.46051006  0.07210195  0.53883886  1
  C  C271  1  0.99186538  0.40577495  0.53364591  1
  C  C272  1  0.76546175  0.75682536  0.46048470  1
  C  C273  1  0.79273354  0.57325025  0.54204716  1
  C  C274  1  0.20420098  0.09299829  0.45762020  1
  C  C275  1  0.78952351  0.90343634  0.54047041  1
  C  C276  1  0.71132304  0.43523831  0.46012747  1
  C  C277  1  0.48421926  0.73675541  0.53484765  1
  C  C278  1  0.79984919  0.90711243  0.95711285  1
  C  C279  1  0.23839298  0.42893857  0.03444712  1
  C  C280  1  0.19272842  0.24368007  0.95740861  1
  C  C281  1  0.01333344  0.26221843  0.46308951  1
  C  C282  1  0.23226412  0.90708089  0.53849299  1
  C  C283  1  0.56535926  0.73487369  0.54419179  1
  C  C284  1  0.20993084  0.42716754  0.46527042  1
  C  C285  1  0.47553417  0.26070407  0.03547749  1
  C  C286  1  0.79330664  0.43399941  0.45876217  1
  C  C287  1  0.96254678  0.93373105  0.46172658  1
  C  C288  1  0.78203800  0.24554279  0.96116178  1
  C  C289  1  0.93827236  0.40983344  0.95777490  1
  C  C290  1  0.18450644  0.57140291  0.54321051  1
  C  C291  1  0.54206506  0.07367031  0.53871092  1
  C  C292  1  0.29145079  0.42833380  0.46420905  1
  C  C293  1  0.19279290  0.76133418  0.04445249  1
  C  C294  1  0.43413836  0.40579539  0.54842719  1
  C  C295  1  0.68084166  0.09561466  0.04675136  1
  C  C296  1  0.78456449  0.57729373  0.96046969  1
  C  C297  1  0.55652742  0.26269626  0.04198118  1
  C  C298  1  0.44629436  0.40760955  0.95901314  1
  C  C299  1  0.26390562  0.57603555  0.52982948  1
  C  C300  1  0.25471555  0.90792943  0.96592087  1
  C  C301  1  0.51438198  0.40797407  0.53492502  1
  C  C302  1  0.53418382  0.58948157  0.03674283  1
  C  C303  1  0.05109655  0.07369408  0.54320650  1
  C  C304  1  0.98300887  0.73785583  0.95976935  1
  C  C305  1  0.30669278  0.24020663  0.54498192  1
  C  C306  1  0.06159345  0.73942684  0.54609548  1
  C  C307  1  0.17569699  0.90421269  0.95034483  1
  C  C308  1  0.18718384  0.75794524  0.45248601  1
  C  C309  1  0.07059340  0.40255390  0.54979092  1
  C  C310  1  0.47391660  0.08023038  0.96837693  1
  C  C311  1  0.69224872  0.75551959  0.04203297  1
  N  N312  1  0.43478386  0.26271843  0.45204611  1
  N  N313  1  0.79522425  0.42535104  0.03811031  1
  N  N314  1  0.46423361  0.59353007  0.46147992  1
  N  N315  1  0.22758316  0.24349832  0.53995597  1
  N  N316  1  0.97080571  0.93207904  0.03085667  1
  N  N317  1  0.73201788  0.24183227  0.53730097  1
  N  N318  1  0.55852404  0.74089856  0.95576674  1
  N  N319  1  0.23138764  0.09132517  0.03665871  1
  N  N320  1  0.71296139  0.09213739  0.46162947  1
  N  N321  1  0.04135562  0.92832466  0.45511843  1
  N  N322  1  0.93502604  0.26540117  0.45491063  1
  N  N323  1  0.04843081  0.92125458  0.03811728  1
  N  N324  1  0.97383024  0.07429112  0.53612962  1
  N  N325  1  0.97100412  0.59205144  0.46233098  1
  N  N326  1  0.81000045  0.23178492  0.54194897  1
  N  N327  1  0.26509046  0.75587378  0.46124269  1
  N  N328  1  0.04093821  0.07796266  0.95683162  1
  N  N329  1  0.77087778  0.75562126  0.03721893  1
  N  N330  1  0.27126336  0.24287723  0.96374732  1
  N  N331  1  0.71009013  0.90315849  0.54428202  1
  N  N332  1  0.95952935  0.07180283  0.95756214  1
  N  N333  1  0.28361960  0.09299039  0.46012772  1
  N  N334  1  0.51330020  0.92673132  0.46350183  1
  N  N335  1  0.55196924  0.07591055  0.96097133  1
  N  N336  1  0.52361627  0.40837304  0.96478177  1
  N  N337  1  0.45688604  0.59018563  0.03762496  1
  N  N338  1  0.78932330  0.09125408  0.46039079  1
  N  N339  1  0.03763432  0.59139304  0.03870723  1
  N  N340  1  0.95993347  0.25324933  0.03932342  1
  N  N341  1  0.04865816  0.59222219  0.45780753  1
  N  N342  1  0.54036604  0.59299386  0.46139162  1
  N  N343  1  0.01674510  0.41023772  0.96343918  1
  N  N344  1  0.98247232  0.74246647  0.53984507  1
  N  N345  1  0.30820521  0.09388413  0.04653293  1
  N  N346  1  0.71574323  0.57495124  0.53484436  1
  N  N347  1  0.48083088  0.74095587  0.96124594  1
  N  N348  1  0.75771891  0.08917579  0.03407757  1
  N  N349  1  0.06163692  0.73694688  0.95266695  1
  N  N350  1  0.96151911  0.59256182  0.03896462  1
  N  N351  1  0.70723252  0.57723032  0.96078970  1
  N  N352  1  0.55743804  0.92637793  0.04449416  1
  N  N353  1  0.70473765  0.24399102  0.96179896  1
  N  N354  1  0.31060569  0.90442557  0.54642841  1
  N  N355  1  0.31653646  0.43126892  0.04599409  1
  N  N356  1  0.51151869  0.25758383  0.46063595  1
  N  N357  1  0.43653418  0.92821540  0.45343456  1
  N  N358  1  0.68727833  0.75915679  0.45235793  1
  N  N359  1  0.72319803  0.91015228  0.96711991  1
  N  N360  1  0.07046562  0.05716583  0.60193452  1
  N  N361  1  0.07426065  0.38813581  0.60995465  1
  N  N362  1  0.07587709  0.72116659  0.60460012  1
  N  N363  1  0.56794523  0.05820304  0.59518785  1
  N  N364  1  0.55555843  0.39217628  0.58797042  1
  N  N365  1  0.57761299  0.71907392  0.60449797  1
  N  N366  1  0.44376637  0.27675990  0.09283116  1
  N  N367  1  0.43678772  0.60948982  0.09672291  1
  N  N368  1  0.44372040  0.94360704  0.09379126  1
  N  N369  1  0.93873784  0.27551235  0.09706613  1
  N  N370  1  0.93699361  0.61043729  0.09665642  1
  N  N371  1  0.94088722  0.94156754  0.08817830  1
  N  N372  1  0.44093223  0.06182032  0.91453533  1
  N  N373  1  0.42473241  0.39015275  0.90057610  1
  N  N374  1  0.44581457  0.71886952  0.90991598  1
  N  N375  1  0.93855029  0.06158371  0.89794671  1
  N  N376  1  0.92373910  0.39021002  0.90014892  1
  N  N377  1  0.94636198  0.72244234  0.90566442  1
  N  N378  1  0.05183488  0.27574818  0.40916691  1
  N  N379  1  0.06416967  0.60885019  0.39964203  1
  N  N380  1  0.06121733  0.94359570  0.39619433  1
  N  N381  1  0.55161099  0.27664041  0.41033616  1
  N  N382  1  0.56557209  0.60933457  0.40329283  1
  N  N383  1  0.55430287  0.94603451  0.41336732  1
  N  N384  1  0.32253765  0.22119917  0.60300703  1
  N  N385  1  0.30581454  0.56089157  0.58030478  1
  N  N386  1  0.31999211  0.88802975  0.60625640  1
  N  N387  1  0.82499262  0.22146593  0.60190984  1
  N  N388  1  0.81175245  0.55627172  0.60056356  1
  N  N389  1  0.81774772  0.88872365  0.59704139  1
  N  N390  1  0.19029676  0.11112785  0.08640665  1
  N  N391  1  0.20007067  0.44368756  0.08764302  1
  N  N392  1  0.17599974  0.77857290  0.10394910  1
  N  N393  1  0.67713211  0.11463461  0.10585944  1
  N  N394  1  0.68991866  0.44437464  0.09677686  1
  N  N395  1  0.67642022  0.77565442  0.09924037  1
  N  N396  1  0.17888273  0.22519904  0.89915070  1
  N  N397  1  0.18460826  0.55672560  0.90740812  1
  N  N398  1  0.17158815  0.88719994  0.89066094  1
  N  N399  1  0.68310194  0.22436068  0.90308192  1
  N  N400  1  0.68523066  0.55648310  0.90272296  1
  N  N401  1  0.68778190  0.89231855  0.91178441  1
  N  N402  1  0.30718443  0.11031330  0.40235077  1
  N  N403  1  0.31521564  0.44492869  0.40702134  1
  N  N404  1  0.30406818  0.77707461  0.40938454  1
  N  N405  1  0.81326740  0.10823207  0.40228614  1
  N  N406  1  0.81619424  0.44561766  0.39885077  1
  N  N407  1  0.80337657  0.77400962  0.40752020  1
  N  N408  1  0.42685762  0.27998835  0.39318395  1
  N  N409  1  0.43893959  0.61061467  0.40382471  1
  N  N410  1  0.42958925  0.94472293  0.39414511  1
  N  N411  1  0.92543726  0.28012835  0.39414149  1
  N  N412  1  0.93769848  0.60893310  0.40849864  1
  N  N413  1  0.93276610  0.94773636  0.40532556  1
  N  N414  1  0.06567510  0.05200815  0.90354043  1
  N  N415  1  0.05209423  0.38850979  0.91046039  1
  N  N416  1  0.07331908  0.71974557  0.89304161  1
  N  N417  1  0.56826221  0.05430582  0.90246105  1
  N  N418  1  0.55256192  0.39008433  0.90742916  1
  N  N419  1  0.57201835  0.72239956  0.89770965  1
  N  N420  1  0.06695004  0.27251558  0.09414367  1
  N  N421  1  0.06363786  0.60844613  0.09625278  1
  N  N422  1  0.06821647  0.94156452  0.09444765  1
  N  N423  1  0.57350184  0.27880420  0.10006510  1
  N  N424  1  0.56495349  0.60764851  0.09174365  1
  N  N425  1  0.57124216  0.94374110  0.10356236  1
  N  N426  1  0.43783674  0.05531407  0.59834167  1
  N  N427  1  0.42856384  0.38906590  0.60941951  1
  N  N428  1  0.44868581  0.72158790  0.59009890  1
  N  N429  1  0.94290448  0.05691699  0.59344363  1
  N  N430  1  0.94772050  0.39215438  0.58721441  1
  N  N431  1  0.94780034  0.72108564  0.59243413  1
  N  N432  1  0.17917307  0.10944196  0.39982678  1
  N  N433  1  0.18545531  0.44392435  0.40567940  1
  N  N434  1  0.17648044  0.77674828  0.39391307  1
  N  N435  1  0.68655991  0.10908728  0.40427901  1
  N  N436  1  0.68589833  0.44737304  0.40107182  1
  N  N437  1  0.67669924  0.77739414  0.39308577  1
  N  N438  1  0.30708113  0.22154144  0.91065399  1
  N  N439  1  0.31550503  0.55884799  0.90839773  1
  N  N440  1  0.29832930  0.89234053  0.91297642  1
  N  N441  1  0.81129401  0.22769228  0.90549830  1
  N  N442  1  0.81354928  0.55785776  0.90530353  1
  N  N443  1  0.81459739  0.88881834  0.89821670  1
  N  N444  1  0.31512713  0.11116064  0.10544774  1
  N  N445  1  0.32651546  0.44802918  0.10559514  1
  N  N446  1  0.30566658  0.77678129  0.09530377  1
  N  N447  1  0.80265201  0.10866674  0.08366222  1
  N  N448  1  0.81797009  0.44327715  0.09566252  1
  N  N449  1  0.80496325  0.77793770  0.09047888  1
  N  N450  1  0.19417030  0.22281788  0.59328384  1
  N  N451  1  0.17995407  0.55315372  0.60456943  1
  N  N452  1  0.19332245  0.89216183  0.59227117  1
  N  N453  1  0.69838837  0.21874160  0.58887074  1
  N  N454  1  0.68411422  0.55827057  0.59167772  1
  N  N455  1  0.68904329  0.89188160  0.60399701  1
  Cl  Cl456  1  0.25140938  0.05212747  0.62605307  1
  Cl  Cl457  1  0.25084561  0.37992121  0.63077804  1
  Cl  Cl458  1  0.26407845  0.72475790  0.60545053  1
  Cl  Cl459  1  0.75495276  0.04950981  0.62233134  1
  Cl  Cl460  1  0.74928774  0.38807374  0.60710424  1
  Cl  Cl461  1  0.76606074  0.72402842  0.61746440  1
  Cl  Cl462  1  0.25608617  0.27594908  0.10992247  1
  Cl  Cl463  1  0.24879388  0.61216524  0.11906044  1
  Cl  Cl464  1  0.25367894  0.94566421  0.11441334  1
  Cl  Cl465  1  0.75586227  0.28131096  0.12742130  1
  Cl  Cl466  1  0.75220797  0.61801902  0.11836472  1
  Cl  Cl467  1  0.76015903  0.94962537  0.12566333  1
  Cl  Cl468  1  0.24879543  0.06319025  0.89627163  1
  Cl  Cl469  1  0.23759172  0.38796243  0.89430684  1
  Cl  Cl470  1  0.26377212  0.72243665  0.88004194  1
  Cl  Cl471  1  0.75678917  0.05829579  0.89492837  1
  Cl  Cl472  1  0.73838515  0.38767497  0.87695564  1
  Cl  Cl473  1  0.76138874  0.72340816  0.89148920  1
  Cl  Cl474  1  0.23637055  0.27339918  0.39090981  1
  Cl  Cl475  1  0.25303199  0.61326588  0.38554846  1
  Cl  Cl476  1  0.24254152  0.94242159  0.38335578  1
  Cl  Cl477  1  0.73382892  0.26809215  0.39599488  1
  Cl  Cl478  1  0.75518127  0.61426037  0.38458217  1
  Cl  Cl479  1  0.74056217  0.93970355  0.39967455  1
  Cl  Cl480  1  0.01019862  0.22161822  0.60995281  1
  Cl  Cl481  1  -0.00849943  0.55641614  0.61105555  1
  Cl  Cl482  1  0.00545143  0.89256749  0.60734199  1
  Cl  Cl483  1  0.51675395  0.22619122  0.60238918  1
  Cl  Cl484  1  0.49450051  0.55636890  0.61213802  1
  Cl  Cl485  1  0.50782036  0.89586277  0.61593405  1
  Cl  Cl486  1  -0.00050244  0.10328214  0.09523888  1
  Cl  Cl487  1  0.01323026  0.43746475  0.10408437  1
  Cl  Cl488  1  -0.01252958  0.78095899  0.11846629  1
  Cl  Cl489  1  0.49663984  0.11632004  0.12231166  1
  Cl  Cl490  1  0.50696615  0.44906323  0.12124204  1
  Cl  Cl491  1  0.48968350  0.77358346  0.10916240  1
  Cl  Cl492  1  -0.00376007  0.21573005  0.87805109  1
  Cl  Cl493  1  -0.00084456  0.54551079  0.87595607  1
  Cl  Cl494  1  -0.00768897  0.89111880  0.88072328  1
  Cl  Cl495  1  0.49174132  0.21982245  0.88245633  1
  Cl  Cl496  1  0.50124476  0.55262325  0.87628448  1
  Cl  Cl497  1  0.49010738  0.89177974  0.89094500  1
  Cl  Cl498  1  -0.00364293  0.11346810  0.36965314  1
  Cl  Cl499  1  -0.00047309  0.45032619  0.37503555  1
  Cl  Cl500  1  -0.01255613  0.77245017  0.39636548  1
  Cl  Cl501  1  0.49923279  0.11364705  0.38934681  1
  Cl  Cl502  1  0.50059858  0.44458157  0.38594008  1
  Cl  Cl503  1  0.48692406  0.77885996  0.38100014  1
  Cl  Cl504  1  0.35544865  0.14753274  0.74812701  1
  Cl  Cl505  1  0.35830364  0.48255991  0.74974545  1
  Cl  Cl506  1  0.35400452  0.81768376  0.74458662  1
  Cl  Cl507  1  0.86220640  0.14773648  0.74674631  1
  Cl  Cl508  1  0.85944727  0.47844057  0.74476873  1
  Cl  Cl509  1  0.86235580  0.81634784  0.75458878  1
  Cl  Cl510  1  0.14205067  0.18648500  0.24712768  1
  Cl  Cl511  1  0.13925379  0.51803116  0.24900619  1
  Cl  Cl512  1  0.13144014  0.85467524  0.25367843  1
  Cl  Cl513  1  0.63717385  0.18555905  0.24494520  1
  Cl  Cl514  1  0.64012593  0.51815963  0.25255983  1
  Cl  Cl515  1  0.63997240  0.85550312  0.24950588  1
  Cl  Cl516  1  0.13578918  0.14394042  0.75707828  1
  Cl  Cl517  1  0.13847627  0.47986482  0.74274696  1
  Cl  Cl518  1  0.13349036  0.80870421  0.75618409  1
  Cl  Cl519  1  0.64017020  0.14766272  0.75114858  1
  Cl  Cl520  1  0.63747086  0.48061355  0.74657039  1
  Cl  Cl521  1  0.64058198  0.81339151  0.74682158  1
  Cl  Cl522  1  0.36228651  0.18764403  0.24954242  1
  Cl  Cl523  1  0.36049168  0.51926242  0.24793571  1
  Cl  Cl524  1  0.35518393  0.85124339  0.24984386  1
  Cl  Cl525  1  0.85812806  0.18529328  0.25295464  1
  Cl  Cl526  1  0.86065318  0.51909377  0.24649192  1
  Cl  Cl527  1  0.85992264  0.85303715  0.25729250  1
  Cl  Cl528  1  0.11491835  0.31218929  0.74964485  1
  Cl  Cl529  1  0.11201865  0.64490878  0.74592184  1
  Cl  Cl530  1  0.11009477  0.97788933  0.75474423  1
  Cl  Cl531  1  0.60447426  0.31289364  0.75101560  1
  Cl  Cl532  1  0.61788392  0.64604263  0.74947094  1
  Cl  Cl533  1  0.61122889  0.97943479  0.75566472  1
  Cl  Cl534  1  0.38640182  0.01924189  0.25629705  1
  Cl  Cl535  1  0.38576682  0.35380233  0.25443618  1
  Cl  Cl536  1  0.39024229  0.68594737  0.24444057  1
  Cl  Cl537  1  0.89540501  0.01822829  0.24584040  1
  Cl  Cl538  1  0.88622443  0.35291251  0.25653909  1
  Cl  Cl539  1  0.89242197  0.68345633  0.25303796  1
  Cl  Cl540  1  0.38487337  0.31135515  0.74720144  1
  Cl  Cl541  1  0.39630467  0.65241638  0.74829781  1
  Cl  Cl542  1  0.39248856  0.98227488  0.75233117  1
  Cl  Cl543  1  0.89046079  0.31491329  0.74973425  1
  Cl  Cl544  1  0.89205888  0.64754397  0.74821146  1
  Cl  Cl545  1  0.89014119  0.98112944  0.75116803  1
  Cl  Cl546  1  0.11121340  0.02082995  0.24393422  1
  Cl  Cl547  1  0.10841798  0.35053520  0.24940033  1
  Cl  Cl548  1  0.11123250  0.68799563  0.25851990  1
  Cl  Cl549  1  0.60907085  0.01876128  0.24528359  1
  Cl  Cl550  1  0.60864867  0.35143660  0.25038624  1
  Cl  Cl551  1  0.61199621  0.68936757  0.25364071  1
