# generated using pymatgen
data_H8PbC4(N3Cl2)2
_symmetry_space_group_name_H-M   'P 1'
_cell_length_a   16.63198504
_cell_length_b   22.52042382
_cell_length_c   21.59537227
_cell_angle_alpha   90.00115025
_cell_angle_beta   90.02095534
_cell_angle_gamma   90.00323557
_symmetry_Int_Tables_number   1
_chemical_formula_structural   H8PbC4(N3Cl2)2
_chemical_formula_sum   'H192 Pb24 C96 N144 Cl96'
_cell_volume   8088.74808902
_cell_formula_units_Z   24
loop_
 _symmetry_equiv_pos_site_id
 _symmetry_equiv_pos_as_xyz
  1  'x, y, z'
loop_
 _atom_site_type_symbol
 _atom_site_label
 _atom_site_symmetry_multiplicity
 _atom_site_fract_x
 _atom_site_fract_y
 _atom_site_fract_z
 _atom_site_occupancy
  H  H0  1  0.00716900  0.02664749  0.68056210  1
  H  H1  1  0.00970507  0.36270614  0.67957115  1
  H  H2  1  0.01598308  0.69620239  0.67877723  1
  H  H3  1  0.50698601  0.02519973  0.67686893  1
  H  H4  1  0.48737599  0.36321719  0.67863569  1
  H  H5  1  0.49713696  0.69512056  0.67645190  1
  H  H6  1  -0.00120808  0.30698239  0.18115212  1
  H  H7  1  -0.01304142  0.63793003  0.18091676  1
  H  H8  1  0.00892062  0.97602574  0.17468081  1
  H  H9  1  0.51300609  0.30970252  0.17815813  1
  H  H10  1  0.51735074  0.63595509  0.18037365  1
  H  H11  1  0.49082390  0.97382214  0.17981491  1
  H  H12  1  -0.00938736  0.02978261  0.82153064  1
  H  H13  1  -0.01174210  0.36120637  0.82175262  1
  H  H14  1  0.00010949  0.69336917  0.82639920  1
  H  H15  1  0.50801131  0.02904125  0.82402326  1
  H  H16  1  0.51730970  0.36070397  0.82727987  1
  H  H17  1  0.48764148  0.69745487  0.82113170  1
  H  H18  1  0.01829699  0.30236909  0.32353078  1
  H  H19  1  -0.00240279  0.64030589  0.32017272  1
  H  H20  1  0.00062139  0.96936558  0.31941566  1
  H  H21  1  0.48478656  0.29968145  0.32082502  1
  H  H22  1  0.50544832  0.64033399  0.32047118  1
  H  H23  1  0.48743068  0.96770623  0.32243043  1
  H  H24  1  0.26002623  0.19744468  0.68490182  1
  H  H25  1  0.25890653  0.53194732  0.68147790  1
  H  H26  1  0.24712555  0.85834382  0.67444269  1
  H  H27  1  0.74848176  0.19484479  0.67033528  1
  H  H28  1  0.74029027  0.52854129  0.67938350  1
  H  H29  1  0.74174426  0.86013140  0.68080557  1
  H  H30  1  0.24219077  0.13865949  0.17408000  1
  H  H31  1  0.24643905  0.47482784  0.17064418  1
  H  H32  1  0.26062898  0.80224557  0.17863383  1
  H  H33  1  0.75529330  0.13704304  0.17385553  1
  H  H34  1  0.75752972  0.47278748  0.17711848  1
  H  H35  1  0.74409742  0.80376453  0.17909201  1
  H  H36  1  0.24642253  0.19583407  0.81962773  1
  H  H37  1  0.25732319  0.52950221  0.82623651  1
  H  H38  1  0.23739374  0.85854153  0.82183153  1
  H  H39  1  0.74760094  0.19557219  0.81855412  1
  H  H40  1  0.73514739  0.52736003  0.81969796  1
  H  H41  1  0.76250510  0.86214099  0.82777868  1
  H  H42  1  0.24972735  0.13534087  0.32064159  1
  H  H43  1  0.23547417  0.46896006  0.31578709  1
  H  H44  1  0.25294336  0.80635853  0.32005989  1
  H  H45  1  0.73925042  0.13895632  0.32119108  1
  H  H46  1  0.76085552  0.47306386  0.32509364  1
  H  H47  1  0.73924854  0.80152354  0.32130478  1
  H  H48  1  0.11628569  0.05513905  0.59826391  1
  H  H49  1  0.12788633  0.39367539  0.60738065  1
  H  H50  1  0.11792483  0.72645666  0.59251068  1
  H  H51  1  0.61142175  0.05955259  0.59333141  1
  H  H52  1  0.62731613  0.38299167  0.62447026  1
  H  H53  1  0.62166436  0.72220358  0.60814607  1
  H  H54  1  0.37240174  0.28481719  0.12724327  1
  H  H55  1  0.37512882  0.61991678  0.13261523  1
  H  H56  1  0.37460287  0.94277964  0.10268777  1
  H  H57  1  0.87030258  0.27984607  0.11448904  1
  H  H58  1  0.87874877  0.60671457  0.09779790  1
  H  H59  1  0.87067274  0.95121368  0.12120124  1
  H  H60  1  0.36980420  0.04932018  0.87869483  1
  H  H61  1  0.37813230  0.38609981  0.87902727  1
  H  H62  1  0.37738540  0.72421660  0.90164835  1
  H  H63  1  0.86841408  0.05496741  0.89549454  1
  H  H64  1  0.88572551  0.39141831  0.90672001  1
  H  H65  1  0.87939696  0.72347732  0.89700232  1
  H  H66  1  0.11421602  0.27158108  0.41316287  1
  H  H67  1  0.12069035  0.61260528  0.38975850  1
  H  H68  1  0.12512721  0.94439544  0.39017847  1
  H  H69  1  0.62412589  0.28324752  0.37481404  1
  H  H70  1  0.62061856  0.61323379  0.39702043  1
  H  H71  1  0.62364008  0.94875490  0.38155373  1
  H  H72  1  0.38064965  0.21917639  0.61218554  1
  H  H73  1  0.37643601  0.55742362  0.60417749  1
  H  H74  1  0.37311919  0.88579258  0.60620402  1
  H  H75  1  0.87697014  0.22219309  0.60550453  1
  H  H76  1  0.87634829  0.54650185  0.62247920  1
  H  H77  1  0.87155373  0.88591962  0.61611162  1
  H  H78  1  0.13478057  0.10786493  0.09357096  1
  H  H79  1  0.12381982  0.44768183  0.10026336  1
  H  H80  1  0.12232517  0.78219839  0.12021522  1
  H  H81  1  0.63018307  0.11409509  0.10728860  1
  H  H82  1  0.62190306  0.44555978  0.12195396  1
  H  H83  1  0.62285062  0.77867173  0.10733503  1
  H  H84  1  0.13403132  0.22071494  0.89763101  1
  H  H85  1  0.12400150  0.55055011  0.88417911  1
  H  H86  1  0.13335789  0.89177109  0.90595769  1
  H  H87  1  0.64072520  0.22285247  0.90114939  1
  H  H88  1  0.62481059  0.55676399  0.90067512  1
  H  H89  1  0.62698232  0.88524560  0.88568512  1
  H  H90  1  0.38489461  0.11139269  0.37980808  1
  H  H91  1  0.36726204  0.45099034  0.37883237  1
  H  H92  1  0.38577782  0.78326211  0.38380453  1
  H  H93  1  0.88039917  0.11640466  0.37023126  1
  H  H94  1  0.86752075  0.44437693  0.40829788  1
  H  H95  1  0.87426644  0.78322013  0.37718145  1
  H  H96  1  0.37848254  0.27790977  0.40377592  1
  H  H97  1  0.37254384  0.61619960  0.38328570  1
  H  H98  1  0.37688072  0.93959104  0.40217687  1
  H  H99  1  0.87404629  0.28419325  0.37038459  1
  H  H100  1  0.87200354  0.61253344  0.38814099  1
  H  H101  1  0.87585423  0.94479017  0.38925095  1
  H  H102  1  0.11706109  0.05571606  0.89096831  1
  H  H103  1  0.12996375  0.38288558  0.87327665  1
  H  H104  1  0.12836430  0.71926822  0.89174647  1
  H  H105  1  0.61537797  0.05958974  0.90656669  1
  H  H106  1  0.62301635  0.39481855  0.90840817  1
  H  H107  1  0.62405153  0.71889477  0.88002632  1
  H  H108  1  0.11899324  0.27705671  0.11020881  1
  H  H109  1  0.12470058  0.61573628  0.12277420  1
  H  H110  1  0.11649557  0.94415825  0.09319525  1
  H  H111  1  0.61582088  0.27650393  0.09337732  1
  H  H112  1  0.61823595  0.60780801  0.09427233  1
  H  H113  1  0.62212068  0.95078129  0.11400456  1
  H  H114  1  0.36732292  0.04609409  0.62291000  1
  H  H115  1  0.38370534  0.39161095  0.59215759  1
  H  H116  1  0.37286614  0.72314091  0.60676349  1
  H  H117  1  0.87064824  0.05177701  0.62728363  1
  H  H118  1  0.88093328  0.38030962  0.61228458  1
  H  H119  1  0.87487462  0.71598407  0.62616235  1
  H  H120  1  0.13711474  0.10788873  0.39911616  1
  H  H121  1  0.11851565  0.44332101  0.39092940  1
  H  H122  1  0.13716880  0.77732651  0.39646717  1
  H  H123  1  0.63683308  0.10897580  0.40715736  1
  H  H124  1  0.62276751  0.44450382  0.37646245  1
  H  H125  1  0.62837319  0.77818753  0.40160676  1
  H  H126  1  0.38107655  0.21881229  0.87637401  1
  H  H127  1  0.37136510  0.55802234  0.90267093  1
  H  H128  1  0.37801051  0.88011371  0.87160684  1
  H  H129  1  0.88664172  0.21189545  0.87227344  1
  H  H130  1  0.87187106  0.55102673  0.87472904  1
  H  H131  1  0.87402604  0.89396332  0.90553686  1
  H  H132  1  0.38081913  0.11713671  0.11980799  1
  H  H133  1  0.37161499  0.44349059  0.10509957  1
  H  H134  1  0.36830291  0.77337375  0.09495392  1
  H  H135  1  0.87907518  0.11208528  0.10625634  1
  H  H136  1  0.86861793  0.44144219  0.09798933  1
  H  H137  1  0.87222934  0.78216571  0.11358840  1
  H  H138  1  0.13144612  0.21883179  0.61975591  1
  H  H139  1  0.12789793  0.55203156  0.61625481  1
  H  H140  1  0.12410692  0.88961702  0.60664528  1
  H  H141  1  0.62878882  0.22665212  0.60053442  1
  H  H142  1  0.62912786  0.55704908  0.60140543  1
  H  H143  1  0.62293751  0.88493145  0.60504928  1
  H  H144  1  0.15130870  0.58410807  -0.00323393  1
  H  H145  1  0.83484530  0.25369769  0.49967834  1
  H  H146  1  0.38145542  0.59146701  0.01845193  1
  H  H147  1  0.89188404  0.08063835  0.51240119  1
  H  H148  1  0.17305664  0.41126338  -0.00035321  1
  H  H149  1  0.79797287  0.41217956  -0.00299005  1
  H  H150  1  0.35846080  0.08432079  0.01023295  1
  H  H151  1  0.08636912  0.75002958  0.99716260  1
  H  H152  1  0.05651358  0.45213475  0.52462557  1
  H  H153  1  0.86906363  0.23810124  -0.01314798  1
  H  H154  1  0.93651872  0.38276673  0.50403749  1
  H  H155  1  0.16588537  0.58325758  0.50632051  1
  H  H156  1  0.85363358  0.58156579  0.51113853  1
  H  H157  1  0.46360507  0.41459134  0.49329811  1
  H  H158  1  0.20140861  0.07684151  0.50507803  1
  H  H159  1  0.85125108  0.75277513  0.49248959  1
  H  H160  1  0.53304541  0.08540659  0.49463112  1
  H  H161  1  0.79217441  0.41852093  0.50827015  1
  H  H162  1  0.69308046  0.59063144  0.49581975  1
  H  H163  1  0.67024029  0.75048892  -0.00165576  1
  H  H164  1  0.04249416  0.91517231  -0.00631585  1
  H  H165  1  0.17474012  0.41147544  0.49833986  1
  H  H166  1  0.04519798  0.07712726  0.49695738  1
  H  H167  1  0.03707901  0.74942371  0.49412632  1
  H  H168  1  0.32631615  0.42596298  -0.00123237  1
  H  H169  1  0.70960334  0.24591918  1.00707294  1
  H  H170  1  0.36256593  0.91460670  0.98357548  1
  H  H171  1  0.69459062  0.57921142  1.00233692  1
  H  H172  1  0.33448596  0.42579623  0.49254243  1
  H  H173  1  0.71681157  0.08424492  0.50601897  1
  H  H174  1  0.44957994  0.25489529  0.51172081  1
  H  H175  1  0.54124301  0.58254657  -0.00881292  1
  H  H176  1  0.16912531  0.24575237  0.50696729  1
  H  H177  1  0.96278731  0.41848665  1.00840383  1
  H  H178  1  0.55706814  0.58426223  0.50402213  1
  H  H179  1  0.84722905  0.58763067  0.98566415  1
  H  H180  1  0.53491568  0.25077363  -0.00469155  1
  H  H181  1  0.65767216  0.92064313  0.99188138  1
  H  H182  1  0.32903575  0.24420496  0.50061192  1
  H  H183  1  0.20008185  0.74962784  0.50327482  1
  H  H184  1  0.02715755  0.24917172  0.50919510  1
  H  H185  1  0.92468128  0.91299171  0.49735141  1
  H  H186  1  0.35551227  0.08311433  0.48795613  1
  H  H187  1  0.67952035  0.91448100  0.49901511  1
  H  H188  1  0.35637469  0.24458346  -0.00923401  1
  H  H189  1  0.20912250  0.91601178  1.00455940  1
  H  H190  1  0.83590705  0.75278826  0.00227833  1
  H  H191  1  0.19608220  0.24709568  1.00615782  1
  Pb  Pb192  1  0.25152727  0.04791239  0.74864994  1
  Pb  Pb193  1  0.25388730  0.38226649  0.74378369  1
  Pb  Pb194  1  0.25319419  0.71666580  0.74654365  1
  Pb  Pb195  1  0.74645939  0.04845929  0.74854198  1
  Pb  Pb196  1  0.75807587  0.38332180  0.75852749  1
  Pb  Pb197  1  0.75052866  0.71500596  0.75273846  1
  Pb  Pb198  1  0.24845445  0.28473242  0.26012863  1
  Pb  Pb199  1  0.24872589  0.61952042  0.25700213  1
  Pb  Pb200  1  0.25393434  0.95048201  0.24495511  1
  Pb  Pb201  1  0.74988122  0.28545297  0.24518680  1
  Pb  Pb202  1  0.74852642  0.61767093  0.24271838  1
  Pb  Pb203  1  0.75090257  0.95273145  0.25038870  1
  Pb  Pb204  1  0.00364834  0.21439129  0.74523544  1
  Pb  Pb205  1  0.00536624  0.54988857  0.74830964  1
  Pb  Pb206  1  0.00025500  0.88313744  0.75615251  1
  Pb  Pb207  1  0.50847630  0.21794131  0.75631383  1
  Pb  Pb208  1  0.50161895  0.54871348  0.75113102  1
  Pb  Pb209  1  0.50222242  0.87991990  0.74468686  1
  Pb  Pb210  1  0.00705733  0.11663282  0.25189206  1
  Pb  Pb211  1  -0.00105415  0.45227986  0.25399097  1
  Pb  Pb212  1  0.00145091  0.78551215  0.25506033  1
  Pb  Pb213  1  0.50372467  0.11948271  0.25888705  1
  Pb  Pb214  1  0.49700197  0.45230789  0.25380283  1
  Pb  Pb215  1  0.50240838  0.78548755  0.24584778  1
  C  C216  1  -0.00205071  0.04302408  0.63370578  1
  C  C217  1  0.00610916  0.37844509  0.63214946  1
  C  C218  1  0.00302131  0.71142217  0.63216838  1
  C  C219  1  0.49532251  0.04215776  0.63069124  1
  C  C220  1  0.49905701  0.37801581  0.63164952  1
  C  C221  1  0.49690680  0.71285817  0.63000124  1
  C  C222  1  -0.00440222  0.28863945  0.13504399  1
  C  C223  1  -0.00348990  0.62207465  0.13412529  1
  C  C224  1  -0.00114374  0.95861554  0.12868633  1
  C  C225  1  0.50062952  0.29146658  0.13264977  1
  C  C226  1  0.50301909  0.62183246  0.13352005  1
  C  C227  1  0.49569350  0.95691676  0.13288176  1
  C  C228  1  -0.00805047  0.04606324  0.86884069  1
  C  C229  1  0.00176377  0.37702939  0.86814221  1
  C  C230  1  0.00306916  0.71125296  0.87291928  1
  C  C231  1  0.49784594  0.04568713  0.87035065  1
  C  C232  1  0.50576375  0.37970659  0.87233189  1
  C  C233  1  0.49682677  0.71304529  0.86792057  1
  C  C234  1  0.00239999  0.28688787  0.36955976  1
  C  C235  1  -0.00352971  0.62211228  0.36637733  1
  C  C236  1  0.00056420  0.95272590  0.36655371  1
  C  C237  1  0.49578574  0.28668254  0.36838682  1
  C  C238  1  0.49931429  0.62357395  0.36729062  1
  C  C239  1  0.49631375  0.95228297  0.36931760  1
  C  C240  1  0.25706871  0.21192508  0.63701773  1
  C  C241  1  0.25452214  0.54736701  0.63402754  1
  C  C242  1  0.24826660  0.87759996  0.62867663  1
  C  C243  1  0.75186750  0.21355736  0.62418493  1
  C  C244  1  0.74901175  0.54437088  0.63233263  1
  C  C245  1  0.74556591  0.87659162  0.63365499  1
  C  C246  1  0.25317566  0.12146917  0.12796676  1
  C  C247  1  0.24736331  0.45619378  0.12422226  1
  C  C248  1  0.25039807  0.78669713  0.13164182  1
  C  C249  1  0.75486045  0.12068704  0.12644609  1
  C  C250  1  0.74958928  0.45489745  0.13103754  1
  C  C251  1  0.74646243  0.78793253  0.13157336  1
  C  C252  1  0.25440077  0.21086707  0.86703424  1
  C  C253  1  0.25011422  0.54579893  0.87304104  1
  C  C254  1  0.24948852  0.87552495  0.86806778  1
  C  C255  1  0.75874446  0.20919426  0.86606864  1
  C  C256  1  0.74369789  0.54375383  0.86669736  1
  C  C257  1  0.75404825  0.88009657  0.87387908  1
  C  C258  1  0.25818427  0.11938936  0.36775845  1
  C  C259  1  0.24072429  0.45476642  0.36370317  1
  C  C260  1  0.25866781  0.79000036  0.36711039  1
  C  C261  1  0.75204581  0.12323224  0.36757571  1
  C  C262  1  0.75042098  0.45608381  0.37125759  1
  C  C263  1  0.74827932  0.78766980  0.36883479  1
  C  C264  1  0.80156498  0.57540612  0.95191025  1
  C  C265  1  0.52199060  0.41681242  0.96530347  1
  C  C266  1  0.81833030  0.09306023  0.45072179  1
  C  C267  1  0.96581384  0.74485477  0.96559210  1
  C  C268  1  0.68834392  0.42171797  0.45517062  1
  C  C269  1  0.93854027  0.07244103  0.54792718  1
  C  C270  1  0.47847999  0.26308590  0.46731055  1
  C  C271  1  0.80450385  0.76217740  0.45833390  1
  C  C272  1  0.82057877  0.23058248  0.95385172  1
  C  C273  1  0.98985430  0.40551989  0.96441576  1
  C  C274  1  0.31378628  0.90569003  0.95125864  1
  C  C275  1  0.52469988  0.59441364  0.46150110  1
  C  C276  1  0.78065826  0.91651700  0.96759218  1
  C  C277  1  0.47537328  0.74401393  0.96263869  1
  C  C278  1  0.72510828  0.57619860  0.53700260  1
  C  C279  1  0.29269826  0.23558303  0.54144248  1
  C  C280  1  0.22868528  0.23673709  0.96393173  1
  C  C281  1  0.20939819  0.42720727  0.45904387  1
  C  C282  1  0.31023584  0.23574369  0.95622982  1
  C  C283  1  0.73977970  0.23457311  0.96394700  1
  C  C284  1  0.23273722  0.76109991  0.46124970  1
  C  C285  1  0.55864299  0.26428981  0.45546309  1
  C  C286  1  0.53447194  0.74583947  0.53966415  1
  C  C287  1  0.20923918  0.57368628  0.54333220  1
  C  C288  1  0.23193514  0.08741092  0.03268872  1
  C  C289  1  0.29108219  0.43196401  0.45543815  1
  C  C290  1  0.21086272  0.23568861  0.54424934  1
  C  C291  1  0.47510175  0.92047311  0.46352563  1
  C  C292  1  0.71388160  0.09020324  0.03639499  1
  C  C293  1  0.44117111  0.07252992  0.95718892  1
  C  C294  1  0.93760152  0.92453927  0.04452623  1
  C  C295  1  0.02901350  0.25307339  0.04412261  1
  C  C296  1  0.03330359  0.58970774  0.45785499  1
  C  C297  1  0.70983228  0.76086690  0.03700092  1
  C  C298  1  0.80644668  0.57232229  0.54465396  1
  C  C299  1  0.71513108  0.25020581  0.53263500  1
  C  C300  1  0.43461330  0.59914558  0.04871442  1
  C  C301  1  0.71583373  0.90445230  0.53967775  1
  C  C302  1  0.96368959  0.92432580  0.45866691  1
  C  C303  1  0.69137779  0.41964262  0.04594863  1
  C  C304  1  0.79207018  0.76201171  0.03901517  1
  C  C305  1  0.51466989  0.59468539  0.03536530  1
  C  C306  1  0.79402189  0.08942462  0.03627935  1
  C  C307  1  0.19777561  0.57442345  0.96275589  1
  C  C308  1  0.72347819  0.76077306  0.46513187  1
  C  C309  1  0.23221601  0.08847306  0.46234761  1
  C  C310  1  0.27910286  0.57660015  0.96771159  1
  C  C311  1  0.21248864  0.91504445  0.53971980  1
  N  N312  1  0.55244036  0.74204575  0.95688495  1
  N  N313  1  0.23548733  0.91031246  0.96161719  1
  N  N314  1  0.31168731  0.76229138  0.45699762  1
  N  N315  1  0.03280617  0.07643560  0.96062611  1
  N  N316  1  0.79511879  0.90548047  0.54286063  1
  N  N317  1  0.74087864  0.09091351  0.46204336  1
  N  N318  1  0.44516422  0.41397582  0.95731088  1
  N  N319  1  0.01562084  0.92354258  0.03591461  1
  N  N320  1  0.00717848  0.25649666  0.46409928  1
  N  N321  1  0.72253026  0.57667792  0.95996088  1
  N  N322  1  0.43226314  0.07260959  0.54712543  1
  N  N323  1  0.21051778  0.43234986  0.03112559  1
  N  N324  1  0.93109081  0.26179356  0.45127357  1
  N  N325  1  0.95811638  0.40565148  0.54175508  1
  N  N326  1  0.31107562  0.08930537  0.45434807  1
  N  N327  1  0.28870073  0.41988016  0.03642136  1
  N  N328  1  0.76598212  0.42389196  0.46552866  1
  N  N329  1  0.01427400  0.74306892  0.53844887  1
  N  N330  1  0.05225131  0.59476045  0.04644893  1
  N  N331  1  0.46704890  0.92510565  0.03882222  1
  N  N332  1  0.19372770  0.75843810  0.04430863  1
  N  N333  1  0.97660711  0.59157138  0.03840203  1
  N  N334  1  0.56365124  0.40335076  0.54652575  1
  N  N335  1  0.28973569  0.91402778  0.53839785  1
  N  N336  1  0.95546804  0.59001555  0.45858551  1
  N  N337  1  0.54322813  0.92853305  0.04235693  1
  N  N338  1  0.76971618  0.41990072  0.03860929  1
  N  N339  1  0.04152873  0.41008651  0.53955299  1
  N  N340  1  0.06772671  0.40141123  0.95399621  1
  N  N341  1  0.93767851  0.73888082  0.54849192  1
  N  N342  1  0.50899302  0.07725048  0.53849183  1
  N  N343  1  0.43615338  0.26029101  0.05011909  1
  N  N344  1  0.55223604  0.92354843  0.45821343  1
  N  N345  1  0.48685587  0.40670525  0.53692679  1
  N  N346  1  0.70224803  0.91235770  0.96016830  1
  N  N347  1  0.01738532  0.07411580  0.53953741  1
  N  N348  1  0.79396447  0.24653070  0.53512063  1
  N  N349  1  0.51270727  0.25690186  0.04007608  1
  N  N350  1  0.95173081  0.25443395  0.04472173  1
  N  N351  1  0.28835825  0.57471595  0.53858623  1
  N  N352  1  0.04502025  0.74267289  0.96259238  1
  N  N353  1  0.95676812  0.07598203  0.96205327  1
  N  N354  1  0.51770297  0.07729476  0.96696768  1
  N  N355  1  0.30976345  0.09156638  0.04240041  1
  N  N356  1  0.04304525  0.92448798  0.45965632  1
  N  N357  1  0.26944439  0.75530364  0.03616778  1
  N  N358  1  0.45735291  0.74609046  0.53785850  1
  N  N359  1  0.44590224  0.59349219  0.45626938  1
  N  N360  1  0.05385417  0.05281417  0.59140449  1
  N  N361  1  0.06682357  0.39802489  0.59844642  1
  N  N362  1  0.05558934  0.72338853  0.58796484  1
  N  N363  1  0.54897718  0.05602652  0.58787519  1
  N  N364  1  0.57072431  0.38705823  0.60582141  1
  N  N365  1  0.56181306  0.72573801  0.59502317  1
  N  N366  1  0.42901254  0.27953818  0.10837307  1
  N  N367  1  0.42937801  0.61564561  0.10966969  1
  N  N368  1  0.43619308  0.94194046  0.09511133  1
  N  N369  1  0.93042845  0.27667219  0.10238577  1
  N  N370  1  0.94079294  0.60853514  0.09255190  1
  N  N371  1  0.92714155  0.94549987  0.10227412  1
  N  N372  1  0.42634639  0.05404882  0.89798191  1
  N  N373  1  0.43529765  0.39034426  0.89791798  1
  N  N374  1  0.43894569  0.72629329  0.90961539  1
  N  N375  1  0.92970625  0.05710731  0.90537786  1
  N  N376  1  0.94802207  0.39056894  0.91226752  1
  N  N377  1  0.93987108  0.72612215  0.90969362  1
  N  N378  1  0.05199054  0.27484680  0.41577925  1
  N  N379  1  0.06040848  0.60858913  0.40200837  1
  N  N380  1  0.06422029  0.94186306  0.40177590  1
  N  N381  1  0.56830489  0.27818939  0.39570381  1
  N  N382  1  0.55933729  0.61214853  0.40711245  1
  N  N383  1  0.56536711  0.94351601  0.39800114  1
  N  N384  1  0.32021833  0.22099399  0.59948748  1
  N  N385  1  0.31481364  0.55830549  0.59546829  1
  N  N386  1  0.31234509  0.89041460  0.59509782  1
  N  N387  1  0.81746319  0.22295605  0.59120109  1
  N  N388  1  0.81963653  0.55281934  0.60390632  1
  N  N389  1  0.81174766  0.88791750  0.60169065  1
  N  N390  1  0.19649775  0.10590711  0.08554837  1
  N  N391  1  0.18435378  0.44405879  0.08894322  1
  N  N392  1  0.18070582  0.77760534  0.10374143  1
  N  N393  1  0.68903061  0.10918275  0.09144043  1
  N  N394  1  0.67876895  0.44082633  0.10335112  1
  N  N395  1  0.68306564  0.77678721  0.09486702  1
  N  N396  1  0.19534188  0.22114140  0.90801816  1
  N  N397  1  0.18120957  0.55531803  0.90274855  1
  N  N398  1  0.19582822  0.88843608  0.91123463  1
  N  N399  1  0.70262893  0.22113298  0.90880378  1
  N  N400  1  0.68693958  0.55397350  0.90834050  1
  N  N401  1  0.68534850  0.88939292  0.90269441  1
  N  N402  1  0.32689451  0.11048524  0.39689514  1
  N  N403  1  0.30905234  0.44858124  0.39584198  1
  N  N404  1  0.32608726  0.78036990  0.39842753  1
  N  N405  1  0.82569179  0.11169090  0.39171340  1
  N  N406  1  0.80544310  0.44723251  0.41457531  1
  N  N407  1  0.81850886  0.77897867  0.39725782  1
  N  N408  1  0.43986662  0.27691305  0.41170506  1
  N  N409  1  0.43184394  0.61183200  0.39756786  1
  N  N410  1  0.43828018  0.93795621  0.41053628  1
  N  N411  1  0.92898841  0.27816468  0.39179758  1
  N  N412  1  0.93245562  0.61033912  0.40039610  1
  N  N413  1  0.93607881  0.94118789  0.40173384  1
  N  N414  1  0.05634214  0.05789016  0.90285720  1
  N  N415  1  0.07331777  0.38405165  0.89360456  1
  N  N416  1  0.06845676  0.72117940  0.90583758  1
  N  N417  1  0.55299220  0.06008266  0.91163422  1
  N  N418  1  0.56144537  0.39651538  0.91453885  1
  N  N419  1  0.56579515  0.72270658  0.89642530  1
  N  N420  1  0.05836954  0.27395704  0.09850344  1
  N  N421  1  0.06609358  0.61401505  0.10549773  1
  N  N422  1  0.05448082  0.94650440  0.08677249  1
  N  N423  1  0.55350900  0.27865282  0.08889132  1
  N  N424  1  0.55619427  0.60892887  0.08869010  1
  N  N425  1  0.56219311  0.94901787  0.10016120  1
  N  N426  1  0.42400439  0.05242753  0.60516091  1
  N  N427  1  0.44576099  0.38901399  0.58757782  1
  N  N428  1  0.43347259  0.72525434  0.59542265  1
  N  N429  1  0.92643962  0.05504948  0.60702918  1
  N  N430  1  0.94082018  0.38027353  0.59739633  1
  N  N431  1  0.93121736  0.72116269  0.60728601  1
  N  N432  1  0.19906397  0.10648225  0.40841083  1
  N  N433  1  0.17934528  0.44177882  0.40174139  1
  N  N434  1  0.19860332  0.77764909  0.40644555  1
  N  N435  1  0.69919164  0.11296387  0.41192176  1
  N  N436  1  0.67868302  0.44111864  0.39671714  1
  N  N437  1  0.68988750  0.77608824  0.41124792  1
  N  N438  1  0.32471546  0.21988620  0.89598837  1
  N  N439  1  0.31053148  0.55934979  0.91338843  1
  N  N440  1  0.32247925  0.88598545  0.89266605  1
  N  N441  1  0.83080453  0.21509217  0.89314447  1
  N  N442  1  0.81474178  0.55635140  0.89365709  1
  N  N443  1  0.81297174  0.89652966  0.91421860  1
  N  N444  1  0.32342254  0.11269368  0.10122774  1
  N  N445  1  0.31194201  0.44515952  0.09051098  1
  N  N446  1  0.30586991  0.77317499  0.08980054  1
  N  N447  1  0.82000547  0.10786801  0.09123128  1
  N  N448  1  0.80678907  0.44350487  0.09011714  1
  N  N449  1  0.81315512  0.77851459  0.09831777  1
  N  N450  1  0.19008400  0.22108046  0.60392645  1
  N  N451  1  0.18709645  0.55763413  0.60182887  1
  N  N452  1  0.18401631  0.89317678  0.59401858  1
  N  N453  1  0.68883070  0.22997258  0.58783778  1
  N  N454  1  0.69058554  0.55848851  0.59205300  1
  N  N455  1  0.68412883  0.88754836  0.59519103  1
  Cl  Cl456  1  0.23741269  0.05489280  0.61134593  1
  Cl  Cl457  1  0.25695265  0.39239520  0.60803933  1
  Cl  Cl458  1  0.23883730  0.72824192  0.61046080  1
  Cl  Cl459  1  0.73082081  0.06627720  0.60161245  1
  Cl  Cl460  1  0.75962421  0.38946176  0.61614392  1
  Cl  Cl461  1  0.74545549  0.72089191  0.62213241  1
  Cl  Cl462  1  0.24216912  0.28119453  0.12551361  1
  Cl  Cl463  1  0.24806129  0.60916522  0.12556886  1
  Cl  Cl464  1  0.24267732  0.94134582  0.10034480  1
  Cl  Cl465  1  0.73813351  0.27803505  0.10976862  1
  Cl  Cl466  1  0.74872647  0.60147191  0.10061995  1
  Cl  Cl467  1  0.74422859  0.94475052  0.11506067  1
  Cl  Cl468  1  0.24121030  0.05403071  0.88140252  1
  Cl  Cl469  1  0.25373131  0.39396423  0.87855977  1
  Cl  Cl470  1  0.25237215  0.72050822  0.87857967  1
  Cl  Cl471  1  0.74236384  0.05339639  0.88108724  1
  Cl  Cl472  1  0.75929205  0.39488310  0.89800632  1
  Cl  Cl473  1  0.75632156  0.72114716  0.88657139  1
  Cl  Cl474  1  0.24186685  0.27260277  0.39529245  1
  Cl  Cl475  1  0.24345704  0.61371641  0.38806993  1
  Cl  Cl476  1  0.25118422  0.94685757  0.37657078  1
  Cl  Cl477  1  0.74990503  0.28464274  0.37802519  1
  Cl  Cl478  1  0.74428810  0.61041503  0.37640391  1
  Cl  Cl479  1  0.75136344  0.94988393  0.38188533  1
  Cl  Cl480  1  0.00507354  0.22735223  0.60418887  1
  Cl  Cl481  1  0.00498894  0.54413692  0.61450172  1
  Cl  Cl482  1  -0.00182271  0.88649635  0.62360171  1
  Cl  Cl483  1  0.50421609  0.21939581  0.62280414  1
  Cl  Cl484  1  0.50404917  0.55634170  0.61599643  1
  Cl  Cl485  1  0.49831094  0.88782459  0.61154260  1
  Cl  Cl486  1  0.01140434  0.11421327  0.12095533  1
  Cl  Cl487  1  -0.00498965  0.44123392  0.11481790  1
  Cl  Cl488  1  -0.00208408  0.78360937  0.12081416  1
  Cl  Cl489  1  0.50482431  0.11963215  0.12923127  1
  Cl  Cl490  1  0.49363528  0.44107347  0.12229009  1
  Cl  Cl491  1  0.49223736  0.77557002  0.11248215  1
  Cl  Cl492  1  0.01369011  0.22348627  0.87467436  1
  Cl  Cl493  1  -0.00443364  0.55132051  0.87707041  1
  Cl  Cl494  1  0.00905932  0.89167674  0.89978782  1
  Cl  Cl495  1  0.51906123  0.23385702  0.89769084  1
  Cl  Cl496  1  0.50047595  0.55822415  0.88719203  1
  Cl  Cl497  1  0.50413933  0.88484540  0.87664188  1
  Cl  Cl498  1  0.01605910  0.10527350  0.39554326  1
  Cl  Cl499  1  -0.00890611  0.43940300  0.39327642  1
  Cl  Cl500  1  0.01515111  0.76889265  0.39469257  1
  Cl  Cl501  1  0.51559863  0.10535619  0.40140442  1
  Cl  Cl502  1  0.49265884  0.43964147  0.39059367  1
  Cl  Cl503  1  0.50933344  0.78164290  0.37730003  1
  Cl  Cl504  1  0.36321458  0.14452493  0.75467175  1
  Cl  Cl505  1  0.36055258  0.48502558  0.75299562  1
  Cl  Cl506  1  0.35850344  0.81423805  0.74899484  1
  Cl  Cl507  1  0.86683935  0.14434114  0.74381727  1
  Cl  Cl508  1  0.85997410  0.47747389  0.75011236  1
  Cl  Cl509  1  0.86356987  0.81363998  0.75272671  1
  Cl  Cl510  1  0.14630208  0.17909994  0.25194344  1
  Cl  Cl511  1  0.13838442  0.51755822  0.24457097  1
  Cl  Cl512  1  0.13667969  0.85284934  0.24616017  1
  Cl  Cl513  1  0.64169124  0.18395953  0.25325782  1
  Cl  Cl514  1  0.63820849  0.51610032  0.24749284  1
  Cl  Cl515  1  0.64323302  0.84958991  0.24911444  1
  Cl  Cl516  1  0.14185404  0.15011052  0.74344240  1
  Cl  Cl517  1  0.14020197  0.48175699  0.75349834  1
  Cl  Cl518  1  0.13579018  0.81472848  0.75249044  1
  Cl  Cl519  1  0.64719615  0.15565909  0.74784355  1
  Cl  Cl520  1  0.63948655  0.47951935  0.74775541  1
  Cl  Cl521  1  0.64330239  0.81788422  0.75772022  1
  Cl  Cl522  1  0.36582394  0.18694870  0.25184902  1
  Cl  Cl523  1  0.35928905  0.51837461  0.25231850  1
  Cl  Cl524  1  0.35662979  0.85498388  0.24814242  1
  Cl  Cl525  1  0.86179434  0.18890249  0.25485031  1
  Cl  Cl526  1  0.85960760  0.51735112  0.25041869  1
  Cl  Cl527  1  0.86478868  0.85322572  0.25680690  1
  Cl  Cl528  1  0.11427537  0.31614828  0.74564717  1
  Cl  Cl529  1  0.10287081  0.64891422  0.75268051  1
  Cl  Cl530  1  0.10155531  0.98409345  0.75531884  1
  Cl  Cl531  1  0.60646246  0.31756274  0.74503505  1
  Cl  Cl532  1  0.61266134  0.64948045  0.75638656  1
  Cl  Cl533  1  0.60568398  0.98572265  0.74882589  1
  Cl  Cl534  1  0.38749023  0.02138688  0.25178613  1
  Cl  Cl535  1  0.38540347  0.35174887  0.24933072  1
  Cl  Cl536  1  0.38637553  0.68681126  0.25540947  1
  Cl  Cl537  1  0.88480931  0.02257509  0.24621568  1
  Cl  Cl538  1  0.88559705  0.35252164  0.25130040  1
  Cl  Cl539  1  0.88745365  0.68527940  0.24835537  1
  Cl  Cl540  1  0.38576524  0.31159044  0.76272794  1
  Cl  Cl541  1  0.39055107  0.64985264  0.74437609  1
  Cl  Cl542  1  0.38534838  0.97899417  0.75097725  1
  Cl  Cl543  1  0.89059705  0.31428612  0.74588356  1
  Cl  Cl544  1  0.88355652  0.64398022  0.74570924  1
  Cl  Cl545  1  0.87965618  0.97808515  0.74105647  1
  Cl  Cl546  1  0.10322035  0.01680450  0.25098083  1
  Cl  Cl547  1  0.10711047  0.34933431  0.25176933  1
  Cl  Cl548  1  0.11115573  0.68480490  0.24449687  1
  Cl  Cl549  1  0.60912907  0.01505293  0.25555021  1
  Cl  Cl550  1  0.60830989  0.35143403  0.25612795  1
  Cl  Cl551  1  0.61085660  0.68413568  0.24658484  1
