# generated using pymatgen
data_H8PbC4(N3Cl2)2
_symmetry_space_group_name_H-M   'P 1'
_cell_length_a   16.62100622
_cell_length_b   22.50193562
_cell_length_c   21.58987934
_cell_angle_alpha   89.99988506
_cell_angle_beta   89.99074231
_cell_angle_gamma   90.00099038
_symmetry_Int_Tables_number   1
_chemical_formula_structural   H8PbC4(N3Cl2)2
_chemical_formula_sum   'H192 Pb24 C96 N144 Cl96'
_cell_volume   8074.71865217
_cell_formula_units_Z   24
loop_
 _symmetry_equiv_pos_site_id
 _symmetry_equiv_pos_as_xyz
  1  'x, y, z'
loop_
 _atom_site_type_symbol
 _atom_site_label
 _atom_site_symmetry_multiplicity
 _atom_site_fract_x
 _atom_site_fract_y
 _atom_site_fract_z
 _atom_site_occupancy
  H  H0  1  -0.00714182  0.03182718  0.68155474  1
  H  H1  1  0.00195691  0.36445922  0.67964341  1
  H  H2  1  -0.00025215  0.69926984  0.68080434  1
  H  H3  1  0.51079357  0.03393569  0.67806322  1
  H  H4  1  0.49616653  0.36446289  0.68210294  1
  H  H5  1  0.49467524  0.69918970  0.67930574  1
  H  H6  1  -0.00040592  0.30130088  0.18328953  1
  H  H7  1  -0.00196607  0.63469255  0.17984021  1
  H  H8  1  -0.00060898  0.97318867  0.17896346  1
  H  H9  1  0.50173029  0.30227051  0.18362991  1
  H  H10  1  0.49796204  0.63293612  0.17912298  1
  H  H11  1  0.50331241  0.96687480  0.17764462  1
  H  H12  1  -0.00699726  0.03426735  0.81738305  1
  H  H13  1  0.00080797  0.36409222  0.82009013  1
  H  H14  1  -0.00666118  0.69833795  0.81741326  1
  H  H15  1  0.50520373  0.03281469  0.81798040  1
  H  H16  1  0.50129617  0.36504269  0.81795879  1
  H  H17  1  0.50259434  0.69669153  0.81840258  1
  H  H18  1  -0.00251940  0.30145242  0.31862148  1
  H  H19  1  -0.00071336  0.63472212  0.31927938  1
  H  H20  1  -0.00177124  0.96759681  0.31815736  1
  H  H21  1  0.50204140  0.29936337  0.32208635  1
  H  H22  1  0.49997723  0.63414418  0.32057513  1
  H  H23  1  0.49871558  0.96689540  0.31852520  1
  H  H24  1  0.24451287  0.19981266  0.67838960  1
  H  H25  1  0.24741470  0.53081410  0.67997327  1
  H  H26  1  0.25818758  0.86620405  0.68228275  1
  H  H27  1  0.75607660  0.19881063  0.67881690  1
  H  H28  1  0.74704597  0.53113442  0.68180937  1
  H  H29  1  0.74681149  0.86591760  0.68149698  1
  H  H30  1  0.25305621  0.13421242  0.18217185  1
  H  H31  1  0.24958758  0.46836772  0.17984126  1
  H  H32  1  0.25756304  0.80059012  0.18280261  1
  H  H33  1  0.74692583  0.13457772  0.17935806  1
  H  H34  1  0.75019575  0.46816469  0.18059067  1
  H  H35  1  0.74527192  0.80051703  0.18388918  1
  H  H36  1  0.24971471  0.19863205  0.81711338  1
  H  H37  1  0.24953130  0.53230785  0.82089708  1
  H  H38  1  0.24000473  0.86645620  0.82039068  1
  H  H39  1  0.75404636  0.20000145  0.81781363  1
  H  H40  1  0.75670541  0.53187635  0.82148062  1
  H  H41  1  0.76049155  0.86534830  0.81917935  1
  H  H42  1  0.24711555  0.13585216  0.32080643  1
  H  H43  1  0.24531543  0.46904241  0.31862157  1
  H  H44  1  0.25167934  0.80127643  0.31794748  1
  H  H45  1  0.75226282  0.13388573  0.31855925  1
  H  H46  1  0.74628352  0.46789024  0.31893729  1
  H  H47  1  0.75283499  0.80243694  0.32062270  1
  H  H48  1  0.12822050  0.05241133  0.62058631  1
  H  H49  1  0.12381508  0.38689139  0.60601166  1
  H  H50  1  0.13074349  0.71921673  0.61456952  1
  H  H51  1  0.62265487  0.05590990  0.59908157  1
  H  H52  1  0.62458578  0.38635990  0.61398258  1
  H  H53  1  0.63402942  0.71692481  0.62429779  1
  H  H54  1  0.37679229  0.28149487  0.11121359  1
  H  H55  1  0.38227040  0.60892956  0.10016684  1
  H  H56  1  0.37196111  0.94766502  0.11549015  1
  H  H57  1  0.87575648  0.27810815  0.11022560  1
  H  H58  1  0.88202792  0.60905236  0.10103168  1
  H  H59  1  0.87582196  0.94670641  0.10888282  1
  H  H60  1  0.37250044  0.05224872  0.88351798  1
  H  H61  1  0.37387989  0.38691121  0.88470520  1
  H  H62  1  0.37510088  0.71775378  0.88525218  1
  H  H63  1  0.87428036  0.05693064  0.89522786  1
  H  H64  1  0.87296384  0.38679877  0.88784519  1
  H  H65  1  0.87987832  0.72162705  0.89704983  1
  H  H66  1  0.12476274  0.28041402  0.38726003  1
  H  H67  1  0.12435387  0.61293182  0.38888610  1
  H  H68  1  0.12725426  0.94657675  0.38456127  1
  H  H69  1  0.62343734  0.27566012  0.39494555  1
  H  H70  1  0.62314622  0.61205858  0.39166629  1
  H  H71  1  0.63037529  0.94949253  0.38307063  1
  H  H72  1  0.37761286  0.21649192  0.61743685  1
  H  H73  1  0.37552224  0.55398542  0.61223434  1
  H  H74  1  0.36767310  0.88946725  0.60145027  1
  H  H75  1  0.87172641  0.22374551  0.60011061  1
  H  H76  1  0.87506578  0.55355221  0.61386204  1
  H  H77  1  0.87229585  0.88749463  0.61000466  1
  H  H78  1  0.12646666  0.11340351  0.11288310  1
  H  H79  1  0.12774117  0.44696945  0.10879375  1
  H  H80  1  0.12264688  0.78128688  0.12031871  1
  H  H81  1  0.62898955  0.10997017  0.10281089  1
  H  H82  1  0.62950697  0.44475887  0.10580647  1
  H  H83  1  0.62429787  0.78048079  0.11073653  1
  H  H84  1  0.12460181  0.21965503  0.88607341  1
  H  H85  1  0.12306017  0.55316948  0.89151670  1
  H  H86  1  0.13418833  0.89146960  0.90497349  1
  H  H87  1  0.62408242  0.21937559  0.88375537  1
  H  H88  1  0.61765996  0.55032787  0.87556010  1
  H  H89  1  0.62273662  0.88385598  0.87535681  1
  H  H90  1  0.37367362  0.11429670  0.38886005  1
  H  H91  1  0.37434461  0.44742289  0.38719503  1
  H  H92  1  0.36940076  0.77844100  0.39390851  1
  H  H93  1  0.87021732  0.11236101  0.39528066  1
  H  H94  1  0.87269715  0.44531722  0.38805807  1
  H  H95  1  0.86385205  0.77718962  0.40153452  1
  H  H96  1  0.37497607  0.28111222  0.39105486  1
  H  H97  1  0.37389385  0.61245159  0.39036822  1
  H  H98  1  0.38121097  0.94685523  0.39331991  1
  H  H99  1  0.87542976  0.27846656  0.39278743  1
  H  H100  1  0.87451920  0.61209178  0.39037172  1
  H  H101  1  0.87846054  0.94494730  0.39395533  1
  H  H102  1  0.12244515  0.05356400  0.88601093  1
  H  H103  1  0.12284519  0.38807689  0.89199243  1
  H  H104  1  0.12797540  0.71789956  0.88007184  1
  H  H105  1  0.62131885  0.05544677  0.89612899  1
  H  H106  1  0.62343191  0.38669123  0.88931528  1
  H  H107  1  0.62465578  0.72271683  0.89125554  1
  H  H108  1  0.12444962  0.28102743  0.11003505  1
  H  H109  1  0.12999654  0.61283003  0.11548085  1
  H  H110  1  0.12431997  0.94555555  0.11054224  1
  H  H111  1  0.62602833  0.27953641  0.11212933  1
  H  H112  1  0.63011165  0.61110878  0.11420993  1
  H  H113  1  0.61962609  0.94464326  0.10183268  1
  H  H114  1  0.37578378  0.05150078  0.61975746  1
  H  H115  1  0.37544273  0.38712615  0.60817557  1
  H  H116  1  0.38677125  0.72288578  0.59807223  1
  H  H117  1  0.88050779  0.05669451  0.60191750  1
  H  H118  1  0.87470583  0.38681636  0.60937403  1
  H  H119  1  0.88253995  0.72441516  0.60311904  1
  H  H120  1  0.12388224  0.11230383  0.39336727  1
  H  H121  1  0.12601600  0.44454694  0.39537241  1
  H  H122  1  0.12068353  0.78029232  0.38503431  1
  H  H123  1  0.62119671  0.11292610  0.38540466  1
  H  H124  1  0.62416674  0.44529463  0.39333280  1
  H  H125  1  0.61600286  0.78250895  0.37911552  1
  H  H126  1  0.37419395  0.21985863  0.88640546  1
  H  H127  1  0.37176931  0.55407211  0.89329427  1
  H  H128  1  0.37990407  0.88390644  0.87513444  1
  H  H129  1  0.87360360  0.22036573  0.89077696  1
  H  H130  1  0.86368236  0.55867759  0.90527035  1
  H  H131  1  0.86956161  0.89287371  0.90201507  1
  H  H132  1  0.37567197  0.11032968  0.10820727  1
  H  H133  1  0.37635633  0.44853281  0.11267766  1
  H  H134  1  0.37079545  0.77697310  0.10288028  1
  H  H135  1  0.87802328  0.11379900  0.11537987  1
  H  H136  1  0.87815680  0.44548993  0.11433527  1
  H  H137  1  0.87408176  0.78049338  0.11872143  1
  H  H138  1  0.13000453  0.22342289  0.60222466  1
  H  H139  1  0.12677860  0.55465013  0.60708101  1
  H  H140  1  0.12031114  0.88295329  0.62570658  1
  H  H141  1  0.62375250  0.21761783  0.61607101  1
  H  H142  1  0.62603643  0.55573414  0.60842601  1
  H  H143  1  0.62345443  0.88917520  0.60734283  1
  H  H144  1  0.92375792  0.41230847  0.50426664  1
  H  H145  1  0.42926390  0.41640205  0.50060456  1
  H  H146  1  0.67713859  0.76117330  -0.00259273  1
  H  H147  1  0.43675418  0.92134708  0.50490782  1
  H  H148  1  0.30129576  0.91600073  0.49405466  1
  H  H149  1  0.45576550  0.75130647  0.49118065  1
  H  H150  1  0.55863354  0.08017173  1.00409838  1
  H  H151  1  0.93609787  0.93835039  0.00175434  1
  H  H152  1  0.79652971  0.75245112  0.50846349  1
  H  H153  1  0.57843113  0.25159198  0.00340270  1
  H  H154  1  0.79013745  0.58354078  1.00586039  1
  H  H155  1  0.08961792  0.91673774  0.49544153  1
  H  H156  1  0.91410962  0.41274029  0.99420077  1
  H  H157  1  0.30995738  0.75192859  0.50239296  1
  H  H158  1  0.17245123  0.08640421  0.00265262  1
  H  H159  1  0.63853597  0.75302665  0.48970826  1
  H  H160  1  0.17292711  0.08548138  0.49743399  1
  H  H161  1  0.79907221  0.91286473  1.00387876  1
  H  H162  1  0.57696534  0.41403448  0.99948752  1
  H  H163  1  0.08013031  0.25353171  0.49742773  1
  H  H164  1  0.41058077  0.41538702  0.99572610  1
  H  H165  1  0.16745677  0.24899454  0.99677809  1
  H  H166  1  0.64301018  0.91466179  0.98791836  1
  H  H167  1  0.56830876  0.73906539  0.99879854  1
  H  H168  1  0.94824447  0.58335948  -0.00156065  1
  H  H169  1  0.33078338  0.24920024  0.99702209  1
  H  H170  1  0.33486125  0.08429537  0.49935748  1
  H  H171  1  0.30366487  0.75035275  -0.00397699  1
  H  H172  1  0.83445812  0.75479771  0.00413883  1
  H  H173  1  0.41451947  0.24806107  0.49405743  1
  H  H174  1  0.20652673  0.91508885  1.00998230  1
  H  H175  1  0.41991574  0.58468660  0.49556640  1
  H  H176  1  0.82231337  0.24895794  1.00152543  1
  H  H177  1  0.94710512  0.75234496  0.50053650  1
  H  H178  1  0.41816790  0.74398612  0.99861176  1
  H  H179  1  0.59446594  0.58463198  0.00661667  1
  H  H180  1  0.67867239  0.58398435  0.50067965  1
  H  H181  1  0.36466430  0.91335158  0.98514692  1
  H  H182  1  0.67912364  0.41595593  0.49610771  1
  H  H183  1  0.07469310  0.41686570  1.00093007  1
  H  H184  1  0.94711099  0.08252442  0.49519679  1
  H  H185  1  0.81061403  0.08601856  0.50352086  1
  H  H186  1  0.94736666  0.74474730  1.00512617  1
  H  H187  1  0.92167218  0.58390911  0.49496870  1
  H  H188  1  0.57213699  0.25363548  0.49928686  1
  H  H189  1  0.69074075  0.08482383  -0.00181190  1
  H  H190  1  0.08110239  0.58399851  0.49902362  1
  H  H191  1  0.07064532  0.92538892  0.00357039  1
  Pb  Pb192  1  0.25195295  0.04725452  0.74939917  1
  Pb  Pb193  1  0.25017092  0.37828246  0.74918600  1
  Pb  Pb194  1  0.25585961  0.71404543  0.74700096  1
  Pb  Pb195  1  0.75407359  0.04843713  0.75074387  1
  Pb  Pb196  1  0.75453277  0.38122687  0.74739276  1
  Pb  Pb197  1  0.75236410  0.71283853  0.75313747  1
  Pb  Pb198  1  0.24850883  0.28388140  0.24783628  1
  Pb  Pb199  1  0.24848652  0.62084599  0.24959555  1
  Pb  Pb200  1  0.24796127  0.95421375  0.24960620  1
  Pb  Pb201  1  0.74836667  0.28746446  0.24972669  1
  Pb  Pb202  1  0.74862395  0.61755349  0.24815935  1
  Pb  Pb203  1  0.74886890  0.95266368  0.24292052  1
  Pb  Pb204  1  0.00158690  0.21294925  0.74641464  1
  Pb  Pb205  1  0.00537998  0.54815537  0.75258970  1
  Pb  Pb206  1  0.00213677  0.88020902  0.75988017  1
  Pb  Pb207  1  0.50414732  0.21407189  0.74683779  1
  Pb  Pb208  1  0.49990802  0.54508409  0.74606565  1
  Pb  Pb209  1  0.50271608  0.88147887  0.74383040  1
  Pb  Pb210  1  -0.00370853  0.12030547  0.25458667  1
  Pb  Pb211  1  0.00237104  0.45168822  0.25065858  1
  Pb  Pb212  1  -0.00324455  0.78614010  0.25577521  1
  Pb  Pb213  1  0.50109790  0.11937928  0.24565800  1
  Pb  Pb214  1  0.49558703  0.45242368  0.25011311  1
  Pb  Pb215  1  0.49493744  0.78526271  0.24414837  1
  C  C216  1  0.00087271  0.04661846  0.63414132  1
  C  C217  1  -0.00033908  0.37955831  0.63204840  1
  C  C218  1  0.00413222  0.71411001  0.63316972  1
  C  C219  1  0.50291268  0.04710149  0.63019667  1
  C  C220  1  0.49889277  0.37968894  0.63451907  1
  C  C221  1  0.50517153  0.71301645  0.63174996  1
  C  C222  1  -0.00006664  0.28689536  0.13530974  1
  C  C223  1  0.00299267  0.61965909  0.13227693  1
  C  C224  1  -0.00022130  0.95656337  0.13163653  1
  C  C225  1  0.50138901  0.28747155  0.13578756  1
  C  C226  1  0.50403187  0.61817072  0.13149301  1
  C  C227  1  0.49815694  0.95285720  0.12989418  1
  C  C228  1  -0.00349034  0.04783941  0.86553822  1
  C  C229  1  -0.00161075  0.37976230  0.86772564  1
  C  C230  1  0.00054341  0.71304758  0.86491496  1
  C  C231  1  0.49943987  0.04657701  0.86593849  1
  C  C232  1  0.49947274  0.37995071  0.86578543  1
  C  C233  1  0.50145229  0.71193984  0.86616281  1
  C  C234  1  -0.00083066  0.28659400  0.36632052  1
  C  C235  1  -0.00100507  0.61972650  0.36713413  1
  C  C236  1  0.00138183  0.95295979  0.36592409  1
  C  C237  1  0.50023457  0.28570084  0.37037803  1
  C  C238  1  0.49864167  0.61951201  0.36833484  1
  C  C239  1  0.50319758  0.95421137  0.36675267  1
  C  C240  1  0.25091184  0.21352437  0.63057134  1
  C  C241  1  0.25020463  0.54611055  0.63264447  1
  C  C242  1  0.24886639  0.87950721  0.63458303  1
  C  C243  1  0.75060009  0.21333133  0.63130689  1
  C  C244  1  0.74949397  0.54649220  0.63424366  1
  C  C245  1  0.74740490  0.88047902  0.63361413  1
  C  C246  1  0.25190178  0.11942393  0.13437219  1
  C  C247  1  0.25124017  0.45436503  0.13195271  1
  C  C248  1  0.25013956  0.78631113  0.13519595  1
  C  C249  1  0.75103703  0.11991518  0.13170874  1
  C  C250  1  0.75245981  0.45299747  0.13314588  1
  C  C251  1  0.74799850  0.78643656  0.13581926  1
  C  C252  1  0.24953092  0.21290364  0.86517406  1
  C  C253  1  0.24777386  0.54617223  0.86880588  1
  C  C254  1  0.25196229  0.88099316  0.86762497  1
  C  C255  1  0.75095888  0.21343226  0.86592204  1
  C  C256  1  0.74614907  0.54640442  0.86874736  1
  C  C257  1  0.75126756  0.87994186  0.86676095  1
  C  C258  1  0.24779132  0.12056362  0.36860764  1
  C  C259  1  0.24856570  0.45400733  0.36627076  1
  C  C260  1  0.24688111  0.78686396  0.36570923  1
  C  C261  1  0.74777791  0.11957836  0.36641450  1
  C  C262  1  0.74734187  0.45271722  0.36658069  1
  C  C263  1  0.74354873  0.78732274  0.36794212  1
  C  C264  1  0.97744535  0.73777753  0.96105712  1
  C  C265  1  0.04070136  0.59370940  0.46023007  1
  C  C266  1  0.22288459  0.24022864  0.53551610  1
  C  C267  1  0.29538495  0.42892955  0.03965670  1
  C  C268  1  0.27563102  0.76188835  0.46072217  1
  C  C269  1  0.29167621  0.09478622  0.46126613  1
  C  C270  1  0.20818578  0.23842101  0.95891744  1
  C  C271  1  0.79415900  0.76373651  0.04273881  1
  C  C272  1  0.27310010  0.76102905  0.03917761  1
  C  C273  1  0.44770033  0.92776409  0.03921502  1
  C  C274  1  0.56719246  0.73706946  0.54435885  1
  C  C275  1  0.45601703  0.73837625  0.95785771  1
  C  C276  1  0.52800301  0.07211497  0.53399143  1
  C  C277  1  0.68356539  0.57170417  0.95545617  1
  C  C278  1  0.52884159  0.92658556  0.03469900  1
  C  C279  1  0.21247662  0.09535005  0.04149644  1
  C  C280  1  0.44751206  0.07054239  0.54118995  1
  C  C281  1  0.29041927  0.23850411  0.95900391  1
  C  C282  1  0.03576425  0.40659363  0.96155881  1
  C  C283  1  0.71217525  0.76505704  0.03976363  1
  C  C284  1  0.69153539  0.90566439  0.95377060  1
  C  C285  1  0.46649119  0.40599747  0.54061653  1
  C  C286  1  0.03939477  0.26234638  0.45888095  1
  C  C287  1  0.77662033  0.09477723  0.46146756  1
  C  C288  1  0.53935572  0.59281106  0.46266985  1
  C  C289  1  0.79584967  0.42494978  0.04175954  1
  C  C290  1  0.76648338  0.76119156  0.46458630  1
  C  C291  1  0.80215304  0.09326485  0.04068149  1
  C  C292  1  0.53707484  0.40473976  0.96078574  1
  C  C293  1  0.21629278  0.57492149  0.53934765  1
  C  C294  1  0.18854702  0.90250679  0.54646675  1
  C  C295  1  0.55322199  0.93221540  0.45824851  1
  C  C296  1  0.30382812  0.23741727  0.54064079  1
  C  C297  1  0.52584966  0.07063057  0.96154738  1
  C  C298  1  0.47207361  0.93066405  0.46362830  1
  C  C299  1  0.45482343  0.40502227  0.95891706  1
  C  C300  1  0.70178233  0.24000001  0.54143049  1
  C  C301  1  0.70332310  0.23770484  0.95770556  1
  C  C302  1  0.28294591  0.57090161  0.96264345  1
  C  C303  1  0.26940897  0.90514459  0.53662298  1
  C  C304  1  0.97853266  0.07248752  0.53827623  1
  C  C305  1  0.21358767  0.42832409  0.03828729  1
  C  C306  1  0.48648336  0.73965301  0.53403395  1
  C  C307  1  0.78475743  0.23857414  0.96180415  1
  C  C308  1  0.04485024  0.92729156  0.45763239  1
  C  C309  1  0.53819972  0.26172536  0.04252122  1
  C  C310  1  0.23458705  0.90623320  0.96537142  1
  C  C311  1  0.71675977  0.57333568  0.54048468  1
  N  N312  1  0.53576269  0.74150046  0.95867991  1
  N  N313  1  0.53488497  0.25207535  0.46062309  1
  N  N314  1  0.19434360  0.76277216  0.04494401  1
  N  N315  1  0.55075825  0.59427280  0.04167218  1
  N  N316  1  0.20562765  0.57083687  0.96324482  1
  N  N317  1  0.79630656  0.57273414  0.54152562  1
  N  N318  1  0.96209327  0.26098450  0.04125028  1
  N  N319  1  0.46018566  0.59363709  0.46087478  1
  N  N320  1  0.76177406  0.57472703  0.96439350  1
  N  N321  1  0.96553709  0.92694602  0.46151242  1
  N  N322  1  0.04042199  0.91865298  0.04453683  1
  N  N323  1  0.29432513  0.57490389  0.54000972  1
  N  N324  1  0.04140699  0.06950011  0.95893579  1
  N  N325  1  0.44687086  0.07018147  0.95727431  1
  N  N326  1  0.47286814  0.59303701  0.03576297  1
  N  N327  1  0.72327510  0.09250016  0.03768451  1
  N  N328  1  0.96470204  0.07028428  0.96184682  1
  N  N329  1  0.71472784  0.42770598  0.45924289  1
  N  N330  1  0.77055975  0.90887564  0.96184814  1
  N  N331  1  0.95972833  0.92166285  0.04234400  1
  N  N332  1  0.05532984  0.73788291  0.54221569  1
  N  N333  1  0.19658418  0.76235108  0.45756651  1
  N  N334  1  0.71095014  0.90564097  0.53908411  1
  N  N335  1  0.97750026  0.73951068  0.53957920  1
  N  N336  1  0.21625604  0.42519290  0.46065261  1
  N  N337  1  0.03894800  0.26199881  0.04129252  1
  N  N338  1  0.45876867  0.26228665  0.04178678  1
  N  N339  1  0.97787499  0.59320346  0.03878461  1
  N  N340  1  0.21179536  0.09395590  0.46143671  1
  N  N341  1  0.05615553  0.73829974  0.95470814  1
  N  N342  1  0.03942955  0.40585730  0.53844831  1
  N  N343  1  0.05752260  0.07149044  0.54447383  1
  N  N344  1  0.71802094  0.42479811  0.03771155  1
  N  N345  1  0.79320336  0.42687323  0.45883121  1
  N  N346  1  0.95597188  0.40689249  0.95895430  1
  N  N347  1  0.96089944  0.59373044  0.45971952  1
  N  N348  1  0.29268580  0.42605085  0.45805784  1
  N  N349  1  0.05561032  0.59397535  0.04237614  1
  N  N350  1  0.96016548  0.26110778  0.46119268  1
  N  N351  1  0.54602334  0.40570870  0.54191216  1
  N  N352  1  0.77908774  0.24191902  0.53491300  1
  N  N353  1  0.78714490  0.90502750  0.53964645  1
  N  N354  1  0.69761270  0.09383916  0.45797315  1
  N  N355  1  0.31287348  0.90482788  0.95388333  1
  N  N356  1  0.96130805  0.40630070  0.54134142  1
  N  N357  1  0.45725070  0.26600706  0.46286362  1
  N  N358  1  0.29180167  0.09394786  0.03973730  1
  N  N359  1  0.68761567  0.76214763  0.45568735  1
  N  N360  1  0.06936729  0.05542229  0.60444615  1
  N  N361  1  0.06276041  0.39018779  0.59557147  1
  N  N362  1  0.07139693  0.72204813  0.60066707  1
  N  N363  1  0.56172170  0.05792125  0.58852250  1
  N  N364  1  0.56427040  0.38945214  0.60102988  1
  N  N365  1  0.57776622  0.72104764  0.60406658  1
  N  N366  1  0.43767579  0.27834181  0.10017496  1
  N  N367  1  0.44421195  0.60775301  0.09178429  1
  N  N368  1  0.42982458  0.94360848  0.09805211  1
  N  N369  1  0.93691077  0.27622271  0.09946763  1
  N  N370  1  0.94382489  0.60962983  0.09274440  1
  N  N371  1  0.93619548  0.94702514  0.09631150  1
  N  N372  1  0.43217880  0.05514570  0.89777220  1
  N  N373  1  0.43320548  0.38964180  0.89957672  1
  N  N374  1  0.43458022  0.72206189  0.90016503  1
  N  N375  1  0.93573214  0.05715239  0.90411872  1
  N  N376  1  0.93329550  0.38941115  0.90131705  1
  N  N377  1  0.94133330  0.72330422  0.90596436  1
  N  N378  1  0.06499494  0.27750867  0.40093164  1
  N  N379  1  0.06440401  0.60962001  0.40260913  1
  N  N380  1  0.06800977  0.94309665  0.39917338  1
  N  N381  1  0.56261372  0.27534550  0.40692544  1
  N  N382  1  0.56332466  0.60880661  0.40528344  1
  N  N383  1  0.57170672  0.94605017  0.39972270  1
  N  N384  1  0.32013526  0.22127604  0.59934578  1
  N  N385  1  0.31524901  0.55663955  0.59935684  1
  N  N386  1  0.30600117  0.89055987  0.59281371  1
  N  N387  1  0.80976186  0.22504281  0.59221914  1
  N  N388  1  0.81479032  0.55593296  0.60057659  1
  N  N389  1  0.81133171  0.88954637  0.59826344  1
  N  N390  1  0.18643558  0.11054534  0.09930501  1
  N  N391  1  0.18760072  0.44383717  0.09496858  1
  N  N392  1  0.18180383  0.77801061  0.10474191  1
  N  N393  1  0.69062924  0.11006196  0.09323509  1
  N  N394  1  0.69100611  0.44257956  0.09602008  1
  N  N395  1  0.68459576  0.77879571  0.09809541  1
  N  N396  1  0.18433883  0.22253815  0.90029888  1
  N  N397  1  0.18338108  0.55505448  0.90348004  1
  N  N398  1  0.19613390  0.89159052  0.91187130  1
  N  N399  1  0.68324266  0.22265656  0.89966879  1
  N  N400  1  0.67378238  0.55504570  0.89593126  1
  N  N401  1  0.67978165  0.88916696  0.89444385  1
  N  N402  1  0.31387968  0.11081234  0.40329647  1
  N  N403  1  0.31399508  0.44380316  0.39953272  1
  N  N404  1  0.30820647  0.77677257  0.40468829  1
  N  N405  1  0.80917263  0.11015562  0.40555257  1
  N  N406  1  0.81253966  0.44284666  0.40084974  1
  N  N407  1  0.80171549  0.77627635  0.41014928  1
  N  N408  1  0.43504530  0.27698576  0.40426680  1
  N  N409  1  0.43440986  0.61026206  0.40288339  1
  N  N410  1  0.44174369  0.94455256  0.40530222  1
  N  N411  1  0.93668090  0.27624653  0.40299953  1
  N  N412  1  0.93532145  0.60977412  0.40227935  1
  N  N413  1  0.94016393  0.94284503  0.40375834  1
  N  N414  1  0.06213969  0.05577125  0.89918216  1
  N  N415  1  0.06218211  0.39062705  0.90464722  1
  N  N416  1  0.06881205  0.72260028  0.89505588  1
  N  N417  1  0.55988489  0.05641809  0.90581378  1
  N  N418  1  0.56332771  0.38936302  0.90240653  1
  N  N419  1  0.56376038  0.72133426  0.90287639  1
  N  N420  1  0.06342557  0.27814144  0.09932472  1
  N  N421  1  0.07083924  0.60986974  0.10099379  1
  N  N422  1  0.06389995  0.94499573  0.09733278  1
  N  N423  1  0.56563386  0.27680891  0.09999959  1
  N  N424  1  0.57095233  0.60973302  0.09964442  1
  N  N425  1  0.55913552  0.94188941  0.09046346  1
  N  N426  1  0.43264997  0.05540622  0.60023559  1
  N  N427  1  0.43623765  0.39019048  0.59698764  1
  N  N428  1  0.44861410  0.72439177  0.58967429  1
  N  N429  1  0.94234455  0.05752352  0.59291783  1
  N  N430  1  0.93530969  0.38925358  0.59760593  1
  N  N431  1  0.94441253  0.72560375  0.59458295  1
  N  N432  1  0.18493717  0.11047046  0.40458011  1
  N  N433  1  0.18750313  0.44268421  0.40398838  1
  N  N434  1  0.18039650  0.77791893  0.39836449  1
  N  N435  1  0.68136775  0.10933071  0.39872784  1
  N  N436  1  0.68534750  0.44269074  0.40342047  1
  N  N437  1  0.67416418  0.77825545  0.39624081  1
  N  N438  1  0.31455169  0.22268871  0.90050601  1
  N  N439  1  0.31162867  0.55617449  0.90589085  1
  N  N440  1  0.32264550  0.88999516  0.89368939  1
  N  N441  1  0.81332253  0.22321515  0.90345859  1
  N  N442  1  0.80117238  0.55761604  0.91120127  1
  N  N443  1  0.80747783  0.89008409  0.90890981  1
  N  N444  1  0.31457175  0.10896661  0.09791210  1
  N  N445  1  0.31740002  0.44464202  0.09720526  1
  N  N446  1  0.30921007  0.77565631  0.09418949  1
  N  N447  1  0.81956664  0.10969624  0.09900129  1
  N  N448  1  0.81896942  0.44205053  0.09951163  1
  N  N449  1  0.81509217  0.77692621  0.10271617  1
  N  N450  1  0.19074050  0.22545330  0.59042027  1
  N  N451  1  0.18714295  0.55762127  0.59517832  1
  N  N452  1  0.17695965  0.88724530  0.60579341  1
  N  N453  1  0.68199109  0.22246693  0.59969641  1
  N  N454  1  0.68679040  0.55773752  0.59707376  1
  N  N455  1  0.68462499  0.89059589  0.59725757  1
  Cl  Cl456  1  0.25032697  0.05488850  0.61503256  1
  Cl  Cl457  1  0.24819524  0.38379841  0.61816286  1
  Cl  Cl458  1  0.26044286  0.72084254  0.61300467  1
  Cl  Cl459  1  0.75526887  0.05639165  0.61771397  1
  Cl  Cl460  1  0.74961961  0.38767074  0.61126940  1
  Cl  Cl461  1  0.76240370  0.72249744  0.61585739  1
  Cl  Cl462  1  0.24915194  0.28164206  0.11316184  1
  Cl  Cl463  1  0.25916853  0.61272488  0.11744901  1
  Cl  Cl464  1  0.24385007  0.94413965  0.11348799  1
  Cl  Cl465  1  0.75227297  0.27894736  0.11478881  1
  Cl  Cl466  1  0.75888907  0.60694053  0.10422204  1
  Cl  Cl467  1  0.75291921  0.94386748  0.10297855  1
  Cl  Cl468  1  0.24558970  0.05146885  0.88152252  1
  Cl  Cl469  1  0.24665564  0.38706920  0.87982893  1
  Cl  Cl470  1  0.25388361  0.71802529  0.88127536  1
  Cl  Cl471  1  0.74618715  0.05728782  0.89381185  1
  Cl  Cl472  1  0.75012953  0.38576984  0.87848780  1
  Cl  Cl473  1  0.75149752  0.72089861  0.88826352  1
  Cl  Cl474  1  0.25235620  0.27899235  0.37992682  1
  Cl  Cl475  1  0.25040457  0.61479134  0.38231322  1
  Cl  Cl476  1  0.25441873  0.94823715  0.38129524  1
  Cl  Cl477  1  0.74685476  0.28136143  0.38129530  1
  Cl  Cl478  1  0.74949021  0.61501231  0.38103738  1
  Cl  Cl479  1  0.75559767  0.94891467  0.37355016  1
  Cl  Cl480  1  -0.00019313  0.22143958  0.61287571  1
  Cl  Cl481  1  0.00024237  0.55556987  0.61452427  1
  Cl  Cl482  1  -0.00626394  0.88353091  0.62801668  1
  Cl  Cl483  1  0.50274163  0.22107143  0.60999727  1
  Cl  Cl484  1  0.50012369  0.55652556  0.61065366  1
  Cl  Cl485  1  0.49608820  0.88857953  0.61099326  1
  Cl  Cl486  1  0.00235545  0.11321599  0.12410015  1
  Cl  Cl487  1  0.00104483  0.44594454  0.11428971  1
  Cl  Cl488  1  -0.00261293  0.78230649  0.12260328  1
  Cl  Cl489  1  0.50582653  0.10960300  0.11036584  1
  Cl  Cl490  1  0.50489396  0.44740358  0.11716045  1
  Cl  Cl491  1  0.49773262  0.77434838  0.10716663  1
  Cl  Cl492  1  0.00006254  0.21965901  0.87522389  1
  Cl  Cl493  1  -0.01320271  0.55651190  0.89289530  1
  Cl  Cl494  1  -0.00019983  0.89663803  0.90247645  1
  Cl  Cl495  1  0.50057538  0.21904547  0.87763238  1
  Cl  Cl496  1  0.49446328  0.55537375  0.87744332  1
  Cl  Cl497  1  0.50118209  0.88057118  0.87587356  1
  Cl  Cl498  1  -0.00223671  0.11100236  0.39031239  1
  Cl  Cl499  1  -0.00222198  0.44693894  0.38555431  1
  Cl  Cl500  1  -0.01308620  0.77514748  0.39257051  1
  Cl  Cl501  1  0.49683125  0.11767254  0.37700236  1
  Cl  Cl502  1  0.50033600  0.44809000  0.38594866  1
  Cl  Cl503  1  0.49121704  0.77982071  0.37864411  1
  Cl  Cl504  1  0.36006704  0.14247450  0.74839178  1
  Cl  Cl505  1  0.36277715  0.47784945  0.74837490  1
  Cl  Cl506  1  0.35970236  0.81070388  0.75439240  1
  Cl  Cl507  1  0.86096826  0.14280686  0.74990780  1
  Cl  Cl508  1  0.85709341  0.47716694  0.74860853  1
  Cl  Cl509  1  0.86025943  0.81263854  0.75343743  1
  Cl  Cl510  1  0.14138514  0.19016123  0.25115385  1
  Cl  Cl511  1  0.13725706  0.52348424  0.24812628  1
  Cl  Cl512  1  0.13611376  0.85564500  0.24872116  1
  Cl  Cl513  1  0.63644204  0.18857669  0.25100465  1
  Cl  Cl514  1  0.64093132  0.52508541  0.24858747  1
  Cl  Cl515  1  0.64102154  0.85594932  0.25161992  1
  Cl  Cl516  1  0.13633399  0.14377334  0.74838009  1
  Cl  Cl517  1  0.13631603  0.47837200  0.75114670  1
  Cl  Cl518  1  0.13664017  0.81099907  0.74949005  1
  Cl  Cl519  1  0.63647321  0.14473967  0.75155752  1
  Cl  Cl520  1  0.63488160  0.47742366  0.75218590  1
  Cl  Cl521  1  0.63529378  0.81027159  0.75215618  1
  Cl  Cl522  1  0.36219286  0.18936041  0.24858330  1
  Cl  Cl523  1  0.36416339  0.52218015  0.25081102  1
  Cl  Cl524  1  0.36038454  0.85460945  0.24806702  1
  Cl  Cl525  1  0.86239090  0.18858212  0.24744896  1
  Cl  Cl526  1  0.86011564  0.52344336  0.25129105  1
  Cl  Cl527  1  0.86276673  0.85528484  0.24570862  1
  Cl  Cl528  1  0.11087778  0.31197957  0.74946362  1
  Cl  Cl529  1  0.10764463  0.64324648  0.75075215  1
  Cl  Cl530  1  0.11201497  0.97550996  0.74812075  1
  Cl  Cl531  1  0.60819165  0.30922859  0.74817916  1
  Cl  Cl532  1  0.61450665  0.64413192  0.74740592  1
  Cl  Cl533  1  0.60848119  0.97647436  0.75081819  1
  Cl  Cl534  1  0.38586562  0.02207349  0.24604085  1
  Cl  Cl535  1  0.39365212  0.35576912  0.25056904  1
  Cl  Cl536  1  0.39219150  0.68904067  0.24886125  1
  Cl  Cl537  1  0.89004966  0.02203724  0.24725969  1
  Cl  Cl538  1  0.88707890  0.35662963  0.25211324  1
  Cl  Cl539  1  0.88919675  0.68929055  0.24911101  1
  Cl  Cl540  1  0.38658900  0.31078974  0.75008339  1
  Cl  Cl541  1  0.39042216  0.64643992  0.74818551  1
  Cl  Cl542  1  0.38483130  0.97715090  0.75201311  1
  Cl  Cl543  1  0.88737767  0.31204189  0.75001449  1
  Cl  Cl544  1  0.88661823  0.64475758  0.74844079  1
  Cl  Cl545  1  0.88676537  0.97846088  0.75489867  1
  Cl  Cl546  1  0.11261198  0.02253412  0.25078849  1
  Cl  Cl547  1  0.11098454  0.35712274  0.25048119  1
  Cl  Cl548  1  0.11273931  0.68907432  0.24941802  1
  Cl  Cl549  1  0.61285791  0.02195702  0.25020731  1
  Cl  Cl550  1  0.61399673  0.35576663  0.25291010  1
  Cl  Cl551  1  0.61339907  0.68860714  0.24757956  1
