# generated using pymatgen
data_H8PbC4(N3Cl2)2
_symmetry_space_group_name_H-M   'P 1'
_cell_length_a   16.62174598
_cell_length_b   22.50234830
_cell_length_c   21.58996584
_cell_angle_alpha   90.00041644
_cell_angle_beta   90.01015456
_cell_angle_gamma   89.99841467
_symmetry_Int_Tables_number   1
_chemical_formula_structural   H8PbC4(N3Cl2)2
_chemical_formula_sum   'H192 Pb24 C96 N144 Cl96'
_cell_volume   8075.25846659
_cell_formula_units_Z   24
loop_
 _symmetry_equiv_pos_site_id
 _symmetry_equiv_pos_as_xyz
  1  'x, y, z'
loop_
 _atom_site_type_symbol
 _atom_site_label
 _atom_site_symmetry_multiplicity
 _atom_site_fract_x
 _atom_site_fract_y
 _atom_site_fract_z
 _atom_site_occupancy
  H  H0  1  -0.00031485  0.02969671  0.68146178  1
  H  H1  1  0.00342538  0.36459314  0.67940160  1
  H  H2  1  0.00748300  0.70016085  0.67872940  1
  H  H3  1  0.50368368  0.03185837  0.68334895  1
  H  H4  1  0.50455032  0.36596576  0.67895071  1
  H  H5  1  0.50045362  0.69943792  0.67819017  1
  H  H6  1  0.00835290  0.30063342  0.17686425  1
  H  H7  1  -0.00948300  0.63456725  0.18053844  1
  H  H8  1  -0.00390649  0.96840837  0.18107165  1
  H  H9  1  0.49276900  0.30015221  0.17986132  1
  H  H10  1  0.50956190  0.63586854  0.17970121  1
  H  H11  1  0.50299845  0.96815677  0.17929535  1
  H  H12  1  0.00888184  0.03326554  0.81800059  1
  H  H13  1  0.00091667  0.36434816  0.81849906  1
  H  H14  1  -0.00074190  0.69914885  0.82031224  1
  H  H15  1  0.49629972  0.03190042  0.81767958  1
  H  H16  1  0.49567019  0.36421150  0.81937872  1
  H  H17  1  0.50139532  0.69841241  0.81744883  1
  H  H18  1  -0.00195091  0.30055908  0.31983667  1
  H  H19  1  -0.00306991  0.63647794  0.31859100  1
  H  H20  1  0.00543057  0.96671810  0.31922737  1
  H  H21  1  0.49570203  0.30159812  0.31996500  1
  H  H22  1  0.51001457  0.63555481  0.31939258  1
  H  H23  1  0.49357538  0.96613466  0.32087145  1
  H  H24  1  0.25816079  0.19963790  0.68363531  1
  H  H25  1  0.25333991  0.53169205  0.68088579  1
  H  H26  1  0.25223348  0.86446223  0.68165032  1
  H  H27  1  0.74524286  0.20077391  0.68016051  1
  H  H28  1  0.74589615  0.52975076  0.68100570  1
  H  H29  1  0.75069917  0.86454364  0.67926072  1
  H  H30  1  0.24618873  0.13495859  0.18239603  1
  H  H31  1  0.25740082  0.46867307  0.18222382  1
  H  H32  1  0.25084311  0.80146463  0.18035031  1
  H  H33  1  0.74951841  0.13535833  0.18015525  1
  H  H34  1  0.75500282  0.46696624  0.18091595  1
  H  H35  1  0.74529121  0.80148551  0.18216423  1
  H  H36  1  0.25083287  0.19980736  0.82268592  1
  H  H37  1  0.25719949  0.53223837  0.81959491  1
  H  H38  1  0.25247081  0.86479231  0.81843910  1
  H  H39  1  0.74559368  0.19945791  0.82024872  1
  H  H40  1  0.74940381  0.52562821  0.82221677  1
  H  H41  1  0.74567692  0.86606784  0.81825357  1
  H  H42  1  0.24054396  0.13559280  0.31914348  1
  H  H43  1  0.24308288  0.46676015  0.31826063  1
  H  H44  1  0.24148006  0.80170136  0.32244569  1
  H  H45  1  0.76095422  0.13547066  0.31776468  1
  H  H46  1  0.75383418  0.46696130  0.31898074  1
  H  H47  1  0.75298704  0.80297686  0.31953343  1
  H  H48  1  0.12336430  0.05479951  0.60958217  1
  H  H49  1  0.11948785  0.39005092  0.60078267  1
  H  H50  1  0.12255350  0.72191447  0.60247857  1
  H  H51  1  0.62436982  0.05505143  0.60984317  1
  H  H52  1  0.62166116  0.38774676  0.60267249  1
  H  H53  1  0.62379265  0.72139234  0.60869425  1
  H  H54  1  0.37467479  0.27657622  0.10403462  1
  H  H55  1  0.37391685  0.61480057  0.12038759  1
  H  H56  1  0.37150579  0.94677409  0.11638555  1
  H  H57  1  0.87267841  0.28129536  0.11728266  1
  H  H58  1  0.87988629  0.60887467  0.10005738  1
  H  H59  1  0.87114410  0.94646266  0.11062959  1
  H  H60  1  0.37367564  0.05602688  0.89142802  1
  H  H61  1  0.38053998  0.38656132  0.89732964  1
  H  H62  1  0.37413015  0.72051924  0.88727937  1
  H  H63  1  0.87023239  0.05029713  0.87360076  1
  H  H64  1  0.87724623  0.38726205  0.89093048  1
  H  H65  1  0.87452700  0.72182596  0.89096479  1
  H  H66  1  0.12427329  0.28073331  0.38700135  1
  H  H67  1  0.12310304  0.61486191  0.39048078  1
  H  H68  1  0.12943260  0.94502717  0.39062314  1
  H  H69  1  0.62814271  0.28210275  0.38497738  1
  H  H70  1  0.61961626  0.60914389  0.40266231  1
  H  H71  1  0.63387435  0.94990028  0.37348507  1
  H  H72  1  0.37055400  0.22413782  0.60358486  1
  H  H73  1  0.37461104  0.55479630  0.60811009  1
  H  H74  1  0.36994521  0.88715915  0.60573636  1
  H  H75  1  0.87338496  0.22028180  0.61079352  1
  H  H76  1  0.87866767  0.55201476  0.62014426  1
  H  H77  1  0.86481242  0.88820226  0.59914085  1
  H  H78  1  0.12892607  0.11378533  0.10667883  1
  H  H79  1  0.12210362  0.44747436  0.12111023  1
  H  H80  1  0.12611593  0.77972910  0.11024178  1
  H  H81  1  0.62736672  0.11313192  0.10622661  1
  H  H82  1  0.62228743  0.44601272  0.11501301  1
  H  H83  1  0.62699736  0.77913614  0.10634022  1
  H  H84  1  0.12669346  0.22015404  0.89144250  1
  H  H85  1  0.12413215  0.55430151  0.88407885  1
  H  H86  1  0.12633664  0.88682639  0.88757096  1
  H  H87  1  0.63074915  0.22292813  0.89629590  1
  H  H88  1  0.62608475  0.55511411  0.89125954  1
  H  H89  1  0.63067688  0.88864898  0.89588957  1
  H  H90  1  0.37588077  0.11489283  0.37722692  1
  H  H91  1  0.38150624  0.44991638  0.37492666  1
  H  H92  1  0.37656704  0.78149374  0.38273462  1
  H  H93  1  0.87156881  0.11179664  0.39961233  1
  H  H94  1  0.87671793  0.44332869  0.39361728  1
  H  H95  1  0.87341734  0.77937144  0.39315632  1
  H  H96  1  0.37974131  0.27778583  0.39936520  1
  H  H97  1  0.37363516  0.61634623  0.37924215  1
  H  H98  1  0.38771977  0.94224531  0.40390560  1
  H  H99  1  0.87514044  0.27958771  0.39171053  1
  H  H100  1  0.87481613  0.61203448  0.39289993  1
  H  H101  1  0.88001802  0.94631657  0.38647547  1
  H  H102  1  0.11677041  0.05690969  0.89954615  1
  H  H103  1  0.12650362  0.38514314  0.88924642  1
  H  H104  1  0.12360796  0.72253761  0.89009934  1
  H  H105  1  0.62199812  0.05501998  0.88919724  1
  H  H106  1  0.62973508  0.38532017  0.88194968  1
  H  H107  1  0.62250236  0.72183121  0.89280450  1
  H  H108  1  0.11972236  0.27522022  0.09725095  1
  H  H109  1  0.12758520  0.61578762  0.12170296  1
  H  H110  1  0.12008601  0.94535341  0.10903906  1
  H  H111  1  0.62368560  0.27993545  0.11351498  1
  H  H112  1  0.62020441  0.60937226  0.09696879  1
  H  H113  1  0.61993828  0.94389821  0.10199590  1
  H  H114  1  0.37547825  0.05386730  0.61398045  1
  H  H115  1  0.37357395  0.38579109  0.61761581  1
  H  H116  1  0.37496451  0.71953879  0.60996448  1
  H  H117  1  0.87374112  0.05421355  0.61396285  1
  H  H118  1  0.87131592  0.38367481  0.61437596  1
  H  H119  1  0.87528372  0.71758002  0.61755235  1
  H  H120  1  0.12810494  0.10859297  0.39956746  1
  H  H121  1  0.13381229  0.44284642  0.39909718  1
  H  H122  1  0.12887124  0.77687592  0.40161595  1
  H  H123  1  0.62437125  0.11500492  0.37767555  1
  H  H124  1  0.62801433  0.44542595  0.39046400  1
  H  H125  1  0.62364445  0.78032547  0.38602871  1
  H  H126  1  0.37552455  0.22048650  0.89078149  1
  H  H127  1  0.37141060  0.55740872  0.90019083  1
  H  H128  1  0.37560087  0.88849856  0.89195488  1
  H  H129  1  0.87930988  0.21796927  0.88172781  1
  H  H130  1  0.87472862  0.55413708  0.88959665  1
  H  H131  1  0.87942605  0.88481863  0.87854072  1
  H  H132  1  0.37785092  0.11623179  0.11971481  1
  H  H133  1  0.36973853  0.44428146  0.10217070  1
  H  H134  1  0.37610227  0.78006954  0.10917423  1
  H  H135  1  0.87704462  0.11453279  0.11321787  1
  H  H136  1  0.87007377  0.44293749  0.10137798  1
  H  H137  1  0.87575779  0.78047308  0.11536167  1
  H  H138  1  0.12247277  0.21849487  0.62144018  1
  H  H139  1  0.12509406  0.55434099  0.61327730  1
  H  H140  1  0.12090036  0.88425490  0.61415275  1
  H  H141  1  0.62443515  0.22409319  0.60641089  1
  H  H142  1  0.63020156  0.55623748  0.60321122  1
  H  H143  1  0.61768296  0.88523385  0.61619978  1
  H  H144  1  0.91826672  0.08092469  0.50165408  1
  H  H145  1  0.57186963  0.08260392  0.50168200  1
  H  H146  1  0.68640574  0.57039584  0.99828386  1
  H  H147  1  0.20069380  0.41621802  0.50657895  1
  H  H148  1  0.54615521  0.58605363  0.50364789  1
  H  H149  1  0.67949959  0.08580033  0.00234278  1
  H  H150  1  0.40218392  0.41617428  0.50364568  1
  H  H151  1  0.84781702  0.58219094  0.50826717  1
  H  H152  1  0.66211330  0.75286400  0.49154616  1
  H  H153  1  0.08328703  0.25226234  0.49978941  1
  H  H154  1  0.64815463  0.91470901  0.50785039  1
  H  H155  1  0.82371303  0.75004748  0.50148864  1
  H  H156  1  0.32547380  0.58236013  0.49908159  1
  H  H157  1  0.80192746  0.08900284  0.50615270  1
  H  H158  1  0.34692016  0.08926261  0.00711270  1
  H  H159  1  0.04827063  0.08203056  1.00709639  1
  H  H160  1  0.81560428  0.56438469  0.99734291  1
  H  H161  1  0.44105159  0.41357571  1.00572715  1
  H  H162  1  0.31080387  0.91443588  0.49757826  1
  H  H163  1  0.34915807  0.08401829  0.48977058  1
  H  H164  1  0.68998417  0.91423598  1.00497503  1
  H  H165  1  0.92205424  0.75206172  0.99514173  1
  H  H166  1  0.07000258  0.07047930  0.50180965  1
  H  H167  1  0.69311052  0.57389799  0.49814333  1
  H  H168  1  0.94550385  0.58515774  -0.00727110  1
  H  H169  1  0.54716440  0.58909461  -0.00445989  1
  H  H170  1  0.17277536  0.91651449  0.99695315  1
  H  H171  1  0.19614216  0.09114890  0.50346599  1
  H  H172  1  0.45896182  0.91442136  0.50969359  1
  H  H173  1  0.85232365  0.91407082  0.99183834  1
  H  H174  1  0.32937722  0.75115012  0.00486260  1
  H  H175  1  0.89880632  0.25158002  0.00861035  1
  H  H176  1  0.18469817  0.08967076  -0.00376651  1
  H  H177  1  0.68675904  0.25175231  1.00443638  1
  H  H178  1  0.59642659  0.41173908  0.98918442  1
  H  H179  1  0.07914183  0.41407144  0.99808271  1
  H  H180  1  0.44617029  0.25214633  0.50205660  1
  H  H181  1  0.05315048  0.41525346  0.49784379  1
  H  H182  1  0.55689491  0.91722370  -0.00204386  1
  H  H183  1  0.30409670  0.25157860  0.49748995  1
  H  H184  1  0.10000081  0.58625089  0.01395779  1
  H  H185  1  0.16750546  0.58489396  0.50845047  1
  H  H186  1  0.92256098  0.91529069  0.49883110  1
  H  H187  1  0.68406902  0.75140554  -0.00130195  1
  H  H188  1  0.30313368  0.41578323  -0.00360850  1
  H  H189  1  0.84108650  0.08366711  0.00188656  1
  H  H190  1  0.16971445  0.75118504  0.00021763  1
  H  H191  1  0.34720786  0.75114526  0.48973875  1
  Pb  Pb192  1  0.24924944  0.05040308  0.75012221  1
  Pb  Pb193  1  0.24859849  0.37924123  0.75086381  1
  Pb  Pb194  1  0.24771047  0.71240285  0.75002469  1
  Pb  Pb195  1  0.74694938  0.04656022  0.75037927  1
  Pb  Pb196  1  0.75014207  0.37786630  0.74979562  1
  Pb  Pb197  1  0.74998655  0.71557665  0.75021485  1
  Pb  Pb198  1  0.25233982  0.28506489  0.25150182  1
  Pb  Pb199  1  0.24649833  0.62022631  0.25523564  1
  Pb  Pb200  1  0.25045409  0.95485265  0.25194801  1
  Pb  Pb201  1  0.74895755  0.28838666  0.24899603  1
  Pb  Pb202  1  0.74912392  0.61751930  0.24825029  1
  Pb  Pb203  1  0.74975096  0.95223273  0.24610653  1
  Pb  Pb204  1  -0.00252333  0.21259739  0.75070262  1
  Pb  Pb205  1  -0.00122873  0.54552176  0.75415762  1
  Pb  Pb206  1  0.00094335  0.88025923  0.74658625  1
  Pb  Pb207  1  0.50107073  0.21513972  0.74556390  1
  Pb  Pb208  1  0.50148395  0.54742606  0.74860966  1
  Pb  Pb209  1  0.49469624  0.88044703  0.75462914  1
  Pb  Pb210  1  -0.00208843  0.11975748  0.25598525  1
  Pb  Pb211  1  0.00059074  0.44956870  0.25353498  1
  Pb  Pb212  1  0.00082909  0.78799408  0.24826650  1
  Pb  Pb213  1  0.50253465  0.12004724  0.24885829  1
  Pb  Pb214  1  0.49785660  0.45339651  0.24488612  1
  Pb  Pb215  1  0.49755430  0.78652571  0.24881599  1
  C  C216  1  -0.00043816  0.04546086  0.63384770  1
  C  C217  1  -0.00166043  0.37921788  0.63165463  1
  C  C218  1  0.00159228  0.71328384  0.63079117  1
  C  C219  1  0.50085869  0.04671618  0.63558983  1
  C  C220  1  0.49922270  0.38022233  0.63122923  1
  C  C221  1  0.49972948  0.71352883  0.63029763  1
  C  C222  1  -0.00025441  0.28598688  0.12948525  1
  C  C223  1  -0.00009639  0.61949848  0.13322107  1
  C  C224  1  -0.00396604  0.95366860  0.13344318  1
  C  C225  1  0.49736700  0.28582599  0.13222803  1
  C  C226  1  0.50166936  0.62095497  0.13230287  1
  C  C227  1  0.49841330  0.95361428  0.13166969  1
  C  C228  1  -0.00119338  0.04645063  0.86566905  1
  C  C229  1  0.00158928  0.37922840  0.86623780  1
  C  C230  1  -0.00131152  0.71414555  0.86797798  1
  C  C231  1  0.49740405  0.04659677  0.86551445  1
  C  C232  1  0.50258062  0.37921584  0.86696725  1
  C  C233  1  0.49942672  0.71290986  0.86531834  1
  C  C234  1  -0.00027031  0.28671680  0.36782245  1
  C  C235  1  -0.00166694  0.62169454  0.36642754  1
  C  C236  1  0.00445432  0.95267429  0.36719072  1
  C  C237  1  0.50093549  0.28729383  0.36778692  1
  C  C238  1  0.50129143  0.62124272  0.36692320  1
  C  C239  1  0.50498102  0.95282582  0.36833592  1
  C  C240  1  0.25007368  0.21382331  0.63596823  1
  C  C241  1  0.25065158  0.54725915  0.63325659  1
  C  C242  1  0.24733489  0.87902189  0.63394173  1
  C  C243  1  0.74792653  0.21467975  0.63231064  1
  C  C244  1  0.75137095  0.54501893  0.63340692  1
  C  C245  1  0.74404588  0.87965497  0.63179388  1
  C  C246  1  0.25124145  0.12084290  0.13443169  1
  C  C247  1  0.24947686  0.45368552  0.13488064  1
  C  C248  1  0.25143533  0.78651704  0.13246908  1
  C  C249  1  0.75099564  0.12048372  0.13224958  1
  C  C250  1  0.74892716  0.45257606  0.13311940  1
  C  C251  1  0.74964586  0.78653151  0.13448837  1
  C  C252  1  0.25106653  0.21378742  0.87076203  1
  C  C253  1  0.25090756  0.54711935  0.86720287  1
  C  C254  1  0.25167544  0.88020842  0.86602041  1
  C  C255  1  0.75159090  0.21353474  0.86799975  1
  C  C256  1  0.75013434  0.54351363  0.86901500  1
  C  C257  1  0.75230992  0.88020759  0.86613237  1
  C  C258  1  0.24787634  0.12033656  0.36662182  1
  C  C259  1  0.25256025  0.45333080  0.36589405  1
  C  C260  1  0.24935916  0.78670251  0.36976486  1
  C  C261  1  0.75216245  0.12056781  0.36507820  1
  C  C262  1  0.75302616  0.45253596  0.36689489  1
  C  C263  1  0.74954779  0.78724726  0.36711714  1
  C  C264  1  0.78493204  0.76043535  0.46150272  1
  C  C265  1  0.03075971  0.73822358  0.53525812  1
  C  C266  1  0.29165271  0.23918990  0.96296145  1
  C  C267  1  0.71982889  0.76112231  0.03970716  1
  C  C268  1  0.27630332  0.90481678  0.53926052  1
  C  C269  1  0.80386001  0.57227640  0.54418468  1
  C  C270  1  0.97583096  0.59350749  0.03653626  1
  C  C271  1  0.02536411  0.25669673  0.03304556  1
  C  C272  1  0.96062153  0.26168612  0.46183904  1
  C  C273  1  0.72396599  0.90481160  0.96299930  1
  C  C274  1  0.28766069  0.57251095  0.53883358  1
  C  C275  1  0.03945743  0.40452058  0.95921702  1
  C  C276  1  0.30194192  0.09799228  0.04267787  1
  C  C277  1  0.80582599  0.90428639  0.95673951  1
  C  C278  1  0.95627238  0.07226949  0.54163922  1
  C  C279  1  0.45721706  0.73888976  0.53762494  1
  C  C280  1  0.47352769  0.40479650  0.96291479  1
  C  C281  1  0.56903428  0.92942112  0.45452058  1
  C  C282  1  0.21112004  0.23912155  0.96314578  1
  C  C283  1  0.22007425  0.09747992  0.03773001  1
  C  C284  1  0.30411564  0.09348588  0.45446356  1
  C  C285  1  0.48888450  0.92623451  0.46651664  1
  C  C286  1  0.77244007  0.09628701  0.46176633  1
  C  C287  1  0.71455277  0.24113555  0.53846274  1
  C  C288  1  0.53064653  0.40702045  0.53613063  1
  C  C289  1  0.04216146  0.26178780  0.46191018  1
  C  C290  1  0.04096391  0.74250830  0.96130574  1
  C  C291  1  0.93678758  0.06887877  0.95331707  1
  C  C292  1  0.44926838  0.40631259  0.53950205  1
  C  C293  1  0.46726996  0.25771681  0.03815192  1
  C  C294  1  0.21258414  0.90622273  0.95847380  1
  C  C295  1  0.31295136  0.43001377  0.45367811  1
  C  C296  1  0.53951307  0.73979618  0.53700406  1
  C  C297  1  0.23239535  0.42730474  0.46399598  1
  C  C298  1  0.04451179  0.92723982  0.46084813  1
  C  C299  1  0.79678030  0.09473234  0.03993581  1
  C  C300  1  0.21018821  0.76078133  0.03919744  1
  C  C301  1  0.01730112  0.07143491  0.96418031  1
  C  C302  1  0.27279347  0.23977067  0.54015762  1
  C  C303  1  0.44625763  0.92530331  0.04157520  1
  C  C304  1  0.96299580  0.92674071  0.46112500  1
  C  C305  1  0.72393859  0.24072251  0.96459060  1
  C  C306  1  0.94986027  0.73655574  0.54044084  1
  C  C307  1  0.27201880  0.42673906  0.03936287  1
  C  C308  1  0.95699223  0.92740692  0.04024337  1
  C  C309  1  0.53411112  0.07210222  0.54145693  1
  C  C310  1  0.80528239  0.23851507  0.95788214  1
  C  C311  1  0.22238364  0.75718749  0.46597168  1
  N  N312  1  0.69389664  0.09550346  0.45396754  1
  N  N313  1  0.45479744  0.07115010  0.54234353  1
  N  N314  1  0.44222642  0.59659519  0.45458976  1
  N  N315  1  0.02342456  0.40632871  0.53832323  1
  N  N316  1  0.69529441  0.90508606  0.54301055  1
  N  N317  1  0.77690168  0.42804783  0.03661861  1
  N  N318  1  0.79924304  0.76136272  0.04238532  1
  N  N319  1  0.55266782  0.40542094  0.95590846  1
  N  N320  1  0.45668410  0.73840262  0.95825999  1
  N  N321  1  0.70524135  0.76056357  0.45775855  1
  N  N322  1  0.19392735  0.23752054  0.54600588  1
  N  N323  1  0.05465551  0.59488555  0.04542988  1
  N  N324  1  0.72427549  0.57391714  0.53921182  1
  N  N325  1  0.03475939  0.92720627  0.03837663  1
  N  N326  1  0.22481216  0.09139146  0.46127040  1
  N  N327  1  0.52077112  0.59316615  0.03829337  1
  N  N328  1  0.54471956  0.25916677  0.03968419  1
  N  N329  1  0.19315808  0.42720682  0.04563100  1
  N  N330  1  0.51956111  0.59385924  0.46133307  1
  N  N331  1  0.30077854  0.75958889  0.45817302  1
  N  N332  1  0.03603114  0.07267724  0.54124098  1
  N  N333  1  0.71282566  0.42826804  0.46073749  1
  N  N334  1  0.94571502  0.40430373  0.54162023  1
  N  N335  1  0.78902777  0.42746415  0.46159782  1
  N  N336  1  0.46063399  0.07337685  0.95951285  1
  N  N337  1  0.55352181  0.26442412  0.45843388  1
  N  N338  1  0.28999578  0.76071756  0.04002404  1
  N  N339  1  0.79183596  0.23954683  0.53834377  1
  N  N340  1  0.20804188  0.57171337  0.54148086  1
  N  N341  1  0.20138836  0.57298836  0.95804188  1
  N  N342  1  0.29185175  0.90646450  0.96041866  1
  N  N343  1  0.70049937  0.42916482  0.04119297  1
  N  N344  1  0.77311384  0.90636924  0.53618979  1
  N  N345  1  0.19716983  0.90443473  0.54236620  1
  N  N346  1  0.53720331  0.07270045  0.95899956  1
  N  N347  1  0.79278669  0.58142695  0.95659008  1
  N  N348  1  0.52500904  0.92526732  0.03769334  1
  N  N349  1  0.47580942  0.26299779  0.46203514  1
  N  N350  1  0.96170114  0.74157593  0.96048144  1
  N  N351  1  0.96016274  0.40563901  0.96024013  1
  N  N352  1  0.44328342  0.59453605  0.04469914  1
  N  N353  1  0.03883311  0.59656022  0.46018118  1
  N  N354  1  0.53366852  0.73870194  0.96022882  1
  N  N355  1  0.94712645  0.25976357  0.04104158  1
  N  N356  1  0.71698086  0.09440505  0.03896317  1
  N  N357  1  0.96219666  0.59550740  0.46087393  1
  N  N358  1  0.71070944  0.58324994  0.95638554  1
  N  N359  1  0.27760516  0.57396970  0.96329245  1
  N  N360  1  0.06250679  0.05258891  0.59726719  1
  N  N361  1  0.05745041  0.39018391  0.59234328  1
  N  N362  1  0.06195979  0.72415533  0.59052214  1
  N  N363  1  0.56371623  0.05729720  0.59831915  1
  N  N364  1  0.56077662  0.39132340  0.59126265  1
  N  N365  1  0.56404629  0.72434767  0.59411865  1
  N  N366  1  0.43553688  0.27406146  0.09347080  1
  N  N367  1  0.43212408  0.61010495  0.10400950  1
  N  N368  1  0.42950546  0.94261463  0.09968395  1
  N  N369  1  0.93090729  0.27799616  0.10036974  1
  N  N370  1  0.94131750  0.60855276  0.09117700  1
  N  N371  1  0.93097443  0.94338826  0.09771689  1
  N  N372  1  0.43464601  0.05686369  0.90195350  1
  N  N373  1  0.44205663  0.38941342  0.90740043  1
  N  N374  1  0.43456297  0.72209486  0.89960629  1
  N  N375  1  0.92651282  0.05393365  0.89369319  1
  N  N376  1  0.93838312  0.38976582  0.90201965  1
  N  N377  1  0.93500023  0.72386777  0.90297463  1
  N  N378  1  0.06539614  0.27738238  0.40205665  1
  N  N379  1  0.06227796  0.61243231  0.40165229  1
  N  N380  1  0.06952327  0.94255088  0.40415321  1
  N  N381  1  0.56868693  0.27943379  0.39956502  1
  N  N382  1  0.55734807  0.61075903  0.40901371  1
  N  N383  1  0.57811490  0.94525882  0.39484554  1
  N  N384  1  0.30869808  0.22509050  0.59494518  1
  N  N385  1  0.31436539  0.55689466  0.59576881  1
  N  N386  1  0.30882759  0.88965032  0.59522998  1
  N  N387  1  0.81291045  0.22294004  0.59818940  1
  N  N388  1  0.82050535  0.55622216  0.60297217  1
  N  N389  1  0.80283379  0.89047888  0.59149120  1
  N  N390  1  0.18978444  0.11149895  0.09532747  1
  N  N391  1  0.18099459  0.44386730  0.10535701  1
  N  N392  1  0.18619894  0.77667605  0.09676121  1
  N  N393  1  0.68881798  0.11022907  0.09570208  1
  N  N394  1  0.68196144  0.44436885  0.10109706  1
  N  N395  1  0.68803398  0.77593324  0.09591624  1
  N  N396  1  0.18598265  0.22374611  0.90684098  1
  N  N397  1  0.18360154  0.55636061  0.89841610  1
  N  N398  1  0.18636554  0.89057279  0.90079008  1
  N  N399  1  0.69167635  0.22474853  0.90729345  1
  N  N400  1  0.68665212  0.55536320  0.90395198  1
  N  N401  1  0.69198563  0.88993689  0.90618224  1
  N  N402  1  0.31836228  0.10977422  0.39544953  1
  N  N403  1  0.32453335  0.44553603  0.39434753  1
  N  N404  1  0.31792390  0.77776296  0.39903302  1
  N  N405  1  0.80991585  0.11081782  0.40734974  1
  N  N406  1  0.81560380  0.44289493  0.40358489  1
  N  N407  1  0.81264032  0.77655342  0.40490023  1
  N  N408  1  0.44184332  0.27678406  0.40736396  1
  N  N409  1  0.43159627  0.61232240  0.39553326  1
  N  N410  1  0.44972279  0.94137848  0.41142084  1
  N  N411  1  0.93529297  0.27651638  0.40514400  1
  N  N412  1  0.93581287  0.61136149  0.40307300  1
  N  N413  1  0.93929232  0.94300081  0.40171183  1
  N  N414  1  0.05514486  0.05710598  0.90814806  1
  N  N415  1  0.06648497  0.38864707  0.90173672  1
  N  N416  1  0.06392131  0.72543188  0.90414291  1
  N  N417  1  0.56114689  0.05631112  0.90078516  1
  N  N418  1  0.57032621  0.38911429  0.89705294  1
  N  N419  1  0.56114495  0.72332875  0.90263153  1
  N  N420  1  0.05843104  0.27309578  0.08778596  1
  N  N421  1  0.06916756  0.61039655  0.10498798  1
  N  N422  1  0.05899583  0.94394714  0.09770823  1
  N  N423  1  0.56361721  0.27691969  0.09985700  1
  N  N424  1  0.55823187  0.61165464  0.09035285  1
  N  N425  1  0.55841190  0.94401452  0.09273066  1
  N  N426  1  0.43577625  0.05537993  0.60143520  1
  N  N427  1  0.43117444  0.38967049  0.60013791  1
  N  N428  1  0.43426677  0.72307806  0.59497105  1
  N  N429  1  0.93345805  0.05718842  0.59949763  1
  N  N430  1  0.93057905  0.38804655  0.60013958  1
  N  N431  1  0.93263275  0.72154748  0.59902614  1
  N  N432  1  0.19017407  0.11137711  0.40770266  1
  N  N433  1  0.19558767  0.44226986  0.40776532  1
  N  N434  1  0.19009690  0.77416999  0.41124340  1
  N  N435  1  0.68312129  0.11071126  0.39385108  1
  N  N436  1  0.68890922  0.44338273  0.40207148  1
  N  N437  1  0.68380923  0.77717629  0.39972724  1
  N  N438  1  0.31644734  0.22394745  0.90653140  1
  N  N439  1  0.30961342  0.55795320  0.90727020  1
  N  N440  1  0.31454559  0.89033922  0.90233093  1
  N  N441  1  0.82123387  0.22218130  0.89928546  1
  N  N442  1  0.81461129  0.55422609  0.90309947  1
  N  N443  1  0.82161565  0.88919397  0.89627691  1
  N  N444  1  0.31969017  0.11225935  0.10291987  1
  N  N445  1  0.30803238  0.44268458  0.09374877  1
  N  N446  1  0.31526506  0.77630250  0.09761363  1
  N  N447  1  0.81774901  0.11079385  0.09821265  1
  N  N448  1  0.80814952  0.44222719  0.09334159  1
  N  N449  1  0.81573928  0.77715623  0.10183598  1
  N  N450  1  0.18161296  0.22199461  0.60594120  1
  N  N451  1  0.18545245  0.55744540  0.59995870  1
  N  N452  1  0.18087968  0.88828147  0.60137645  1
  N  N453  1  0.68464502  0.22585974  0.59476581  1
  N  N454  1  0.69197635  0.55361529  0.59359498  1
  N  N455  1  0.67665534  0.88905133  0.60095249  1
  Cl  Cl456  1  0.24650621  0.06039964  0.60709161  1
  Cl  Cl457  1  0.24049901  0.38897949  0.61616811  1
  Cl  Cl458  1  0.24949670  0.71898040  0.61700584  1
  Cl  Cl459  1  0.75056179  0.05350767  0.61703093  1
  Cl  Cl460  1  0.74620789  0.38332542  0.61940934  1
  Cl  Cl461  1  0.74738653  0.72053604  0.61479204  1
  Cl  Cl462  1  0.24745162  0.28066576  0.12028077  1
  Cl  Cl463  1  0.25029611  0.61913572  0.12457234  1
  Cl  Cl464  1  0.24367925  0.94524507  0.11968283  1
  Cl  Cl465  1  0.74823881  0.27812999  0.11543680  1
  Cl  Cl466  1  0.74643210  0.60228258  0.10059300  1
  Cl  Cl467  1  0.74371600  0.94653798  0.11086096  1
  Cl  Cl468  1  0.24603574  0.05757289  0.88315721  1
  Cl  Cl469  1  0.25683352  0.38535908  0.88531962  1
  Cl  Cl470  1  0.24943122  0.72395405  0.88709672  1
  Cl  Cl471  1  0.74308714  0.05732506  0.88646740  1
  Cl  Cl472  1  0.75323646  0.38693545  0.88211696  1
  Cl  Cl473  1  0.74707033  0.72086696  0.88461181  1
  Cl  Cl474  1  0.25945706  0.27854595  0.38770136  1
  Cl  Cl475  1  0.24579863  0.61365373  0.39203962  1
  Cl  Cl476  1  0.26046975  0.94536205  0.38675048  1
  Cl  Cl477  1  0.75137250  0.28053961  0.37906491  1
  Cl  Cl478  1  0.74346654  0.60784555  0.39479920  1
  Cl  Cl479  1  0.75756935  0.94745777  0.37588094  1
  Cl  Cl480  1  -0.00235191  0.21784068  0.61770875  1
  Cl  Cl481  1  0.00327134  0.55111329  0.62333846  1
  Cl  Cl482  1  -0.01060481  0.88533772  0.61204905  1
  Cl  Cl483  1  0.49368474  0.22568815  0.60764339  1
  Cl  Cl484  1  0.50738617  0.55866066  0.60808436  1
  Cl  Cl485  1  0.49391212  0.88494150  0.62001867  1
  Cl  Cl486  1  0.00365485  0.11646348  0.12270167  1
  Cl  Cl487  1  -0.00605632  0.44764834  0.12029218  1
  Cl  Cl488  1  0.00034956  0.77843988  0.11220759  1
  Cl  Cl489  1  0.50557972  0.11598412  0.11852255  1
  Cl  Cl490  1  0.49559354  0.44361230  0.10791643  1
  Cl  Cl491  1  0.50020698  0.78486568  0.11694889  1
  Cl  Cl492  1  0.00292634  0.21934981  0.88298084  1
  Cl  Cl493  1  -0.00236033  0.55906934  0.89076296  1
  Cl  Cl494  1  0.00378986  0.88135063  0.87745440  1
  Cl  Cl495  1  0.50236278  0.22035838  0.87443394  1
  Cl  Cl496  1  0.50242548  0.55687914  0.89180002  1
  Cl  Cl497  1  0.50585584  0.89112420  0.89193212  1
  Cl  Cl498  1  0.00342003  0.10666611  0.39636505  1
  Cl  Cl499  1  0.00704304  0.44123029  0.39179750  1
  Cl  Cl500  1  0.00091304  0.78173536  0.37965652  1
  Cl  Cl501  1  0.49993488  0.11566398  0.38186033  1
  Cl  Cl502  1  0.50618404  0.44978185  0.37697914  1
  Cl  Cl503  1  0.50046539  0.78036708  0.38213279  1
  Cl  Cl504  1  0.35938553  0.14297184  0.74871371  1
  Cl  Cl505  1  0.36270863  0.47939688  0.74848908  1
  Cl  Cl506  1  0.36149769  0.81213268  0.75375294  1
  Cl  Cl507  1  0.86387762  0.14419220  0.75199583  1
  Cl  Cl508  1  0.86234832  0.47847712  0.74996708  1
  Cl  Cl509  1  0.86050252  0.81027897  0.75147216  1
  Cl  Cl510  1  0.14007863  0.18854603  0.25340085  1
  Cl  Cl511  1  0.14075863  0.52291445  0.24662075  1
  Cl  Cl512  1  0.13854086  0.85459373  0.25030144  1
  Cl  Cl513  1  0.63759007  0.18815576  0.25138733  1
  Cl  Cl514  1  0.63959882  0.52422806  0.24804355  1
  Cl  Cl515  1  0.63917177  0.85644839  0.25440159  1
  Cl  Cl516  1  0.13806887  0.14312141  0.74682029  1
  Cl  Cl517  1  0.13703724  0.47947101  0.75163048  1
  Cl  Cl518  1  0.13760611  0.81129591  0.74873899  1
  Cl  Cl519  1  0.63710512  0.14417181  0.74824132  1
  Cl  Cl520  1  0.63739491  0.47875772  0.75316797  1
  Cl  Cl521  1  0.64149497  0.81085754  0.74883754  1
  Cl  Cl522  1  0.36255035  0.18938471  0.25180329  1
  Cl  Cl523  1  0.36516688  0.52311117  0.25465041  1
  Cl  Cl524  1  0.36255817  0.85397890  0.25061544  1
  Cl  Cl525  1  0.86222051  0.18757267  0.24815124  1
  Cl  Cl526  1  0.85910286  0.52493990  0.24998271  1
  Cl  Cl527  1  0.86071145  0.85454232  0.24554123  1
  Cl  Cl528  1  0.11310074  0.31095263  0.74851775  1
  Cl  Cl529  1  0.11248380  0.64533721  0.75174737  1
  Cl  Cl530  1  0.10833037  0.97736254  0.74624079  1
  Cl  Cl531  1  0.61121676  0.31153420  0.75080626  1
  Cl  Cl532  1  0.61141958  0.64270959  0.74990726  1
  Cl  Cl533  1  0.61377018  0.97724549  0.75148166  1
  Cl  Cl534  1  0.38771583  0.02260605  0.24696149  1
  Cl  Cl535  1  0.38903334  0.35770272  0.25174792  1
  Cl  Cl536  1  0.38935118  0.68862785  0.25134491  1
  Cl  Cl537  1  0.88975024  0.02306794  0.24967178  1
  Cl  Cl538  1  0.88895037  0.35565541  0.24825325  1
  Cl  Cl539  1  0.88676486  0.68830544  0.24659811  1
  Cl  Cl540  1  0.38773797  0.31220143  0.74656431  1
  Cl  Cl541  1  0.38728848  0.64419123  0.74824775  1
  Cl  Cl542  1  0.38840222  0.97687631  0.74671875  1
  Cl  Cl543  1  0.88922747  0.31127717  0.75020499  1
  Cl  Cl544  1  0.88743388  0.64494567  0.75061759  1
  Cl  Cl545  1  0.88597846  0.97759272  0.75358480  1
  Cl  Cl546  1  0.11359005  0.02147592  0.25096720  1
  Cl  Cl547  1  0.11028220  0.35706245  0.24958902  1
  Cl  Cl548  1  0.11293520  0.68822911  0.24649935  1
  Cl  Cl549  1  0.61288500  0.02220811  0.25367574  1
  Cl  Cl550  1  0.61185755  0.35443258  0.24726376  1
  Cl  Cl551  1  0.61300519  0.68829255  0.25062002  1
