# generated using pymatgen
data_H8PbC4(N3Cl2)2
_symmetry_space_group_name_H-M   'P 1'
_cell_length_a   16.61931992
_cell_length_b   22.49719810
_cell_length_c   21.58647797
_cell_angle_alpha   90.00103698
_cell_angle_beta   89.99815821
_cell_angle_gamma   90.00099184
_symmetry_Int_Tables_number   1
_chemical_formula_structural   H8PbC4(N3Cl2)2
_chemical_formula_sum   'H192 Pb24 C96 N144 Cl96'
_cell_volume   8070.92793146
_cell_formula_units_Z   24
loop_
 _symmetry_equiv_pos_site_id
 _symmetry_equiv_pos_as_xyz
  1  'x, y, z'
loop_
 _atom_site_type_symbol
 _atom_site_label
 _atom_site_symmetry_multiplicity
 _atom_site_fract_x
 _atom_site_fract_y
 _atom_site_fract_z
 _atom_site_occupancy
  H  H0  1  -0.00100032  0.03420518  0.68154101  1
  H  H1  1  -0.00019567  0.36617007  0.68112959  1
  H  H2  1  -0.00315676  0.69995146  0.68019018  1
  H  H3  1  0.50053983  0.03248992  0.67871005  1
  H  H4  1  0.50200504  0.36557714  0.68226875  1
  H  H5  1  0.49961329  0.69992682  0.68128331  1
  H  H6  1  -0.00674145  0.30098456  0.18054977  1
  H  H7  1  -0.00351906  0.63298711  0.18159221  1
  H  H8  1  0.00062310  0.96552053  0.18197476  1
  H  H9  1  0.50333808  0.30136683  0.18339070  1
  H  H10  1  0.49898369  0.63310855  0.18199480  1
  H  H11  1  0.49884880  0.96477677  0.18015639  1
  H  H12  1  -0.00293290  0.03312415  0.81950179  1
  H  H13  1  0.00044377  0.36700337  0.81886451  1
  H  H14  1  -0.00355589  0.69965313  0.81815837  1
  H  H15  1  0.49968754  0.03468935  0.81999154  1
  H  H16  1  0.49751975  0.36702590  0.81818848  1
  H  H17  1  0.50613048  0.69988553  0.81919707  1
  H  H18  1  -0.00071439  0.30043085  0.31904561  1
  H  H19  1  0.00072695  0.63246001  0.31803568  1
  H  H20  1  -0.00620548  0.96659672  0.32082622  1
  H  H21  1  0.50267078  0.30077541  0.31799267  1
  H  H22  1  0.50407658  0.63348048  0.31841311  1
  H  H23  1  0.50335121  0.96673565  0.31758278  1
  H  H24  1  0.25246836  0.19990151  0.68088980  1
  H  H25  1  0.24768652  0.53334571  0.68242318  1
  H  H26  1  0.24917819  0.86558263  0.68067669  1
  H  H27  1  0.74694491  0.19910009  0.68077101  1
  H  H28  1  0.74844717  0.53365558  0.68014483  1
  H  H29  1  0.74860554  0.86719488  0.68077296  1
  H  H30  1  0.24180469  0.13242513  0.18066203  1
  H  H31  1  0.24756019  0.46876442  0.18154693  1
  H  H32  1  0.25182866  0.80008361  0.18322721  1
  H  H33  1  0.75657615  0.13243925  0.17986570  1
  H  H34  1  0.75020468  0.46608608  0.17929051  1
  H  H35  1  0.75361683  0.80018543  0.18061434  1
  H  H36  1  0.25438976  0.19899913  0.81855412  1
  H  H37  1  0.24393106  0.53311037  0.81910955  1
  H  H38  1  0.24400008  0.86617078  0.81864640  1
  H  H39  1  0.74772493  0.19968737  0.81696116  1
  H  H40  1  0.75299337  0.53342028  0.81749056  1
  H  H41  1  0.75664165  0.86648363  0.82009380  1
  H  H42  1  0.24316391  0.13301419  0.32027973  1
  H  H43  1  0.25557589  0.46759304  0.31743941  1
  H  H44  1  0.24813100  0.80040041  0.31962962  1
  H  H45  1  0.75464573  0.13360946  0.31907582  1
  H  H46  1  0.74558331  0.46613449  0.32003751  1
  H  H47  1  0.75436550  0.80060436  0.31982342  1
  H  H48  1  0.12949085  0.05275450  0.61587302  1
  H  H49  1  0.12147905  0.38776724  0.60828921  1
  H  H50  1  0.12848497  0.71979995  0.61589583  1
  H  H51  1  0.62671111  0.05405076  0.61033385  1
  H  H52  1  0.62073066  0.38705912  0.60618098  1
  H  H53  1  0.62629082  0.72090661  0.61165630  1
  H  H54  1  0.37622538  0.27838829  0.11392423  1
  H  H55  1  0.37854998  0.61312349  0.10958231  1
  H  H56  1  0.37529155  0.94538419  0.10699466  1
  H  H57  1  0.88142191  0.27663698  0.09929394  1
  H  H58  1  0.87858139  0.61037439  0.10362641  1
  H  H59  1  0.87045404  0.94714088  0.11600251  1
  H  H60  1  0.37752480  0.05489717  0.89365967  1
  H  H61  1  0.37853905  0.38961887  0.89303301  1
  H  H62  1  0.37605461  0.71869567  0.88682748  1
  H  H63  1  0.87917742  0.05488472  0.89712240  1
  H  H64  1  0.87327960  0.38769226  0.88860198  1
  H  H65  1  0.87843109  0.72403520  0.89519398  1
  H  H66  1  0.12716489  0.27919364  0.38739358  1
  H  H67  1  0.11862520  0.61319583  0.39325213  1
  H  H68  1  0.12701062  0.94810745  0.38457214  1
  H  H69  1  0.62439684  0.27888745  0.39365437  1
  H  H70  1  0.61723750  0.61157068  0.39667848  1
  H  H71  1  0.62479383  0.94466487  0.39369101  1
  H  H72  1  0.37059696  0.22046535  0.60676549  1
  H  H73  1  0.37946767  0.55108093  0.62012670  1
  H  H74  1  0.37182358  0.88720559  0.60887338  1
  H  H75  1  0.87530471  0.21993924  0.61430724  1
  H  H76  1  0.87937191  0.55341837  0.61508346  1
  H  H77  1  0.87474643  0.88723096  0.60996234  1
  H  H78  1  0.12583137  0.10961312  0.10259237  1
  H  H79  1  0.12404896  0.44550401  0.10851603  1
  H  H80  1  0.12498983  0.77983295  0.11261457  1
  H  H81  1  0.62029505  0.11471026  0.12192759  1
  H  H82  1  0.62465087  0.44663271  0.11065338  1
  H  H83  1  0.62135058  0.78028359  0.11711198  1
  H  H84  1  0.12099091  0.21756611  0.88020888  1
  H  H85  1  0.12529068  0.55609815  0.89480424  1
  H  H86  1  0.12996310  0.89081863  0.89890848  1
  H  H87  1  0.62504444  0.22041819  0.88904082  1
  H  H88  1  0.62125578  0.55169694  0.88022665  1
  H  H89  1  0.62515791  0.88526759  0.88574333  1
  H  H90  1  0.37456450  0.11376630  0.38562258  1
  H  H91  1  0.37560221  0.44530729  0.39431824  1
  H  H92  1  0.37320636  0.77872469  0.39099955  1
  H  H93  1  0.86936818  0.11096461  0.39701971  1
  H  H94  1  0.87981474  0.44888031  0.38083707  1
  H  H95  1  0.86939772  0.77679062  0.39922785  1
  H  H96  1  0.37574142  0.27939722  0.38837626  1
  H  H97  1  0.36847634  0.61636196  0.37881955  1
  H  H98  1  0.37602647  0.94646441  0.38799221  1
  H  H99  1  0.87748151  0.27869534  0.39169309  1
  H  H100  1  0.86937532  0.61403999  0.38263901  1
  H  H101  1  0.87882414  0.94327674  0.39944006  1
  H  H102  1  0.12840928  0.05335018  0.88424522  1
  H  H103  1  0.12169289  0.38871024  0.89326213  1
  H  H104  1  0.12785896  0.71750633  0.88215932  1
  H  H105  1  0.62646277  0.05321882  0.89058604  1
  H  H106  1  0.62791350  0.38633580  0.88463833  1
  H  H107  1  0.62488167  0.72255915  0.89493068  1
  H  H108  1  0.12904918  0.28041569  0.12193481  1
  H  H109  1  0.12724730  0.61354293  0.11505857  1
  H  H110  1  0.12000250  0.94676468  0.10803728  1
  H  H111  1  0.62610993  0.28001959  0.11144272  1
  H  H112  1  0.62797843  0.61408194  0.11468699  1
  H  H113  1  0.62403968  0.94606435  0.10950571  1
  H  H114  1  0.37756017  0.05517841  0.60680505  1
  H  H115  1  0.37186494  0.38597913  0.61511453  1
  H  H116  1  0.37709977  0.72100539  0.60663691  1
  H  H117  1  0.88019835  0.05320835  0.60732084  1
  H  H118  1  0.87185924  0.38726758  0.61226181  1
  H  H119  1  0.87939731  0.72277867  0.60260376  1
  H  H120  1  0.12616476  0.11049400  0.39739839  1
  H  H121  1  0.12730193  0.44679065  0.38706879  1
  H  H122  1  0.12406866  0.77835061  0.39094156  1
  H  H123  1  0.62077152  0.11419739  0.38192825  1
  H  H124  1  0.63196507  0.44267584  0.40020677  1
  H  H125  1  0.62100557  0.78125896  0.38128650  1
  H  H126  1  0.36926973  0.22364757  0.89763912  1
  H  H127  1  0.37409463  0.55280806  0.88576594  1
  H  H128  1  0.37710404  0.88480534  0.88175365  1
  H  H129  1  0.87514064  0.22024483  0.88725261  1
  H  H130  1  0.87035870  0.55368153  0.89369204  1
  H  H131  1  0.87361056  0.89091476  0.89674454  1
  H  H132  1  0.37407862  0.11337804  0.11613814  1
  H  H133  1  0.37269719  0.44700026  0.11074456  1
  H  H134  1  0.37412200  0.77873272  0.11036468  1
  H  H135  1  0.86746427  0.10792141  0.09757732  1
  H  H136  1  0.87348395  0.44524932  0.10930828  1
  H  H137  1  0.87032856  0.77792209  0.10220306  1
  H  H138  1  0.12158074  0.21802282  0.61609667  1
  H  H139  1  0.13104432  0.55463930  0.60623125  1
  H  H140  1  0.12222481  0.88688605  0.61131919  1
  H  H141  1  0.62655934  0.22158799  0.60529479  1
  H  H142  1  0.63010291  0.55607924  0.60356565  1
  H  H143  1  0.62560828  0.88832154  0.60852122  1
  H  H144  1  0.55547617  0.58463698  0.50584835  1
  H  H145  1  0.57679240  0.91280432  0.00604749  1
  H  H146  1  0.09379033  0.74592585  0.99426675  1
  H  H147  1  0.42880887  0.08305420  0.99828244  1
  H  H148  1  0.67702703  0.24508548  1.00163685  1
  H  H149  1  0.80610890  0.75399301  -0.00244606  1
  H  H150  1  0.92546949  0.24964683  0.50091947  1
  H  H151  1  0.32339061  0.74984352  0.00227122  1
  H  H152  1  0.94254518  0.58282485  0.00058891  1
  H  H153  1  0.58252680  0.74948655  0.50220130  1
  H  H154  1  0.31799157  0.24915986  0.49694528  1
  H  H155  1  0.18776518  0.58083411  0.49649589  1
  H  H156  1  0.42714478  0.08353514  0.50270668  1
  H  H157  1  0.69101203  0.58325743  0.49912682  1
  H  H158  1  0.57416089  0.25788329  -0.00143345  1
  H  H159  1  0.08775613  0.25006259  0.49240753  1
  H  H160  1  0.43160995  0.41889351  1.00126410  1
  H  H161  1  0.81387531  0.57792363  1.00408543  1
  H  H162  1  0.16492212  0.91542263  0.50629990  1
  H  H163  1  0.95162478  0.25327100  -0.00386488  1
  H  H164  1  0.06257113  0.58645908  0.50449885  1
  H  H165  1  0.94122281  0.07915372  1.00194716  1
  H  H166  1  0.59139409  0.41629073  0.98982901  1
  H  H167  1  0.42559029  0.91416454  0.00373193  1
  H  H168  1  0.79757667  0.07958913  -0.00309033  1
  H  H169  1  0.35238143  0.58055408  0.50738651  1
  H  H170  1  0.94197104  0.74833215  0.49818396  1
  H  H171  1  0.17806364  0.41997436  0.00400134  1
  H  H172  1  0.42712099  0.58621313  -0.00114787  1
  H  H173  1  0.93864221  0.74868589  0.99968468  1
  H  H174  1  0.82775178  0.24738142  0.99363570  1
  H  H175  1  0.14923681  0.24692594  0.99283796  1
  H  H176  1  0.91846412  0.41575252  0.99321929  1
  H  H177  1  0.56198977  0.41317751  0.49761697  1
  H  H178  1  0.65020525  0.58048958  0.99322272  1
  H  H179  1  0.91148040  0.41600940  0.50677575  1
  H  H180  1  0.58379135  0.08250723  0.99588107  1
  H  H181  1  0.19782841  0.91552167  1.00097973  1
  H  H182  1  0.30441675  0.24125724  1.00258730  1
  H  H183  1  0.06641639  0.91968696  -0.00372432  1
  H  H184  1  0.42415860  0.25927547  0.00588674  1
  H  H185  1  0.32382547  0.91465148  0.49884754  1
  H  H186  1  0.80844819  0.08392074  0.50577607  1
  H  H187  1  0.07157918  0.41665451  0.49887836  1
  H  H188  1  0.93428897  0.07966856  0.49545562  1
  H  H189  1  0.69830970  0.41448316  0.50246478  1
  H  H190  1  0.65186070  0.08703264  0.48947051  1
  H  H191  1  0.80368395  0.75291613  0.50294200  1
  Pb  Pb192  1  0.25228066  0.04722374  0.75056003  1
  Pb  Pb193  1  0.25043558  0.38187010  0.75335360  1
  Pb  Pb194  1  0.25065492  0.71401288  0.75029415  1
  Pb  Pb195  1  0.74879639  0.04684340  0.74948127  1
  Pb  Pb196  1  0.74735794  0.38195538  0.74553722  1
  Pb  Pb197  1  0.75074100  0.71622959  0.75044054  1
  Pb  Pb198  1  0.25001676  0.28438812  0.24769093  1
  Pb  Pb199  1  0.24979792  0.62112758  0.25040798  1
  Pb  Pb200  1  0.24920329  0.95189917  0.24912405  1
  Pb  Pb201  1  0.75190997  0.28611746  0.24646172  1
  Pb  Pb202  1  0.74672219  0.61821527  0.25070500  1
  Pb  Pb203  1  0.74758969  0.95126819  0.25210170  1
  Pb  Pb204  1  -0.00127757  0.21435862  0.75028185  1
  Pb  Pb205  1  0.00118573  0.54856513  0.75282692  1
  Pb  Pb206  1  0.00161771  0.88201453  0.75158695  1
  Pb  Pb207  1  0.49779739  0.21474967  0.75218105  1
  Pb  Pb208  1  0.49867574  0.54883217  0.74819244  1
  Pb  Pb209  1  0.49843683  0.88003478  0.75295733  1
  Pb  Pb210  1  -0.00254655  0.11623619  0.24742576  1
  Pb  Pb211  1  0.00204964  0.45329405  0.24953755  1
  Pb  Pb212  1  -0.00237480  0.78495795  0.25144285  1
  Pb  Pb213  1  0.49907222  0.11872511  0.24933083  1
  Pb  Pb214  1  0.49751954  0.45191787  0.25081377  1
  Pb  Pb215  1  0.49726352  0.78644382  0.25092839  1
  C  C216  1  0.00256973  0.04710775  0.63330257  1
  C  C217  1  -0.00280708  0.38089917  0.63313476  1
  C  C218  1  0.00128975  0.71391895  0.63233377  1
  C  C219  1  0.50121857  0.04744070  0.63100660  1
  C  C220  1  0.49806599  0.37982266  0.63444862  1
  C  C221  1  0.50092312  0.71401940  0.63328979  1
  C  C222  1  0.00106242  0.28677538  0.13291893  1
  C  C223  1  0.00036326  0.61876059  0.13369035  1
  C  C224  1  -0.00266099  0.95256820  0.13374516  1
  C  C225  1  0.50140134  0.28693922  0.13529765  1
  C  C226  1  0.50143245  0.61973841  0.13389090  1
  C  C227  1  0.49931370  0.95080938  0.13200293  1
  C  C228  1  0.00125608  0.04697776  0.86739415  1
  C  C229  1  -0.00184946  0.38151420  0.86674035  1
  C  C230  1  0.00061430  0.71374289  0.86620996  1
  C  C231  1  0.50137914  0.04865130  0.86819093  1
  C  C232  1  0.50176614  0.38116470  0.86627147  1
  C  C233  1  0.50211025  0.71376029  0.86699721  1
  C  C234  1  0.00171876  0.28568055  0.36699564  1
  C  C235  1  -0.00362373  0.61939269  0.36619634  1
  C  C236  1  0.00021795  0.95260240  0.36847095  1
  C  C237  1  0.50105930  0.28639636  0.36591881  1
  C  C238  1  0.49686283  0.61995562  0.36624421  1
  C  C239  1  0.50144936  0.95271508  0.36561200  1
  C  C240  1  0.24852207  0.21325665  0.63282166  1
  C  C241  1  0.25307364  0.54682737  0.63431907  1
  C  C242  1  0.24740895  0.88067568  0.63285648  1
  C  C243  1  0.74935641  0.21384522  0.63318291  1
  C  C244  1  0.75242191  0.54759025  0.63223486  1
  C  C245  1  0.74988379  0.88110507  0.63287694  1
  C  C246  1  0.24754449  0.11861728  0.13297102  1
  C  C247  1  0.24770344  0.45370197  0.13388342  1
  C  C248  1  0.25010064  0.78616872  0.13518149  1
  C  C249  1  0.74827308  0.11855696  0.13215548  1
  C  C250  1  0.74946784  0.45238235  0.13124586  1
  C  C251  1  0.74870880  0.78648563  0.13272192  1
  C  C252  1  0.24839491  0.21312249  0.86650655  1
  C  C253  1  0.24799632  0.54730507  0.86679509  1
  C  C254  1  0.25010665  0.88049006  0.86638381  1
  C  C255  1  0.74968436  0.21386816  0.86509809  1
  C  C256  1  0.74795048  0.54685365  0.86567108  1
  C  C257  1  0.75153428  0.88076496  0.86769730  1
  C  C258  1  0.24822814  0.11924339  0.36806499  1
  C  C259  1  0.25283967  0.45332696  0.36541189  1
  C  C260  1  0.24861499  0.78597304  0.36733186  1
  C  C261  1  0.74767462  0.11938222  0.36693984  1
  C  C262  1  0.75220583  0.45252805  0.36798577  1
  C  C263  1  0.74861232  0.78662891  0.36764962  1
  C  C264  1  0.19881424  0.23694505  0.54133095  1
  C  C265  1  0.21927793  0.09335636  0.46329439  1
  C  C266  1  0.05299206  0.73990415  0.54122747  1
  C  C267  1  0.70711258  0.42796288  0.03814296  1
  C  C268  1  0.77877353  0.57002228  0.96235848  1
  C  C269  1  0.28561762  0.90552443  0.53855135  1
  C  C270  1  0.54025750  0.26144846  0.04153115  1
  C  C271  1  0.69675250  0.57010097  0.95736575  1
  C  C272  1  0.21737808  0.57457770  0.96096900  1
  C  C273  1  0.05106295  0.73756358  0.95712516  1
  C  C274  1  0.28030508  0.23850278  0.53649145  1
  C  C275  1  0.77614427  0.09394391  0.46320660  1
  C  C276  1  0.69598519  0.76045381  0.04196632  1
  C  C277  1  0.68866522  0.09409836  0.04328800  1
  C  C278  1  0.28479291  0.76088700  0.04143166  1
  C  C279  1  0.22306044  0.57131474  0.53778922  1
  C  C280  1  0.46644618  0.59556286  0.03789929  1
  C  C281  1  0.02730593  0.59579593  0.46313942  1
  C  C282  1  0.53339500  0.73985205  0.96174544  1
  C  C283  1  0.78930003  0.42740291  0.03754572  1
  C  C284  1  0.80860343  0.42813831  0.45807804  1
  C  C285  1  0.52168713  0.59454766  0.46380671  1
  C  C286  1  0.97019847  0.07041993  0.53649910  1
  C  C287  1  0.05156243  0.06992135  0.54131964  1
  C  C288  1  0.69361527  0.76117787  0.45773473  1
  C  C289  1  0.54571915  0.07458922  0.53806373  1
  C  C290  1  0.03388311  0.40641983  0.53869848  1
  C  C291  1  0.03025342  0.92872326  0.03720059  1
  C  C292  1  0.97390585  0.92538948  0.46369219  1
  C  C293  1  0.94873689  0.92887525  0.04186030  1
  C  C294  1  0.79289685  0.24024046  0.54163440  1
  C  C295  1  0.05913085  0.25999245  0.04461375  1
  C  C296  1  0.54073228  0.73906420  0.54052310  1
  C  C297  1  0.94586955  0.59644210  0.45788830  1
  C  C298  1  0.05236796  0.07272459  0.95879510  1
  C  C299  1  0.19455754  0.23829174  0.95619356  1
  C  C300  1  0.71408859  0.90671448  0.53932661  1
  C  C301  1  0.96469960  0.25968440  0.46127242  1
  C  C302  1  0.44074093  0.59627614  0.45548638  1
  C  C303  1  0.52757884  0.40435806  0.53949702  1
  C  C304  1  0.71098757  0.23825154  0.95930569  1
  C  C305  1  0.21167822  0.75913856  0.46014834  1
  C  C306  1  0.21969071  0.09217210  0.03764646  1
  C  C307  1  0.80307464  0.57339974  0.54061648  1
  C  C308  1  0.30490211  0.57045961  0.54285206  1
  C  C309  1  0.78046866  0.90892417  0.96225388  1
  C  C310  1  0.54819995  0.59614908  0.04134039  1
  C  C311  1  0.46802497  0.40726237  0.96119286  1
  N  N312  1  0.29694278  0.09449295  0.46083214  1
  N  N313  1  0.45910804  0.26112873  0.45913498  1
  N  N314  1  0.95406896  0.40566311  0.54124004  1
  N  N315  1  0.22719266  0.90772820  0.96015729  1
  N  N316  1  0.70283143  0.90668487  0.96013937  1
  N  N317  1  0.98059878  0.25914659  0.03769769  1
  N  N318  1  0.79149954  0.90635615  0.53844166  1
  N  N319  1  0.46623886  0.07468570  0.53806345  1
  N  N320  1  0.20583792  0.90599158  0.54082564  1
  N  N321  1  0.95840986  0.40470413  0.95833170  1
  N  N322  1  0.29182321  0.42836365  0.04100831  1
  N  N323  1  0.03678903  0.40599987  0.96123018  1
  N  N324  1  0.53559048  0.92731463  0.46059963  1
  N  N325  1  0.54759759  0.40480982  0.95748005  1
  N  N326  1  0.72408867  0.57354161  0.53782475  1
  N  N327  1  0.54066168  0.93366241  0.03832193  1
  N  N328  1  0.27410419  0.24108562  0.96113560  1
  N  N329  1  0.28603119  0.42818098  0.46078770  1
  N  N330  1  0.71540416  0.24080906  0.53738637  1
  N  N331  1  0.45903810  0.92839874  0.45895587  1
  N  N332  1  0.72964767  0.42626351  0.46344685  1
  N  N333  1  0.05125190  0.92694463  0.46013552  1
  N  N334  1  0.29501653  0.57332767  0.95957593  1
  N  N335  1  0.97309143  0.59529198  0.03959725  1
  N  N336  1  0.69693103  0.09524907  0.45656532  1
  N  N337  1  0.46485511  0.06938855  0.96210311  1
  N  N338  1  0.79031378  0.23844082  0.95726138  1
  N  N339  1  0.20535992  0.76202427  0.04141405  1
  N  N340  1  0.45580553  0.73885172  0.96035118  1
  N  N341  1  0.30519426  0.90418660  0.95615164  1
  N  N342  1  0.05102642  0.59568630  0.04231942  1
  N  N343  1  0.77257850  0.75988520  0.46255528  1
  N  N344  1  0.54391292  0.06642506  0.96154975  1
  N  N345  1  0.46085067  0.25897013  0.04397613  1
  N  N346  1  0.46135604  0.93236315  0.03788821  1
  N  N347  1  0.46142300  0.73907001  0.53840177  1
  N  N348  1  0.44845920  0.40499153  0.54242074  1
  N  N349  1  0.53565231  0.26081611  0.46072730  1
  N  N350  1  0.04446892  0.26074567  0.45874831  1
  N  N351  1  0.21353667  0.42709428  0.04203717  1
  N  N352  1  0.97416769  0.74024372  0.53775374  1
  N  N353  1  0.29736444  0.09385642  0.04049937  1
  N  N354  1  0.97161434  0.74032636  0.96048676  1
  N  N355  1  0.76742967  0.09204724  0.03631624  1
  N  N356  1  0.97352985  0.07247400  0.96208463  1
  N  N357  1  0.20946135  0.42848938  0.45843355  1
  N  N358  1  0.77475165  0.76041525  0.03793330  1
  N  N359  1  0.28899575  0.75939449  0.46156124  1
  N  N360  1  0.07055817  0.05608652  0.59982439  1
  N  N361  1  0.06086983  0.39089201  0.59572191  1
  N  N362  1  0.06993615  0.72379442  0.59978578  1
  N  N363  1  0.56727336  0.05778551  0.59572480  1
  N  N364  1  0.55973709  0.38955222  0.59569711  1
  N  N365  1  0.56645881  0.72366042  0.59852292  1
  N  N366  1  0.43689135  0.27824031  0.10086285  1
  N  N367  1  0.43870726  0.61035920  0.09672202  1
  N  N368  1  0.43598549  0.94227602  0.09587051  1
  N  N369  1  0.94359945  0.27804598  0.09163241  1
  N  N370  1  0.94033959  0.60830726  0.09502136  1
  N  N371  1  0.92944959  0.94317851  0.10017315  1
  N  N372  1  0.43848250  0.05813644  0.90468287  1
  N  N373  1  0.43915200  0.39181738  0.90464387  1
  N  N374  1  0.43626611  0.72243882  0.89990986  1
  N  N375  1  0.94087221  0.05560005  0.90629049  1
  N  N376  1  0.93360824  0.39089347  0.90111666  1
  N  N377  1  0.94036835  0.72425219  0.90466335  1
  N  N378  1  0.06685582  0.27651949  0.40067550  1
  N  N379  1  0.05780571  0.61011760  0.40489867  1
  N  N380  1  0.06771813  0.94426751  0.39937264  1
  N  N381  1  0.56302835  0.27623865  0.40306714  1
  N  N382  1  0.55576383  0.60940449  0.40662718  1
  N  N383  1  0.56325682  0.94220714  0.40292397  1
  N  N384  1  0.31016223  0.22341999  0.59471427  1
  N  N385  1  0.32161039  0.55516808  0.60309260  1
  N  N386  1  0.31156612  0.89018965  0.59582432  1
  N  N387  1  0.81621922  0.22384142  0.59943506  1
  N  N388  1  0.82078051  0.55735930  0.59915009  1
  N  N389  1  0.81404404  0.89039415  0.59813841  1
  N  N390  1  0.18672344  0.10734629  0.09302269  1
  N  N391  1  0.18508447  0.44352426  0.09774999  1
  N  N392  1  0.18540243  0.77778646  0.10042138  1
  N  N393  1  0.67704637  0.11044919  0.10278315  1
  N  N394  1  0.68397234  0.44311076  0.09574473  1
  N  N395  1  0.67975230  0.77610236  0.10077569  1
  N  N396  1  0.17889774  0.22259806  0.89703115  1
  N  N397  1  0.18587951  0.55873933  0.90541115  1
  N  N398  1  0.19194567  0.89135996  0.90659649  1
  N  N399  1  0.68500327  0.22325516  0.90206462  1
  N  N400  1  0.67957475  0.55564670  0.89702830  1
  N  N401  1  0.68484519  0.88901852  0.89972981  1
  N  N402  1  0.31489512  0.11096974  0.40006309  1
  N  N403  1  0.31428621  0.44335847  0.40322870  1
  N  N404  1  0.31232467  0.77625966  0.40246996  1
  N  N405  1  0.80805125  0.10866174  0.40749718  1
  N  N406  1  0.82238326  0.44438680  0.39879449  1
  N  N407  1  0.80741636  0.77708095  0.40753028  1
  N  N408  1  0.43634822  0.27701389  0.40039877  1
  N  N409  1  0.42621625  0.61160950  0.39655793  1
  N  N410  1  0.43666732  0.94407107  0.40009552  1
  N  N411  1  0.93794867  0.27533071  0.40414666  1
  N  N412  1  0.92785286  0.61055409  0.39910415  1
  N  N413  1  0.94007828  0.94085894  0.40881483  1
  N  N414  1  0.06973653  0.05732515  0.90006355  1
  N  N415  1  0.06067149  0.39110416  0.90393057  1
  N  N416  1  0.06924419  0.72194588  0.89844586  1
  N  N417  1  0.56636072  0.05740204  0.90259912  1
  N  N418  1  0.56800016  0.38951336  0.89888167  1
  N  N419  1  0.56428721  0.72469909  0.90564842  1
  N  N420  1  0.07190666  0.27620914  0.10380213  1
  N  N421  1  0.06755232  0.61059026  0.10110982  1
  N  N422  1  0.05966425  0.94357962  0.09579739  1
  N  N423  1  0.56605804  0.27700598  0.09858491  1
  N  N424  1  0.56879169  0.61064164  0.09954899  1
  N  N425  1  0.56368131  0.94138419  0.09730105  1
  N  N426  1  0.43846810  0.05763105  0.59537674  1
  N  N427  1  0.43189451  0.38953350  0.60175514  1
  N  N428  1  0.43848748  0.72341344  0.59638036  1
  N  N429  1  0.94053037  0.05611505  0.59511020  1
  N  N430  1  0.93205792  0.39019193  0.59951299  1
  N  N431  1  0.94110137  0.72325270  0.59345879  1
  N  N432  1  0.18701590  0.10823449  0.40763185  1
  N  N433  1  0.18781222  0.44409513  0.39938197  1
  N  N434  1  0.18387746  0.77534848  0.40342992  1
  N  N435  1  0.67989908  0.11121603  0.39748710  1
  N  N436  1  0.69399912  0.44163126  0.40795764  1
  N  N437  1  0.67884349  0.77694575  0.39873342  1
  N  N438  1  0.30731180  0.22222518  0.90653950  1
  N  N439  1  0.31406713  0.55605398  0.89944459  1
  N  N440  1  0.31842208  0.88891059  0.89706072  1
  N  N441  1  0.81423497  0.22324910  0.89930029  1
  N  N442  1  0.80931609  0.55581098  0.90480592  1
  N  N443  1  0.81279143  0.89313892  0.90689759  1
  N  N444  1  0.31457982  0.11028636  0.10140831  1
  N  N445  1  0.31224300  0.44386049  0.09884898  1
  N  N446  1  0.31349287  0.77571966  0.09849261  1
  N  N447  1  0.80501960  0.10736110  0.09102679  1
  N  N448  1  0.81382417  0.44228329  0.09486870  1
  N  N449  1  0.80851385  0.77791641  0.09327839  1
  N  N450  1  0.18024435  0.22174665  0.59975244  1
  N  N451  1  0.19198656  0.55674064  0.59514340  1
  N  N452  1  0.18275502  0.89100574  0.59898671  1
  N  N453  1  0.68807699  0.22434331  0.59584785  1
  N  N454  1  0.69175894  0.55737489  0.59399299  1
  N  N455  1  0.68570033  0.89136430  0.59607084  1
  Cl  Cl456  1  0.25469238  0.05127673  0.61829478  1
  Cl  Cl457  1  0.24526430  0.38377665  0.62322596  1
  Cl  Cl458  1  0.25285297  0.71948743  0.62030611  1
  Cl  Cl459  1  0.75192117  0.05455008  0.61507945  1
  Cl  Cl460  1  0.74604319  0.39002302  0.60674336  1
  Cl  Cl461  1  0.75663030  0.72220417  0.60812665  1
  Cl  Cl462  1  0.25601420  0.27543617  0.10693093  1
  Cl  Cl463  1  0.25094931  0.61405492  0.11975756  1
  Cl  Cl464  1  0.24879837  0.94572005  0.11200280  1
  Cl  Cl465  1  0.75748647  0.27543649  0.10471294  1
  Cl  Cl466  1  0.75648697  0.61477474  0.11655853  1
  Cl  Cl467  1  0.74566075  0.95072865  0.11878447  1
  Cl  Cl468  1  0.25405770  0.05192818  0.88347816  1
  Cl  Cl469  1  0.24671212  0.38721349  0.88942821  1
  Cl  Cl470  1  0.25219908  0.71807764  0.88328723  1
  Cl  Cl471  1  0.75517679  0.05649084  0.89399298  1
  Cl  Cl472  1  0.75113508  0.38373439  0.87855011  1
  Cl  Cl473  1  0.75632885  0.72543943  0.89095233  1
  Cl  Cl474  1  0.25082292  0.27899283  0.38045609  1
  Cl  Cl475  1  0.24200067  0.61498650  0.38378840  1
  Cl  Cl476  1  0.25175874  0.94569812  0.38517228  1
  Cl  Cl477  1  0.75063344  0.28384348  0.37833703  1
  Cl  Cl478  1  0.74089307  0.61266926  0.38817665  1
  Cl  Cl479  1  0.75024098  0.94853812  0.38416752  1
  Cl  Cl480  1  -0.00184717  0.22051675  0.61681086  1
  Cl  Cl481  1  0.00536420  0.55222181  0.61964221  1
  Cl  Cl482  1  -0.00079456  0.88308473  0.61877388  1
  Cl  Cl483  1  0.50140262  0.21539920  0.62270212  1
  Cl  Cl484  1  0.50906378  0.55309904  0.61508818  1
  Cl  Cl485  1  0.49902155  0.88561419  0.62481646  1
  Cl  Cl486  1  -0.00859302  0.11022763  0.10466781  1
  Cl  Cl487  1  0.00024606  0.44564095  0.11581745  1
  Cl  Cl488  1  -0.00657545  0.77597171  0.10637355  1
  Cl  Cl489  1  0.49722302  0.11094055  0.10926695  1
  Cl  Cl490  1  0.49738304  0.44472730  0.11442824  1
  Cl  Cl491  1  0.49780249  0.78429382  0.11883155  1
  Cl  Cl492  1  -0.00581892  0.22156698  0.89326620  1
  Cl  Cl493  1  -0.00530373  0.55509369  0.88991965  1
  Cl  Cl494  1  0.00550624  0.88756381  0.88704210  1
  Cl  Cl495  1  0.49359776  0.22282449  0.89591140  1
  Cl  Cl496  1  0.49735824  0.55025022  0.88025256  1
  Cl  Cl497  1  0.50070253  0.88984863  0.89239392  1
  Cl  Cl498  1  -0.00405803  0.11409909  0.38153028  1
  Cl  Cl499  1  0.00380459  0.44485961  0.38586746  1
  Cl  Cl500  1  -0.00768101  0.77689627  0.39040815  1
  Cl  Cl501  1  0.49820801  0.11122010  0.38364754  1
  Cl  Cl502  1  0.50677195  0.44625651  0.38507041  1
  Cl  Cl503  1  0.49750363  0.77873173  0.38316876  1
  Cl  Cl504  1  0.36292558  0.14322346  0.75238191  1
  Cl  Cl505  1  0.36335178  0.47468907  0.75027347  1
  Cl  Cl506  1  0.36278818  0.81054431  0.75288242  1
  Cl  Cl507  1  0.86200237  0.14304868  0.75193595  1
  Cl  Cl508  1  0.86301853  0.47568936  0.74805515  1
  Cl  Cl509  1  0.86223865  0.80852966  0.74959137  1
  Cl  Cl510  1  0.13860255  0.19211013  0.24857581  1
  Cl  Cl511  1  0.13536998  0.52349589  0.24937520  1
  Cl  Cl512  1  0.13749276  0.85757385  0.24875190  1
  Cl  Cl513  1  0.63660059  0.19025864  0.24720669  1
  Cl  Cl514  1  0.64076025  0.52498473  0.24807161  1
  Cl  Cl515  1  0.63716074  0.85739649  0.24950763  1
  Cl  Cl516  1  0.13638964  0.14304799  0.75062043  1
  Cl  Cl517  1  0.13652064  0.47534391  0.75158146  1
  Cl  Cl518  1  0.13824492  0.80873342  0.74984225  1
  Cl  Cl519  1  0.63922561  0.14160421  0.75299172  1
  Cl  Cl520  1  0.63972403  0.47462283  0.75182567  1
  Cl  Cl521  1  0.63925160  0.80852475  0.75212364  1
  Cl  Cl522  1  0.36329525  0.19075038  0.24703554  1
  Cl  Cl523  1  0.36165716  0.52359399  0.24984247  1
  Cl  Cl524  1  0.36284820  0.85822229  0.25079218  1
  Cl  Cl525  1  0.86039721  0.19032662  0.24980660  1
  Cl  Cl526  1  0.86367886  0.52326743  0.25193445  1
  Cl  Cl527  1  0.86240452  0.85775417  0.24823878  1
  Cl  Cl528  1  0.10884582  0.30851005  0.75150798  1
  Cl  Cl529  1  0.11219562  0.64309163  0.74995846  1
  Cl  Cl530  1  0.11287751  0.97587361  0.74977168  1
  Cl  Cl531  1  0.61385145  0.30956988  0.75383081  1
  Cl  Cl532  1  0.61450161  0.64280817  0.75016739  1
  Cl  Cl533  1  0.61298927  0.97793273  0.75289730  1
  Cl  Cl534  1  0.38861846  0.02435678  0.24825256  1
  Cl  Cl535  1  0.38818296  0.35800573  0.24775147  1
  Cl  Cl536  1  0.38615640  0.69015147  0.25183790  1
  Cl  Cl537  1  0.88739811  0.02477842  0.24797528  1
  Cl  Cl538  1  0.88778766  0.35585256  0.25060861  1
  Cl  Cl539  1  0.88928096  0.69203828  0.25211890  1
  Cl  Cl540  1  0.38903856  0.30912457  0.75159746  1
  Cl  Cl541  1  0.38869477  0.64169856  0.75019170  1
  Cl  Cl542  1  0.38870087  0.97609039  0.75238071  1
  Cl  Cl543  1  0.88922482  0.30867593  0.75106622  1
  Cl  Cl544  1  0.88705698  0.64259370  0.75084601  1
  Cl  Cl545  1  0.88721697  0.97593678  0.75067527  1
  Cl  Cl546  1  0.11175840  0.02468575  0.25090418  1
  Cl  Cl547  1  0.11263117  0.35626960  0.24846248  1
  Cl  Cl548  1  0.11006303  0.69192545  0.24665322  1
  Cl  Cl549  1  0.61194695  0.02514864  0.24786995  1
  Cl  Cl550  1  0.61247333  0.35696272  0.24782403  1
  Cl  Cl551  1  0.61433330  0.69068520  0.24808246  1
