# generated using pymatgen
data_H8PbC4(N3Cl2)2
_symmetry_space_group_name_H-M   'P 1'
_cell_length_a   16.62487857
_cell_length_b   22.50845123
_cell_length_c   21.59037907
_cell_angle_alpha   90.00186795
_cell_angle_beta   89.99979159
_cell_angle_gamma   89.99850189
_symmetry_Int_Tables_number   1
_chemical_formula_structural   H8PbC4(N3Cl2)2
_chemical_formula_sum   'H192 Pb24 C96 N144 Cl96'
_cell_volume   8079.12563769
_cell_formula_units_Z   24
loop_
 _symmetry_equiv_pos_site_id
 _symmetry_equiv_pos_as_xyz
  1  'x, y, z'
loop_
 _atom_site_type_symbol
 _atom_site_label
 _atom_site_symmetry_multiplicity
 _atom_site_fract_x
 _atom_site_fract_y
 _atom_site_fract_z
 _atom_site_occupancy
  H  H0  1  0.00434616  0.02959666  0.68076264  1
  H  H1  1  0.00102945  0.36445622  0.67260961  1
  H  H2  1  0.00266559  0.69661736  0.67747157  1
  H  H3  1  0.50442600  0.03028229  0.67604586  1
  H  H4  1  0.49951188  0.36295786  0.67592353  1
  H  H5  1  0.49100939  0.69861216  0.67911258  1
  H  H6  1  0.01015486  0.30432707  0.18286614  1
  H  H7  1  0.00983480  0.63485743  0.17897398  1
  H  H8  1  0.01508917  0.96899567  0.17968480  1
  H  H9  1  0.48916523  0.30233399  0.17717607  1
  H  H10  1  0.48805309  0.63402625  0.17479098  1
  H  H11  1  0.48491258  0.96714368  0.18051827  1
  H  H12  1  0.00275542  0.03207604  0.81957802  1
  H  H13  1  0.00960150  0.36676348  0.81929876  1
  H  H14  1  0.01074351  0.70081108  0.82193453  1
  H  H15  1  0.49534403  0.03277905  0.81896440  1
  H  H16  1  0.49595688  0.36635969  0.81881535  1
  H  H17  1  0.48465582  0.69511689  0.81950940  1
  H  H18  1  -0.00407939  0.30492550  0.32363379  1
  H  H19  1  -0.01002258  0.63909803  0.32370721  1
  H  H20  1  0.00150094  0.97078328  0.31777051  1
  H  H21  1  0.50395547  0.30312690  0.32132172  1
  H  H22  1  0.50613353  0.63406253  0.31978751  1
  H  H23  1  0.50467365  0.96839874  0.32268379  1
  H  H24  1  0.24100681  0.19928703  0.67774489  1
  H  H25  1  0.24993743  0.52916289  0.67603077  1
  H  H26  1  0.24856732  0.86252762  0.67584003  1
  H  H27  1  0.75080281  0.19789407  0.68069557  1
  H  H28  1  0.74920481  0.52749974  0.68184754  1
  H  H29  1  0.73805910  0.86477299  0.67558047  1
  H  H30  1  0.25952285  0.13480566  0.17905152  1
  H  H31  1  0.23950871  0.46600459  0.17691294  1
  H  H32  1  0.25731956  0.80265746  0.18231367  1
  H  H33  1  0.74963698  0.13484535  0.18121970  1
  H  H34  1  0.75392020  0.47123162  0.18025794  1
  H  H35  1  0.74621143  0.80306800  0.17747083  1
  H  H36  1  0.24039824  0.20048571  0.81581724  1
  H  H37  1  0.24157512  0.52814035  0.82189773  1
  H  H38  1  0.24697521  0.86541064  0.81903235  1
  H  H39  1  0.75861045  0.19830668  0.82335372  1
  H  H40  1  0.75548073  0.53128584  0.82058998  1
  H  H41  1  0.75115027  0.86338707  0.82392416  1
  H  H42  1  0.24661220  0.13664473  0.32070470  1
  H  H43  1  0.24047703  0.47013880  0.32409747  1
  H  H44  1  0.24977210  0.80060935  0.32483479  1
  H  H45  1  0.74667297  0.13828660  0.31879927  1
  H  H46  1  0.76067884  0.46627431  0.32231844  1
  H  H47  1  0.75087263  0.80457468  0.32037308  1
  H  H48  1  0.11205624  0.05628750  0.60021797  1
  H  H49  1  0.12442402  0.38657812  0.60372165  1
  H  H50  1  0.12682138  0.72074655  0.60746162  1
  H  H51  1  0.61127077  0.05719222  0.59275574  1
  H  H52  1  0.62154263  0.38717678  0.60494549  1
  H  H53  1  0.62322806  0.71968596  0.61489755  1
  H  H54  1  0.38568572  0.27616929  0.09118273  1
  H  H55  1  0.37962199  0.60377401  0.09382429  1
  H  H56  1  0.38149305  0.93982339  0.09521250  1
  H  H57  1  0.88183593  0.27817864  0.11845002  1
  H  H58  1  0.87148143  0.61625708  0.12426447  1
  H  H59  1  0.87520449  0.94997435  0.12764321  1
  H  H60  1  0.38405110  0.05682037  0.89957796  1
  H  H61  1  0.37208490  0.38829977  0.88799544  1
  H  H62  1  0.37673285  0.72283408  0.90323250  1
  H  H63  1  0.88018576  0.05434875  0.89088324  1
  H  H64  1  0.87428566  0.38656730  0.88241075  1
  H  H65  1  0.86751070  0.71505469  0.87040545  1
  H  H66  1  0.12334074  0.28168023  0.39176418  1
  H  H67  1  0.12826321  0.61753546  0.37891624  1
  H  H68  1  0.11807643  0.94369531  0.39573822  1
  H  H69  1  0.61966778  0.27633968  0.39916017  1
  H  H70  1  0.61742477  0.61105687  0.39916071  1
  H  H71  1  0.61224538  0.94131264  0.40651954  1
  H  H72  1  0.37389140  0.21841524  0.61880677  1
  H  H73  1  0.37514687  0.55414063  0.60752777  1
  H  H74  1  0.38284631  0.88604408  0.61561648  1
  H  H75  1  0.87546201  0.22166756  0.60848588  1
  H  H76  1  0.87397567  0.55332209  0.61145205  1
  H  H77  1  0.87893287  0.88081837  0.62581565  1
  H  H78  1  0.12104553  0.11595200  0.12405515  1
  H  H79  1  0.13057412  0.44219320  0.09658549  1
  H  H80  1  0.12720941  0.78101296  0.11850427  1
  H  H81  1  0.61848377  0.11326270  0.11468654  1
  H  H82  1  0.62808301  0.44814703  0.11192674  1
  H  H83  1  0.63379912  0.77324176  0.09794871  1
  H  H84  1  0.12169858  0.22034039  0.89100638  1
  H  H85  1  0.13032473  0.55588679  0.90293899  1
  H  H86  1  0.12644764  0.88797035  0.89270448  1
  H  H87  1  0.62043097  0.21776866  0.87992561  1
  H  H88  1  0.62473752  0.55249648  0.88514831  1
  H  H89  1  0.62520688  0.88803849  0.89266345  1
  H  H90  1  0.38266978  0.11364520  0.37932707  1
  H  H91  1  0.37864323  0.45139462  0.37916912  1
  H  H92  1  0.37464444  0.77852434  0.39206698  1
  H  H93  1  0.88211171  0.11909176  0.37632681  1
  H  H94  1  0.87377554  0.44074106  0.40285067  1
  H  H95  1  0.87248796  0.77967209  0.39433441  1
  H  H96  1  0.37152086  0.28082785  0.38324552  1
  H  H97  1  0.37006129  0.61843132  0.37899465  1
  H  H98  1  0.36657248  0.94652838  0.37704014  1
  H  H99  1  0.87438768  0.28018287  0.39603241  1
  H  H100  1  0.88287105  0.60895970  0.40779780  1
  H  H101  1  0.86993295  0.94786653  0.38428483  1
  H  H102  1  0.12977369  0.05379473  0.88919535  1
  H  H103  1  0.12168240  0.39185845  0.90106789  1
  H  H104  1  0.11120799  0.72545672  0.90828292  1
  H  H105  1  0.63208131  0.05050319  0.87852798  1
  H  H106  1  0.62136756  0.38741305  0.88848599  1
  H  H107  1  0.62317369  0.71727955  0.87283197  1
  H  H108  1  0.13029322  0.28309421  0.10649019  1
  H  H109  1  0.11790846  0.60530049  0.09626610  1
  H  H110  1  0.12028693  0.94059319  0.09426720  1
  H  H111  1  0.63006482  0.28399923  0.12580515  1
  H  H112  1  0.62555819  0.61456424  0.11856370  1
  H  H113  1  0.62657637  0.94866021  0.12672354  1
  H  H114  1  0.36531776  0.05156951  0.62255730  1
  H  H115  1  0.37240298  0.38712985  0.60853755  1
  H  H116  1  0.37501315  0.72215762  0.60195323  1
  H  H117  1  0.86539705  0.04775633  0.62576740  1
  H  H118  1  0.87537395  0.38661375  0.60576754  1
  H  H119  1  0.87771832  0.72222252  0.60743728  1
  H  H120  1  0.13485055  0.11344299  0.40106325  1
  H  H121  1  0.13346305  0.44082152  0.40785563  1
  H  H122  1  0.12576403  0.77980300  0.39370255  1
  H  H123  1  0.63452431  0.11165244  0.39721863  1
  H  H124  1  0.62605383  0.44616219  0.38526729  1
  H  H125  1  0.62312896  0.78210317  0.38806758  1
  H  H126  1  0.37060881  0.22082693  0.87948873  1
  H  H127  1  0.37756737  0.55026013  0.87968362  1
  H  H128  1  0.37449775  0.88729220  0.88608665  1
  H  H129  1  0.86601672  0.22531604  0.90658416  1
  H  H130  1  0.87282194  0.55841289  0.89627983  1
  H  H131  1  0.87389342  0.89013900  0.89393269  1
  H  H132  1  0.36492663  0.10776409  0.09335879  1
  H  H133  1  0.37649999  0.45034599  0.12114759  1
  H  H134  1  0.37615286  0.77411681  0.10723023  1
  H  H135  1  0.86633689  0.11007029  0.10317041  1
  H  H136  1  0.87799986  0.44508394  0.10965099  1
  H  H137  1  0.88021644  0.78111168  0.11549041  1
  H  H138  1  0.12638639  0.22353667  0.60017288  1
  H  H139  1  0.12649023  0.55465215  0.60477122  1
  H  H140  1  0.13531293  0.88523892  0.59575284  1
  H  H141  1  0.62644421  0.22035738  0.60795045  1
  H  H142  1  0.62436179  0.55318176  0.61349878  1
  H  H143  1  0.63497441  0.89162419  0.59069047  1
  H  H144  1  0.07000405  0.27852755  -0.00018590  1
  H  H145  1  0.60093775  0.58371883  0.00951260  1
  H  H146  1  0.86583431  0.91291920  0.51118365  1
  H  H147  1  0.60239245  0.74956355  0.98514877  1
  H  H148  1  0.08605778  0.08373643  0.99406887  1
  H  H149  1  0.60413874  0.08080963  0.98609176  1
  H  H150  1  0.89277519  0.58580423  0.01102948  1
  H  H151  1  0.41259692  0.41783431  0.99914639  1
  H  H152  1  0.33496818  0.25021566  0.99232922  1
  H  H153  1  0.66973582  0.41795692  0.00213166  1
  H  H154  1  0.28726882  0.08337506  -0.00601138  1
  H  H155  1  0.69807393  0.08301428  0.50445129  1
  H  H156  1  0.32299576  0.93674316  0.98112662  1
  H  H157  1  0.31723571  0.75557674  0.00146089  1
  H  H158  1  0.18674967  0.89531270  0.99856061  1
  H  H159  1  0.20158699  0.57862679  1.00575008  1
  H  H160  1  0.04679975  0.58386258  -0.00501779  1
  H  H161  1  0.20345151  0.92176926  0.49769137  1
  H  H162  1  0.96069494  0.58471594  0.50674836  1
  H  H163  1  0.35358372  0.90795808  0.50565925  1
  H  H164  1  0.35725233  0.08780786  0.48958203  1
  H  H165  1  0.67119393  0.91718637  0.99821065  1
  H  H166  1  0.86057302  0.08709659  0.49006889  1
  H  H167  1  0.16475276  0.75026976  0.00640528  1
  H  H168  1  0.64331494  0.25095052  0.98813636  1
  H  H169  1  0.89032101  0.92014729  0.01426766  1
  H  H170  1  0.03342793  0.75097154  1.01237437  1
  H  H171  1  0.82262373  0.57027557  0.50340608  1
  H  H172  1  0.04300713  0.08700405  0.49389770  1
  H  H173  1  0.46350119  0.25263951  -0.00877301  1
  H  H174  1  0.67106280  0.58193455  0.50235431  1
  H  H175  1  0.04464110  0.92038377  -0.00592904  1
  H  H176  1  0.44914986  0.08456621  1.00594675  1
  H  H177  1  0.45800006  0.91251389  -0.00699917  1
  H  H178  1  0.92068828  0.25327714  0.00556231  1
  H  H179  1  0.92855368  0.08365951  1.00084175  1
  H  H180  1  0.85076466  0.74942441  0.00680991  1
  H  H181  1  0.66705052  0.75341850  0.49776583  1
  H  H182  1  0.20069217  0.08713007  0.50842422  1
  H  H183  1  0.34756589  0.24942886  0.50410087  1
  H  H184  1  0.41406206  0.41700788  0.50290185  1
  H  H185  1  0.17641633  0.23827200  1.00335858  1
  H  H186  1  0.79009247  0.23669049  1.00814705  1
  H  H187  1  0.53847999  0.08318829  0.49236335  1
  H  H188  1  0.65999007  0.41671496  0.49070511  1
  H  H189  1  0.82976062  0.41952627  0.00447538  1
  H  H190  1  0.45068741  0.74116724  1.00467885  1
  H  H191  1  0.55349946  0.58769092  0.50888031  1
  Pb  Pb192  1  0.24967491  0.04951172  0.75099662  1
  Pb  Pb193  1  0.24876363  0.37934212  0.75278904  1
  Pb  Pb194  1  0.25465802  0.71461766  0.75865803  1
  Pb  Pb195  1  0.74809022  0.04448256  0.74749006  1
  Pb  Pb196  1  0.75348837  0.38250900  0.75069724  1
  Pb  Pb197  1  0.74977872  0.71371205  0.74377026  1
  Pb  Pb198  1  0.25078477  0.28769448  0.24343831  1
  Pb  Pb199  1  0.25031776  0.61955117  0.23599549  1
  Pb  Pb200  1  0.24764619  0.94757691  0.24540674  1
  Pb  Pb201  1  0.75142037  0.28640817  0.24902097  1
  Pb  Pb202  1  0.74996579  0.61654587  0.26336616  1
  Pb  Pb203  1  0.74883995  0.95441560  0.25328748  1
  Pb  Pb204  1  -0.00581684  0.21503855  0.75488641  1
  Pb  Pb205  1  0.00524836  0.54981357  0.75217016  1
  Pb  Pb206  1  0.00290380  0.87896512  0.75503988  1
  Pb  Pb207  1  0.50330573  0.21566043  0.75227434  1
  Pb  Pb208  1  0.50029491  0.54589567  0.75050989  1
  Pb  Pb209  1  0.50239135  0.88001677  0.74905965  1
  Pb  Pb210  1  0.00122183  0.12062065  0.24781989  1
  Pb  Pb211  1  0.00190601  0.45346019  0.25442221  1
  Pb  Pb212  1  -0.00460453  0.78383160  0.25243161  1
  Pb  Pb213  1  0.49874065  0.11956710  0.24931779  1
  Pb  Pb214  1  0.50080715  0.45344387  0.25231734  1
  Pb  Pb215  1  0.50536227  0.78403675  0.24238755  1
  C  C216  1  -0.00594899  0.04453679  0.63368529  1
  C  C217  1  0.00019342  0.37967873  0.62475671  1
  C  C218  1  0.00216395  0.71293891  0.63041305  1
  C  C219  1  0.49379546  0.04540222  0.62901236  1
  C  C220  1  0.49744275  0.37902787  0.62861491  1
  C  C221  1  0.49682080  0.71346085  0.63170433  1
  C  C222  1  0.00807095  0.28960201  0.13498256  1
  C  C223  1  -0.00000848  0.61980150  0.13164230  1
  C  C224  1  0.00380880  0.95458653  0.13238053  1
  C  C225  1  0.50155710  0.28851638  0.12990878  1
  C  C226  1  0.49816559  0.61831924  0.12800168  1
  C  C227  1  0.49802671  0.95252571  0.13361031  1
  C  C228  1  0.00485252  0.04793642  0.86716320  1
  C  C229  1  0.00169530  0.38120672  0.86693262  1
  C  C230  1  -0.00359935  0.71386618  0.86914215  1
  C  C231  1  0.50453604  0.04728273  0.86650471  1
  C  C232  1  0.49606992  0.38074067  0.86674269  1
  C  C233  1  0.49455683  0.71071542  0.86659759  1
  C  C234  1  -0.00194574  0.28933589  0.37090532  1
  C  C235  1  -0.00015082  0.62291465  0.37045071  1
  C  C236  1  -0.00354186  0.95519414  0.36519687  1
  C  C237  1  0.49859792  0.28700091  0.36830637  1
  C  C238  1  0.49813730  0.62115415  0.36774386  1
  C  C239  1  0.49455500  0.95271490  0.36938245  1
  C  C240  1  0.24786277  0.21373710  0.63014330  1
  C  C241  1  0.25032263  0.54574780  0.62910045  1
  C  C242  1  0.25569334  0.87777097  0.62833172  1
  C  C243  1  0.75084556  0.21311442  0.63298476  1
  C  C244  1  0.74975698  0.54361153  0.63440666  1
  C  C245  1  0.75167909  0.87919046  0.62886077  1
  C  C246  1  0.24868733  0.11983886  0.13195402  1
  C  C247  1  0.24915259  0.45244072  0.12938365  1
  C  C248  1  0.25417714  0.78696698  0.13472136  1
  C  C249  1  0.74458225  0.11984224  0.13356071  1
  C  C250  1  0.75374782  0.45467464  0.13292986  1
  C  C251  1  0.75388175  0.78627457  0.13075992  1
  C  C252  1  0.24440118  0.21398699  0.86400906  1
  C  C253  1  0.24952721  0.54330903  0.86905827  1
  C  C254  1  0.24938328  0.88001657  0.86703675  1
  C  C255  1  0.74808686  0.21347698  0.87059630  1
  C  C256  1  0.75116827  0.54680998  0.86774559  1
  C  C257  1  0.74953909  0.87994759  0.87102473  1
  C  C258  1  0.25545732  0.12129178  0.36804227  1
  C  C259  1  0.25082302  0.45438235  0.37076837  1
  C  C260  1  0.25007971  0.78615654  0.37287921  1
  C  C261  1  0.75485789  0.12308074  0.36612278  1
  C  C262  1  0.75318381  0.45132091  0.36975593  1
  C  C263  1  0.74890316  0.78873233  0.36774870  1
  C  C264  1  0.30059150  0.23981323  0.53933176  1
  C  C265  1  0.22754175  0.42535396  0.03329260  1
  C  C266  1  0.70815702  0.76265101  0.45966336  1
  C  C267  1  0.29079731  0.75936013  0.46438479  1
  C  C268  1  0.21924085  0.24090130  0.53461706  1
  C  C269  1  0.43188781  0.07343660  0.54302057  1
  C  C270  1  0.73023251  0.09497356  0.46229835  1
  C  C271  1  0.21054927  0.75963394  0.46476273  1
  C  C272  1  0.43801128  0.92317936  0.45531948  1
  C  C273  1  0.28915351  0.57745068  0.53837518  1
  C  C274  1  0.56690902  0.26499848  0.04384706  1
  C  C275  1  0.70464686  0.57387862  0.95877844  1
  C  C276  1  0.21108516  0.23511461  0.96080055  1
  C  C277  1  0.53802509  0.40643079  0.96006730  1
  C  C278  1  0.30866069  0.42727813  0.45763252  1
  C  C279  1  0.44098252  0.60006160  0.45735339  1
  C  C280  1  0.93968661  0.59371760  0.04521644  1
  C  C281  1  0.81568095  0.90442675  0.54257697  1
  C  C282  1  0.93991060  0.92821003  0.04733719  1
  C  C283  1  0.79023793  0.90984973  0.96423950  1
  C  C284  1  0.96626607  0.07373354  0.96092720  1
  C  C285  1  0.55531042  0.73993127  0.95158254  1
  C  C286  1  0.92724596  0.73579693  0.95372538  1
  C  C287  1  0.48002628  0.07370536  0.96292712  1
  C  C288  1  0.20546270  0.75923755  0.04463182  1
  C  C289  1  0.93246637  0.07053244  0.54708408  1
  C  C290  1  0.95866080  0.40697743  0.53373189  1
  C  C291  1  0.30780986  0.57209610  0.95668982  1
  C  C292  1  0.46873805  0.74125055  0.53694694  1
  C  C293  1  0.00675015  0.73959091  0.96791285  1
  C  C294  1  0.96107792  0.26380171  0.04365570  1
  C  C295  1  0.48524767  0.92497567  0.03703528  1
  C  C296  1  0.53635866  0.40777052  0.53474264  1
  C  C297  1  0.01280915  0.07390884  0.53655678  1
  C  C298  1  0.96423419  0.26018808  0.46367442  1
  C  C299  1  0.30817304  0.42836779  0.04173794  1
  C  C300  1  0.73554670  0.90800148  0.53194991  1
  C  C301  1  0.29287596  0.23775165  0.95606376  1
  C  C302  1  0.03877103  0.40697016  0.53298306  1
  C  C303  1  0.45003706  0.25886279  0.45793743  1
  C  C304  1  0.52152548  0.59742614  0.46604825  1
  C  C305  1  0.81183538  0.09722667  0.45496144  1
  C  C306  1  0.03937198  0.74354560  0.53897670  1
  C  C307  1  0.71111886  0.42772909  0.04047045  1
  C  C308  1  0.23103584  0.09602552  0.46470824  1
  C  C309  1  0.45630523  0.40716894  0.96128757  1
  C  C310  1  0.47563746  0.58584287  0.03200395  1
  C  C311  1  0.70828274  0.57247081  0.54248379  1
  N  N312  1  0.78239648  0.57596538  0.96360125  1
  N  N313  1  0.22942289  0.57281250  0.96356225  1
  N  N314  1  0.18529541  0.09539067  0.04599141  1
  N  N315  1  0.78803292  0.57212447  0.54261739  1
  N  N316  1  0.04146703  0.26003323  0.46341435  1
  N  N317  1  0.79089989  0.42568853  0.04098904  1
  N  N318  1  0.21194303  0.57761653  0.53606173  1
  N  N319  1  0.78147408  0.42419961  0.46568792  1
  N  N320  1  0.28502688  0.75694062  0.04188587  1
  N  N321  1  0.56323208  0.92822240  0.04727480  1
  N  N322  1  0.94993335  0.92850431  0.45603241  1
  N  N323  1  0.94957957  0.40575993  0.95730540  1
  N  N324  1  0.54624755  0.74058687  0.53996386  1
  N  N325  1  0.29448375  0.90243528  0.95879279  1
  N  N326  1  0.45702818  0.40821082  0.53762262  1
  N  N327  1  0.78744123  0.76088859  0.46198712  1
  N  N328  1  0.04101117  0.26634346  0.03976493  1
  N  N329  1  0.55887160  0.07189450  0.95447926  1
  N  N330  1  0.51011419  0.07508922  0.53393290  1
  N  N331  1  0.52724149  0.25678874  0.46418770  1
  N  N332  1  0.23226256  0.42289995  0.46770938  1
  N  N333  1  0.02593107  0.40722320  0.96361849  1
  N  N334  1  0.77440961  0.09365766  0.03792805  1
  N  N335  1  0.48909571  0.26153621  0.03373452  1
  N  N336  1  0.01849010  0.92445048  0.03712538  1
  N  N337  1  0.30834483  0.90645664  0.54166492  1
  N  N338  1  0.23091495  0.89708063  0.53184908  1
  N  N339  1  0.78909436  0.23965654  0.53932847  1
  N  N340  1  0.71296016  0.23940135  0.53913922  1
  N  N341  1  0.47643145  0.74160608  0.96133237  1
  N  N342  1  0.26248297  0.09188907  0.03714163  1
  N  N343  1  0.55361304  0.59079859  0.04101673  1
  N  N344  1  0.98495362  0.59038949  0.46327634  1
  N  N345  1  0.30978432  0.09530540  0.45575842  1
  N  N346  1  0.21288619  0.91045856  0.95844441  1
  N  N347  1  0.80353216  0.75882750  0.04261728  1
  N  N348  1  0.51447221  0.92192766  0.46630154  1
  N  N349  1  0.68954960  0.23485083  0.95709972  1
  N  N350  1  0.96191876  0.74414165  0.53771265  1
  N  N351  1  0.70382211  0.42626698  0.45803305  1
  N  N352  1  0.71097191  0.90868470  0.96277120  1
  N  N353  1  0.76726436  0.24462571  0.96453621  1
  N  N354  1  0.02569869  0.92732779  0.46032751  1
  N  N355  1  0.04597254  0.07290117  0.95927541  1
  N  N356  1  0.06195938  0.59318099  0.45507478  1
  N  N357  1  0.01848071  0.58938059  0.03703335  1
  N  N358  1  0.69789667  0.09507306  0.04154889  1
  N  N359  1  0.72564495  0.75636134  0.03594736  1
  N  N360  1  0.05028326  0.05733399  0.59184643  1
  N  N361  1  0.06512922  0.39058164  0.58850334  1
  N  N362  1  0.06691021  0.72455830  0.59466961  1
  N  N363  1  0.54884254  0.05543700  0.58633029  1
  N  N364  1  0.56141837  0.39016558  0.59127377  1
  N  N365  1  0.56372785  0.72313453  0.60049251  1
  N  N366  1  0.44800258  0.27811809  0.08616177  1
  N  N367  1  0.44091118  0.60305946  0.08579522  1
  N  N368  1  0.44361091  0.93994374  0.08955031  1
  N  N369  1  0.94104446  0.27611368  0.10269625  1
  N  N370  1  0.92805072  0.61121309  0.10430089  1
  N  N371  1  0.93112319  0.94538209  0.10681529  1
  N  N372  1  0.44591841  0.05856582  0.90822579  1
  N  N373  1  0.43169609  0.39093094  0.90198105  1
  N  N374  1  0.43909451  0.71960083  0.90968399  1
  N  N375  1  0.94048443  0.05832615  0.90376575  1
  N  N376  1  0.93359041  0.38980092  0.89731026  1
  N  N377  1  0.92182514  0.72041796  0.89349265  1
  N  N378  1  0.06290728  0.27890583  0.40453330  1
  N  N379  1  0.07074235  0.61170734  0.39663380  1
  N  N380  1  0.05609967  0.94387989  0.40410353  1
  N  N381  1  0.55772756  0.27479222  0.40704565  1
  N  N382  1  0.55660563  0.61064758  0.40883630  1
  N  N383  1  0.54975746  0.94088510  0.41155859  1
  N  N384  1  0.31682606  0.22281403  0.60021592  1
  N  N385  1  0.31561868  0.55838390  0.59443719  1
  N  N386  1  0.32436505  0.88619130  0.59856490  1
  N  N387  1  0.81433573  0.22347778  0.59742182  1
  N  N388  1  0.81338740  0.55069117  0.59845699  1
  N  N389  1  0.82433210  0.88668058  0.60383417  1
  N  N390  1  0.17750742  0.11105782  0.10550917  1
  N  N391  1  0.19191657  0.44009351  0.08684794  1
  N  N392  1  0.18602225  0.77619441  0.10260916  1
  N  N393  1  0.67811171  0.11117412  0.10098623  1
  N  N394  1  0.68802372  0.44446331  0.09791731  1
  N  N395  1  0.69542556  0.77308858  0.09078779  1
  N  N396  1  0.18204511  0.22082032  0.90297156  1
  N  N397  1  0.19231738  0.55298312  0.91047376  1
  N  N398  1  0.18721298  0.88524370  0.90492479  1
  N  N399  1  0.67793214  0.22485928  0.89683720  1
  N  N400  1  0.68370579  0.55637048  0.90048466  1
  N  N401  1  0.68538634  0.88949464  0.90542312  1
  N  N402  1  0.32442436  0.11096146  0.39631773  1
  N  N403  1  0.32232421  0.44590828  0.39830320  1
  N  N404  1  0.31572323  0.77525196  0.40820511  1
  N  N405  1  0.82521963  0.11444658  0.39493087  1
  N  N406  1  0.81181160  0.43978579  0.41026232  1
  N  N407  1  0.81105360  0.77737331  0.40441399  1
  N  N408  1  0.42994635  0.27663710  0.39961977  1
  N  N409  1  0.42742333  0.61401243  0.39800689  1
  N  N410  1  0.42313328  0.94186260  0.39622630  1
  N  N411  1  0.93465592  0.27733313  0.40788339  1
  N  N412  1  0.94510875  0.61115811  0.41318648  1
  N  N413  1  0.92995342  0.94585305  0.39756044  1
  N  N414  1  0.06954633  0.05818530  0.90106666  1
  N  N415  1  0.05932055  0.39232036  0.90779781  1
  N  N416  1  0.04934065  0.72562148  0.91393516  1
  N  N417  1  0.57369922  0.05625209  0.89497940  1
  N  N418  1  0.56172452  0.39064640  0.90282011  1
  N  N419  1  0.56637507  0.72270130  0.89251774  1
  N  N420  1  0.06924282  0.28613959  0.09604325  1
  N  N421  1  0.05568900  0.60856352  0.08949656  1
  N  N422  1  0.05800531  0.94422368  0.08872420  1
  N  N423  1  0.57497317  0.28049944  0.10405297  1
  N  N424  1  0.56795181  0.61138946  0.09998198  1
  N  N425  1  0.56929739  0.94508667  0.10769166  1
  N  N426  1  0.42145266  0.05612606  0.60241961  1
  N  N427  1  0.43273749  0.39024617  0.59538226  1
  N  N428  1  0.43614659  0.72493649  0.59184492  1
  N  N429  1  0.92144978  0.05301667  0.60596768  1
  N  N430  1  0.93408809  0.39063747  0.58982046  1
  N  N431  1  0.93849554  0.72510578  0.59605545  1
  N  N432  1  0.19679787  0.11147353  0.41013112  1
  N  N433  1  0.19590929  0.44052285  0.41248667  1
  N  N434  1  0.18487017  0.77599812  0.40895978  1
  N  N435  1  0.69607453  0.11104880  0.40673249  1
  N  N436  1  0.68534689  0.44259422  0.40016287  1
  N  N437  1  0.68299047  0.77895564  0.40195476  1
  N  N438  1  0.31210436  0.22432375  0.89582076  1
  N  N439  1  0.32034467  0.55475609  0.89790805  1
  N  N440  1  0.31465236  0.89451107  0.89845453  1
  N  N441  1  0.80385677  0.22177827  0.91360339  1
  N  N442  1  0.81146383  0.55860773  0.90552241  1
  N  N443  1  0.81419061  0.89243959  0.90728388  1
  N  N444  1  0.30249596  0.10851997  0.08851474  1
  N  N445  1  0.32058503  0.44454795  0.10083255  1
  N  N446  1  0.31505169  0.77743199  0.09656847  1
  N  N447  1  0.80445941  0.10879227  0.09471843  1
  N  N448  1  0.81702112  0.44352717  0.09772980  1
  N  N449  1  0.82139718  0.77695904  0.10019708  1
  N  N450  1  0.18741022  0.22519354  0.58910711  1
  N  N451  1  0.18732360  0.55709391  0.59375041  1
  N  N452  1  0.19740660  0.88927065  0.58826692  1
  N  N453  1  0.68760115  0.22322802  0.59722583  1
  N  N454  1  0.68438777  0.55656487  0.59975932  1
  N  N455  1  0.69682456  0.89273014  0.58385916  1
  Cl  Cl456  1  0.23679882  0.05332472  0.61536380  1
  Cl  Cl457  1  0.25041727  0.38409788  0.62191686  1
  Cl  Cl458  1  0.25218874  0.71901825  0.62701451  1
  Cl  Cl459  1  0.73121963  0.05483130  0.61323144  1
  Cl  Cl460  1  0.74405556  0.38965147  0.61897813  1
  Cl  Cl461  1  0.74996434  0.71922290  0.61260746  1
  Cl  Cl462  1  0.25855755  0.27534463  0.10695035  1
  Cl  Cl463  1  0.24234148  0.60526201  0.09865732  1
  Cl  Cl464  1  0.24855269  0.93838379  0.09980790  1
  Cl  Cl465  1  0.75882628  0.27297476  0.10894228  1
  Cl  Cl466  1  0.74763733  0.61490028  0.13145814  1
  Cl  Cl467  1  0.75091205  0.94408408  0.11778209  1
  Cl  Cl468  1  0.26061525  0.05462662  0.89719000  1
  Cl  Cl469  1  0.24390647  0.38962636  0.88589710  1
  Cl  Cl470  1  0.25165206  0.72686659  0.90196919  1
  Cl  Cl471  1  0.75674900  0.04844435  0.87959962  1
  Cl  Cl472  1  0.74938164  0.38751535  0.88764783  1
  Cl  Cl473  1  0.74374436  0.71744948  0.87467136  1
  Cl  Cl474  1  0.24726812  0.28020949  0.37507332  1
  Cl  Cl475  1  0.24931418  0.62162186  0.36435651  1
  Cl  Cl476  1  0.23807174  0.94415550  0.38985099  1
  Cl  Cl477  1  0.74570797  0.28053771  0.37926468  1
  Cl  Cl478  1  0.75815214  0.60352157  0.40066304  1
  Cl  Cl479  1  0.73883869  0.94422983  0.38549486  1
  Cl  Cl480  1  -0.00049601  0.22032056  0.62346076  1
  Cl  Cl481  1  -0.00330731  0.55992468  0.61271593  1
  Cl  Cl482  1  0.01692527  0.88447311  0.62467271  1
  Cl  Cl483  1  0.50438307  0.21424324  0.62460662  1
  Cl  Cl484  1  0.50125049  0.54946033  0.61759101  1
  Cl  Cl485  1  0.50740572  0.88755226  0.61882773  1
  Cl  Cl486  1  -0.00940669  0.11209205  0.11092984  1
  Cl  Cl487  1  0.00201663  0.44832543  0.12119393  1
  Cl  Cl488  1  0.00366449  0.78295276  0.11618475  1
  Cl  Cl489  1  0.48755078  0.11087885  0.10982956  1
  Cl  Cl490  1  0.50536496  0.45086358  0.12134198  1
  Cl  Cl491  1  0.50206788  0.76924933  0.10057344  1
  Cl  Cl492  1  -0.00989002  0.22732863  0.89618618  1
  Cl  Cl493  1  0.00626268  0.56158137  0.89554858  1
  Cl  Cl494  1  0.00441265  0.89580700  0.89551355  1
  Cl  Cl495  1  0.49516398  0.22274438  0.89396724  1
  Cl  Cl496  1  0.50258694  0.55552520  0.88430532  1
  Cl  Cl497  1  0.49783206  0.88685511  0.88697218  1
  Cl  Cl498  1  0.01408729  0.11459224  0.38053540  1
  Cl  Cl499  1  0.00137459  0.44310868  0.39024304  1
  Cl  Cl500  1  -0.00275704  0.78084200  0.38033239  1
  Cl  Cl501  1  0.51046803  0.10708192  0.38879565  1
  Cl  Cl502  1  0.50460548  0.44440476  0.38777617  1
  Cl  Cl503  1  0.50004772  0.78160142  0.37269520  1
  Cl  Cl504  1  0.36272185  0.14459937  0.75099591  1
  Cl  Cl505  1  0.36160697  0.47982780  0.75380265  1
  Cl  Cl506  1  0.35812954  0.81258996  0.75662487  1
  Cl  Cl507  1  0.85892914  0.14618676  0.75257189  1
  Cl  Cl508  1  0.85609917  0.47995138  0.75255917  1
  Cl  Cl509  1  0.86420366  0.81251844  0.75103075  1
  Cl  Cl510  1  0.14149713  0.18511130  0.24044062  1
  Cl  Cl511  1  0.14246437  0.51764192  0.24828560  1
  Cl  Cl512  1  0.14196192  0.85444398  0.24766732  1
  Cl  Cl513  1  0.63492882  0.18834437  0.24277228  1
  Cl  Cl514  1  0.63985817  0.52197104  0.25691098  1
  Cl  Cl515  1  0.64036754  0.85222680  0.24116082  1
  Cl  Cl516  1  0.14142317  0.14592041  0.75329711  1
  Cl  Cl517  1  0.13963471  0.48268538  0.74912630  1
  Cl  Cl518  1  0.14154926  0.81495902  0.75536523  1
  Cl  Cl519  1  0.63802234  0.14670764  0.76222991  1
  Cl  Cl520  1  0.63499082  0.47812339  0.75494723  1
  Cl  Cl521  1  0.64181645  0.81584800  0.74980485  1
  Cl  Cl522  1  0.36230692  0.18638127  0.25510763  1
  Cl  Cl523  1  0.36374960  0.52012290  0.24945486  1
  Cl  Cl524  1  0.35824270  0.85494328  0.24910762  1
  Cl  Cl525  1  0.86136804  0.18534761  0.25038671  1
  Cl  Cl526  1  0.85748470  0.51973595  0.25039559  1
  Cl  Cl527  1  0.86193247  0.85429735  0.24691716  1
  Cl  Cl528  1  0.11021532  0.31315265  0.75145997  1
  Cl  Cl529  1  0.10442801  0.64687934  0.75438693  1
  Cl  Cl530  1  0.11531627  0.97970079  0.76181136  1
  Cl  Cl531  1  0.60633662  0.31202225  0.75495331  1
  Cl  Cl532  1  0.61331302  0.64578465  0.74681290  1
  Cl  Cl533  1  0.60673880  0.98234466  0.75677128  1
  Cl  Cl534  1  0.38700293  0.01946932  0.25492590  1
  Cl  Cl535  1  0.39369499  0.35220739  0.24896310  1
  Cl  Cl536  1  0.38788521  0.68659629  0.24149167  1
  Cl  Cl537  1  0.88872709  0.01996243  0.24841059  1
  Cl  Cl538  1  0.88723389  0.35398208  0.24459056  1
  Cl  Cl539  1  0.89174183  0.68763071  0.24578447  1
  Cl  Cl540  1  0.38706958  0.31197387  0.75059781  1
  Cl  Cl541  1  0.39030500  0.64742258  0.75183031  1
  Cl  Cl542  1  0.38517940  0.97799993  0.74679362  1
  Cl  Cl543  1  0.88842458  0.31357819  0.75204077  1
  Cl  Cl544  1  0.88410650  0.64476392  0.75232195  1
  Cl  Cl545  1  0.89143713  0.98041422  0.74691461  1
  Cl  Cl546  1  0.11154450  0.01904738  0.24566292  1
  Cl  Cl547  1  0.11013424  0.35103137  0.25104682  1
  Cl  Cl548  1  0.11154177  0.68581525  0.24538895  1
  Cl  Cl549  1  0.61026965  0.01947912  0.24319528  1
  Cl  Cl550  1  0.61591828  0.35532079  0.24373079  1
  Cl  Cl551  1  0.60769940  0.68734514  0.24582442  1
