# generated using pymatgen
data_H8PbC4(N3Cl2)2
_symmetry_space_group_name_H-M   'P 1'
_cell_length_a   16.62464733
_cell_length_b   22.51053416
_cell_length_c   21.59255401
_cell_angle_alpha   90.00030519
_cell_angle_beta   89.99574338
_cell_angle_gamma   89.99990075
_symmetry_Int_Tables_number   1
_chemical_formula_structural   H8PbC4(N3Cl2)2
_chemical_formula_sum   'H192 Pb24 C96 N144 Cl96'
_cell_volume   8080.57480682
_cell_formula_units_Z   24
loop_
 _symmetry_equiv_pos_site_id
 _symmetry_equiv_pos_as_xyz
  1  'x, y, z'
loop_
 _atom_site_type_symbol
 _atom_site_label
 _atom_site_symmetry_multiplicity
 _atom_site_fract_x
 _atom_site_fract_y
 _atom_site_fract_z
 _atom_site_occupancy
  H  H0  1  -0.00462712  0.02992793  0.68032857  1
  H  H1  1  0.00480630  0.36263174  0.67844262  1
  H  H2  1  0.00698559  0.69526173  0.68189625  1
  H  H3  1  0.49868015  0.03072922  0.68141373  1
  H  H4  1  0.49181420  0.36362259  0.67530918  1
  H  H5  1  0.48895589  0.69771767  0.67940288  1
  H  H6  1  0.01747790  0.30170879  0.17836686  1
  H  H7  1  0.00571289  0.63641583  0.17122094  1
  H  H8  1  -0.00585124  0.96983618  0.17945366  1
  H  H9  1  0.48860266  0.30168621  0.17878337  1
  H  H10  1  0.50257119  0.63555229  0.17870349  1
  H  H11  1  0.51163220  0.97204081  0.17662334  1
  H  H12  1  -0.00959485  0.02810687  0.81821553  1
  H  H13  1  0.01100551  0.36471750  0.81986237  1
  H  H14  1  -0.01543096  0.69628414  0.82284781  1
  H  H15  1  0.51442975  0.03343016  0.82620634  1
  H  H16  1  0.49333652  0.36553135  0.82140271  1
  H  H17  1  0.50991301  0.69783473  0.82310474  1
  H  H18  1  -0.00283936  0.30555175  0.32355640  1
  H  H19  1  -0.00001387  0.63187871  0.31675406  1
  H  H20  1  0.00429442  0.97041000  0.31813457  1
  H  H21  1  0.50110754  0.30295883  0.32092436  1
  H  H22  1  0.50297300  0.63553728  0.32247954  1
  H  H23  1  0.49440211  0.96901812  0.31757016  1
  H  H24  1  0.24123674  0.19792850  0.67871388  1
  H  H25  1  0.24193628  0.53105810  0.67866423  1
  H  H26  1  0.25558029  0.86415328  0.67831054  1
  H  H27  1  0.75937658  0.19725207  0.68042995  1
  H  H28  1  0.75230928  0.53008297  0.67863427  1
  H  H29  1  0.74695775  0.86378690  0.68317930  1
  H  H30  1  0.24010751  0.13425848  0.18037501  1
  H  H31  1  0.24106726  0.46927700  0.18042397  1
  H  H32  1  0.24831212  0.80422745  0.17670449  1
  H  H33  1  0.74560752  0.13710040  0.18112268  1
  H  H34  1  0.76284959  0.46918282  0.18235518  1
  H  H35  1  0.75203085  0.80053088  0.17993296  1
  H  H36  1  0.24941184  0.19604223  0.81844384  1
  H  H37  1  0.25671897  0.53206131  0.82190785  1
  H  H38  1  0.25049869  0.86370633  0.82190882  1
  H  H39  1  0.75552047  0.19540011  0.82109921  1
  H  H40  1  0.74636716  0.53181618  0.82275752  1
  H  H41  1  0.75062458  0.86483404  0.81969573  1
  H  H42  1  0.25632130  0.13812373  0.32527205  1
  H  H43  1  0.24582458  0.46824036  0.32252363  1
  H  H44  1  0.24309185  0.80422732  0.31871020  1
  H  H45  1  0.75044473  0.13558695  0.32034124  1
  H  H46  1  0.75385147  0.46991776  0.31956108  1
  H  H47  1  0.75956571  0.80169995  0.32144251  1
  H  H48  1  0.12570251  0.05330998  0.61439658  1
  H  H49  1  0.12260514  0.38859369  0.60162219  1
  H  H50  1  0.12743914  0.72048769  0.60668143  1
  H  H51  1  0.62748546  0.05338677  0.61480073  1
  H  H52  1  0.62489910  0.38650100  0.61380399  1
  H  H53  1  0.62845499  0.71785081  0.62399313  1
  H  H54  1  0.38191418  0.27306863  0.09647996  1
  H  H55  1  0.36842106  0.61447782  0.11751931  1
  H  H56  1  0.37122556  0.94994502  0.12492669  1
  H  H57  1  0.87621555  0.28415810  0.12627376  1
  H  H58  1  0.86654680  0.61800117  0.12014799  1
  H  H59  1  0.87243437  0.94334340  0.10519049  1
  H  H60  1  0.37335003  0.04925087  0.87467514  1
  H  H61  1  0.37102475  0.39052482  0.89408936  1
  H  H62  1  0.36819562  0.71639174  0.87303417  1
  H  H63  1  0.86872124  0.05135968  0.89206380  1
  H  H64  1  0.87339586  0.38264620  0.87784877  1
  H  H65  1  0.87108407  0.72392964  0.90126978  1
  H  H66  1  0.13088553  0.28204763  0.38289886  1
  H  H67  1  0.11915087  0.60965793  0.39323408  1
  H  H68  1  0.12626212  0.94504908  0.39185046  1
  H  H69  1  0.62829245  0.27831849  0.38804377  1
  H  H70  1  0.61347219  0.60733167  0.40385937  1
  H  H71  1  0.62892509  0.95181217  0.37691259  1
  H  H72  1  0.37375032  0.21922078  0.61702234  1
  H  H73  1  0.38166380  0.54829307  0.62462223  1
  H  H74  1  0.36978520  0.89230702  0.60022310  1
  H  H75  1  0.86723527  0.22278449  0.59832424  1
  H  H76  1  0.87819920  0.55008063  0.60830519  1
  H  H77  1  0.87021956  0.88695185  0.60941276  1
  H  H78  1  0.12810050  0.10781178  0.10058710  1
  H  H79  1  0.13457338  0.44616321  0.09541404  1
  H  H80  1  0.12937799  0.77671137  0.10402146  1
  H  H81  1  0.62824069  0.10992380  0.10394588  1
  H  H82  1  0.62807767  0.45033649  0.12277349  1
  H  H83  1  0.63595157  0.77801197  0.10399621  1
  H  H84  1  0.12528368  0.22085959  0.88833025  1
  H  H85  1  0.12947081  0.55387041  0.89097471  1
  H  H86  1  0.13118573  0.88665915  0.89743318  1
  H  H87  1  0.62390069  0.21658418  0.88569351  1
  H  H88  1  0.63805505  0.55687990  0.90457827  1
  H  H89  1  0.63323088  0.88961490  0.89350109  1
  H  H90  1  0.37106258  0.11058555  0.40223571  1
  H  H91  1  0.37347690  0.44504048  0.39122710  1
  H  H92  1  0.37247805  0.77873341  0.38168952  1
  H  H93  1  0.87290269  0.11414989  0.39059841  1
  H  H94  1  0.87554733  0.44438287  0.39131034  1
  H  H95  1  0.86786602  0.77691728  0.40382480  1
  H  H96  1  0.37894903  0.28125635  0.39119788  1
  H  H97  1  0.36735111  0.61288451  0.38203335  1
  H  H98  1  0.38057015  0.94607346  0.39619770  1
  H  H99  1  0.88272655  0.27603999  0.40126065  1
  H  H100  1  0.87109725  0.61188248  0.38672843  1
  H  H101  1  0.87710362  0.94946163  0.38687470  1
  H  H102  1  0.11808736  0.05357579  0.88532850  1
  H  H103  1  0.11886975  0.39286905  0.90384656  1
  H  H104  1  0.11868441  0.71591597  0.88491745  1
  H  H105  1  0.61676809  0.05815490  0.91252272  1
  H  H106  1  0.62066407  0.38805844  0.88837874  1
  H  H107  1  0.61207101  0.72782069  0.90853526  1
  H  H108  1  0.11927612  0.27420304  0.08996395  1
  H  H109  1  0.11159678  0.60911815  0.08847684  1
  H  H110  1  0.12088569  0.94474589  0.11011264  1
  H  H111  1  0.62820080  0.28364247  0.12345047  1
  H  H112  1  0.61682341  0.60880492  0.10066216  1
  H  H113  1  0.61451842  0.94313935  0.09052671  1
  H  H114  1  0.37849828  0.05568525  0.60532309  1
  H  H115  1  0.37668445  0.39080366  0.59851741  1
  H  H116  1  0.38272250  0.72511385  0.59588501  1
  H  H117  1  0.87683715  0.05563965  0.60564996  1
  H  H118  1  0.87430069  0.38709366  0.61582808  1
  H  H119  1  0.87883322  0.72046539  0.61740615  1
  H  H120  1  0.12306922  0.11595321  0.38631219  1
  H  H121  1  0.12457642  0.44340052  0.39484751  1
  H  H122  1  0.12380817  0.77896928  0.39478754  1
  H  H123  1  0.62409278  0.11448014  0.38774748  1
  H  H124  1  0.62647520  0.44502321  0.38745187  1
  H  H125  1  0.62131939  0.78028340  0.37753664  1
  H  H126  1  0.37343967  0.21874321  0.88907731  1
  H  H127  1  0.37849029  0.55783884  0.89415763  1
  H  H128  1  0.37950883  0.88992057  0.88838189  1
  H  H129  1  0.87204614  0.22316626  0.89693100  1
  H  H130  1  0.88522128  0.54989162  0.87664565  1
  H  H131  1  0.88231937  0.88199104  0.88455558  1
  H  H132  1  0.37590574  0.11440947  0.11980679  1
  H  H133  1  0.38048245  0.44972586  0.12488908  1
  H  H134  1  0.37827640  0.77779379  0.11214141  1
  H  H135  1  0.87636536  0.11432504  0.11465230  1
  H  H136  1  0.87588010  0.44684844  0.10347342  1
  H  H137  1  0.88484892  0.78210893  0.11690549  1
  H  H138  1  0.12611992  0.22542610  0.60030396  1
  H  H139  1  0.13486468  0.55340673  0.59589131  1
  H  H140  1  0.12194553  0.88702767  0.61867431  1
  H  H141  1  0.62109537  0.21560814  0.62686105  1
  H  H142  1  0.62980349  0.55630585  0.60855725  1
  H  H143  1  0.62189465  0.88934798  0.61237604  1
  H  H144  1  0.34211453  0.75014505  0.00487022  1
  H  H145  1  0.30339295  0.92145734  0.49802511  1
  H  H146  1  0.53485550  0.92075008  -0.00812132  1
  H  H147  1  0.92265363  0.91928734  0.49640263  1
  H  H148  1  0.53415041  0.75160131  1.00770366  1
  H  H149  1  0.31846623  0.26602436  0.98387028  1
  H  H150  1  0.45243015  0.24145825  -0.00687466  1
  H  H151  1  0.17984431  0.22793901  0.99579332  1
  H  H152  1  0.79875190  0.24700290  0.49194657  1
  H  H153  1  0.19447747  0.07646473  -0.00383020  1
  H  H154  1  0.42444235  0.24940482  0.50157336  1
  H  H155  1  0.45640831  0.75002557  0.49141154  1
  H  H156  1  0.06806146  0.72630477  0.49949300  1
  H  H157  1  0.60249221  0.92367949  0.49041447  1
  H  H158  1  0.59030566  0.41538605  0.50652234  1
  H  H159  1  0.83119043  0.59150386  0.51078340  1
  H  H160  1  0.68886923  0.91761669  1.00408654  1
  H  H161  1  0.70748560  0.58454127  1.01080391  1
  H  H162  1  0.04306570  0.42419362  1.00164223  1
  H  H163  1  0.64581017  0.75408171  0.48719210  1
  H  H164  1  0.91831005  0.74810851  0.50493039  1
  H  H165  1  0.82485571  0.41637969  0.49993639  1
  H  H166  1  0.55098626  0.58174507  -0.00257481  1
  H  H167  1  0.69356746  0.75207827  -0.00645680  1
  H  H168  1  0.79849396  0.75401539  0.51088020  1
  H  H169  1  0.39326682  0.58157256  0.49021291  1
  H  H170  1  0.44187247  0.92019174  0.50472983  1
  H  H171  1  0.20800997  0.42111625  -0.00818533  1
  H  H172  1  0.42097544  0.41996486  0.99739934  1
  H  H173  1  0.87533665  0.58430929  0.99860456  1
  H  H174  1  0.15683628  0.08524017  0.49339859  1
  H  H175  1  0.68278035  0.56767065  0.50228067  1
  H  H176  1  0.81352072  0.25183008  1.00310528  1
  H  H177  1  0.60578350  0.25189279  0.01545883  1
  H  H178  1  0.20395768  0.58091545  0.48985235  1
  H  H179  1  0.33490127  0.74903663  0.49394173  1
  H  H180  1  0.93285473  0.08542652  0.49893636  1
  H  H181  1  0.33678338  0.91713665  0.99390457  1
  H  H182  1  0.18248292  0.74452890  -0.00382504  1
  H  H183  1  0.18395545  0.76710984  0.50119499  1
  H  H184  1  0.94868154  0.24914008  0.50384976  1
  H  H185  1  0.63592868  0.24375952  0.51268916  1
  H  H186  1  0.58765272  0.08346876  0.50517587  1
  H  H187  1  0.38439467  0.07861784  -0.00993296  1
  H  H188  1  0.92232732  0.08044610  0.99917982  1
  H  H189  1  0.81657525  0.41808431  -0.00356535  1
  H  H190  1  0.58242130  0.41947839  0.99843720  1
  H  H191  1  0.03628655  0.25274583  -0.00790048  1
  Pb  Pb192  1  0.24760974  0.04720965  0.74557228  1
  Pb  Pb193  1  0.25031550  0.38011100  0.74996102  1
  Pb  Pb194  1  0.24480426  0.71480139  0.74290645  1
  Pb  Pb195  1  0.74724962  0.04649564  0.75462082  1
  Pb  Pb196  1  0.74420911  0.38199589  0.74931057  1
  Pb  Pb197  1  0.75039684  0.71314980  0.75570109  1
  Pb  Pb198  1  0.24643686  0.28434706  0.23736102  1
  Pb  Pb199  1  0.24750087  0.62026613  0.24776030  1
  Pb  Pb200  1  0.24973817  0.95357374  0.25634462  1
  Pb  Pb201  1  0.75198834  0.28802038  0.25588996  1
  Pb  Pb202  1  0.74742763  0.61892930  0.25555736  1
  Pb  Pb203  1  0.74875691  0.95338599  0.24333044  1
  Pb  Pb204  1  -0.00477044  0.21615591  0.74645730  1
  Pb  Pb205  1  0.00181999  0.54487904  0.74441605  1
  Pb  Pb206  1  -0.00245740  0.88046002  0.74795169  1
  Pb  Pb207  1  0.49817858  0.21228623  0.75439037  1
  Pb  Pb208  1  0.49816928  0.54967364  0.75806454  1
  Pb  Pb209  1  0.49844222  0.88047903  0.75080615  1
  Pb  Pb210  1  -0.00202337  0.11903073  0.24790760  1
  Pb  Pb211  1  0.00304705  0.45407854  0.24192562  1
  Pb  Pb212  1  -0.00110360  0.78633125  0.25903766  1
  Pb  Pb213  1  0.50020097  0.12034335  0.25199497  1
  Pb  Pb214  1  0.49838553  0.45178233  0.25328312  1
  Pb  Pb215  1  0.50035073  0.78678354  0.24473396  1
  C  C216  1  -0.00033307  0.04631154  0.63315325  1
  C  C217  1  0.00083143  0.37899079  0.63148255  1
  C  C218  1  0.00525348  0.71060202  0.63419074  1
  C  C219  1  0.50128665  0.04648118  0.63397577  1
  C  C220  1  0.49830183  0.37969938  0.62828554  1
  C  C221  1  0.50043603  0.71289760  0.63245536  1
  C  C222  1  0.00481043  0.28759621  0.13131218  1
  C  C223  1  -0.00587081  0.62098262  0.12453807  1
  C  C224  1  -0.00437570  0.95346642  0.13221526  1
  C  C225  1  0.50020405  0.28665686  0.13174131  1
  C  C226  1  0.49607021  0.62079003  0.13124894  1
  C  C227  1  0.49927886  0.95617235  0.13006511  1
  C  C228  1  -0.00761804  0.04429176  0.86545797  1
  C  C229  1  0.00143266  0.38013091  0.86689121  1
  C  C230  1  -0.00826907  0.71135782  0.87005391  1
  C  C231  1  0.50033818  0.04708246  0.87306515  1
  C  C232  1  0.49460190  0.38172656  0.86885909  1
  C  C233  1  0.49698099  0.71288462  0.86981905  1
  C  C234  1  0.00320756  0.28892473  0.37033779  1
  C  C235  1  -0.00356229  0.61802996  0.36486186  1
  C  C236  1  0.00274608  0.95445525  0.36552716  1
  C  C237  1  0.50231376  0.28763867  0.36849242  1
  C  C238  1  0.49430229  0.61896622  0.36922060  1
  C  C239  1  0.50163031  0.95501919  0.36541073  1
  C  C240  1  0.24674455  0.21350203  0.63157026  1
  C  C241  1  0.25260631  0.54490226  0.63124881  1
  C  C242  1  0.24939410  0.88031876  0.63137754  1
  C  C243  1  0.74872298  0.21147868  0.63302006  1
  C  C244  1  0.75351269  0.54585524  0.63101923  1
  C  C245  1  0.74634293  0.87946771  0.63563088  1
  C  C246  1  0.24823132  0.11909810  0.13313581  1
  C  C247  1  0.25245908  0.45498054  0.13315623  1
  C  C248  1  0.25254447  0.78731814  0.12959740  1
  C  C249  1  0.75020586  0.12089982  0.13393751  1
  C  C250  1  0.75587666  0.45514998  0.13461340  1
  C  C251  1  0.75731633  0.78728131  0.13189204  1
  C  C252  1  0.24936849  0.21171163  0.86612161  1
  C  C253  1  0.25481138  0.54767371  0.86920083  1
  C  C254  1  0.25430047  0.87977798  0.86915352  1
  C  C255  1  0.75022933  0.21122835  0.86841716  1
  C  C256  1  0.75652701  0.54645243  0.87000997  1
  C  C257  1  0.75509915  0.87899713  0.86747305  1
  C  C258  1  0.24975113  0.12161971  0.37212492  1
  C  C259  1  0.24830172  0.45285705  0.36992318  1
  C  C260  1  0.24580228  0.78872510  0.36633544  1
  C  C261  1  0.74914948  0.12092636  0.36807574  1
  C  C262  1  0.75175399  0.45357652  0.36678333  1
  C  C263  1  0.74887885  0.78695017  0.36872153  1
  C  C264  1  0.28899065  0.57763678  0.96177192  1
  C  C265  1  0.68705276  0.23469464  0.54521721  1
  C  C266  1  0.47479184  0.93002276  0.46241042  1
  C  C267  1  0.96277744  0.92841277  0.45773155  1
  C  C268  1  0.46558800  0.26003608  0.46328574  1
  C  C269  1  0.19416859  0.91163469  0.54340819  1
  C  C270  1  0.73719472  0.57335429  0.96735838  1
  C  C271  1  0.72823109  0.76280234  0.03482652  1
  C  C272  1  0.72407608  0.90578990  0.96346050  1
  C  C273  1  0.29592000  0.24095352  0.54198262  1
  C  C274  1  0.78723340  0.09368874  0.46110804  1
  C  C275  1  0.31514113  0.56781017  0.54431990  1
  C  C276  1  0.46815233  0.41064338  0.53323912  1
  C  C277  1  0.21452966  0.42367454  0.46278307  1
  C  C278  1  0.70585647  0.09390168  0.46002631  1
  C  C279  1  0.48429703  0.73973111  0.53584663  1
  C  C280  1  0.43515690  0.07066888  0.95919047  1
  C  C281  1  0.81794120  0.57111708  0.95676787  1
  C  C282  1  0.96677284  0.74108117  0.96466155  1
  C  C283  1  0.78566269  0.42649067  0.46026114  1
  C  C284  1  0.05808827  0.25819013  0.45845255  1
  C  C285  1  0.51514346  0.07365238  0.97082347  1
  C  C286  1  0.54428783  0.07306844  0.54264262  1
  C  C287  1  0.76811069  0.23683862  0.53519009  1
  C  C288  1  0.77829198  0.23995512  0.96251970  1
  C  C289  1  0.80947232  0.76527280  0.04068567  1
  C  C290  1  0.53928192  0.40900350  0.96074928  1
  C  C291  1  0.43028755  0.73879690  0.95439413  1
  C  C292  1  0.55648989  0.93187596  0.45557512  1
  C  C293  1  0.48063915  0.25618983  0.03590709  1
  C  C294  1  0.21871109  0.75700173  0.03608023  1
  C  C295  1  0.22573338  0.08927455  0.03848742  1
  C  C296  1  0.78127529  0.42873681  0.03729734  1
  C  C297  1  0.95424615  0.40909121  0.54213105  1
  C  C298  1  0.01229277  0.59174642  0.02860868  1
  C  C299  1  0.96948801  0.07444813  0.53930362  1
  C  C300  1  0.44143016  0.59146000  0.04235828  1
  C  C301  1  0.95965710  0.07107168  0.95906285  1
  C  C302  1  0.80517738  0.90267338  0.95854534  1
  C  C303  1  0.27924970  0.09045047  0.46714840  1
  C  C304  1  0.95847064  0.73774534  0.54318745  1
  C  C305  1  0.70032191  0.43039989  0.04541924  1
  C  C306  1  0.93201663  0.59492174  0.03837137  1
  C  C307  1  0.54728569  0.25951973  0.46030901  1
  C  C308  1  0.23671974  0.43028747  0.03621812  1
  C  C309  1  0.23476517  0.57038998  0.53299840  1
  C  C310  1  0.77030770  0.76170689  0.46610407  1
  C  C311  1  0.29419160  0.76064472  0.45650005  1
  N  N312  1  0.29828774  0.75732601  0.04029843  1
  N  N313  1  0.79658123  0.09215838  0.04306810  1
  N  N314  1  0.43409745  0.92874021  0.04590011  1
  N  N315  1  0.29168037  0.42416507  0.46284765  1
  N  N316  1  0.21880674  0.24313057  0.53530539  1
  N  N317  1  0.21828557  0.90742669  0.96325213  1
  N  N318  1  0.21448522  0.76166537  0.46034059  1
  N  N319  1  0.96082575  0.92350659  0.03877467  1
  N  N320  1  0.21173230  0.57624406  0.96217695  1
  N  N321  1  0.04203208  0.92597776  0.45940918  1
  N  N322  1  0.93775674  0.26230896  0.04736276  1
  N  N323  1  0.71560680  0.57863837  0.54079829  1
  N  N324  1  0.20893800  0.24206277  0.95653858  1
  N  N325  1  0.29642737  0.90799601  0.95860203  1
  N  N326  1  0.97956297  0.25723134  0.46356392  1
  N  N327  1  0.01447599  0.25851596  0.03664768  1
  N  N328  1  0.03838300  0.73624820  0.53980196  1
  N  N329  1  0.95274556  0.59642585  0.45868843  1
  N  N330  1  0.28954248  0.23354379  0.95913114  1
  N  N331  1  0.04403821  0.73829723  0.96102092  1
  N  N332  1  0.03152864  0.40971099  0.53625209  1
  N  N333  1  0.45951729  0.40950140  0.96160675  1
  N  N334  1  0.55894039  0.26072524  0.04581090  1
  N  N335  1  0.69902921  0.23826168  0.95933077  1
  N  N336  1  0.69196278  0.76170316  0.45561401  1
  N  N337  1  0.50796228  0.74277745  0.96531081  1
  N  N338  1  0.03893695  0.07274805  0.95736337  1
  N  N339  1  0.03691786  0.92423366  0.04010238  1
  N  N340  1  0.79468283  0.56538985  0.53791354  1
  N  N341  1  0.70604097  0.42658614  0.45953209  1
  N  N342  1  0.70686463  0.90832510  0.54295901  1
  N  N343  1  0.01766879  0.40749063  0.96152566  1
  N  N344  1  0.46503098  0.07401168  0.53903857  1
  N  N345  1  0.44180596  0.59097819  0.45596752  1
  N  N346  1  0.30437715  0.09180879  0.04484021  1
  N  N347  1  0.31509469  0.43031464  0.04587389  1
  N  N348  1  0.56251522  0.73821308  0.54537769  1
  N  N349  1  0.20062845  0.09295073  0.46072164  1
  N  N350  1  0.02942438  0.59504219  0.46080300  1
  N  N351  1  0.78331724  0.90742064  0.54202899  1
  N  N352  1  0.51925242  0.58896351  0.46457825  1
  N  N353  1  0.04884657  0.07407272  0.54175693  1
  N  N354  1  0.72017865  0.09052064  0.03970315  1
  N  N355  1  0.27265921  0.91175559  0.53789237  1
  N  N356  1  0.54678232  0.40818480  0.53943658  1
  N  N357  1  0.94041241  0.40421036  0.95385909  1
  N  N358  1  0.52014887  0.59066061  0.03756236  1
  N  N359  1  0.51119558  0.92552111  0.03592505  1
  N  N360  1  0.06585467  0.05669519  0.60097714  1
  N  N361  1  0.06081712  0.39065345  0.59326679  1
  N  N362  1  0.06672934  0.71564158  0.59570088  1
  N  N363  1  0.56788254  0.05664392  0.60062377  1
  N  N364  1  0.56602021  0.38823692  0.59776367  1
  N  N365  1  0.57094690  0.72153906  0.60577428  1
  N  N366  1  0.44357337  0.27271218  0.08905570  1
  N  N367  1  0.42627563  0.60964411  0.10059665  1
  N  N368  1  0.42762404  0.94544291  0.10527983  1
  N  N369  1  0.93254194  0.27858313  0.10676561  1
  N  N370  1  0.92187851  0.61278175  0.09873116  1
  N  N371  1  0.93350530  0.94167255  0.09572804  1
  N  N372  1  0.42747211  0.05434896  0.89756176  1
  N  N373  1  0.43210131  0.39284005  0.90489375  1
  N  N374  1  0.42324978  0.72156240  0.89482653  1
  N  N375  1  0.92948368  0.05434829  0.90288321  1
  N  N376  1  0.93100107  0.38677729  0.89525745  1
  N  N377  1  0.93213804  0.72498452  0.91019655  1
  N  N378  1  0.07308179  0.27709788  0.40057379  1
  N  N379  1  0.05759398  0.60797143  0.40280415  1
  N  N380  1  0.06514403  0.94233648  0.40162704  1
  N  N381  1  0.56895954  0.27601426  0.40276189  1
  N  N382  1  0.55142139  0.60601475  0.41024300  1
  N  N383  1  0.57150764  0.94705326  0.39516632  1
  N  N384  1  0.31551273  0.22323886  0.60019005  1
  N  N385  1  0.32533609  0.55278231  0.60414385  1
  N  N386  1  0.30806183  0.89106085  0.59152847  1
  N  N387  1  0.80538344  0.22240593  0.59027384  1
  N  N388  1  0.81805123  0.55717385  0.59720535  1
  N  N389  1  0.80894646  0.88961311  0.59924174  1
  N  N390  1  0.18981304  0.10607952  0.09236563  1
  N  N391  1  0.19700270  0.44494021  0.08929356  1
  N  N392  1  0.19020213  0.77503616  0.09166282  1
  N  N393  1  0.69012543  0.10804284  0.09577584  1
  N  N394  1  0.68553103  0.44605149  0.10422061  1
  N  N395  1  0.69669629  0.77677340  0.09280218  1
  N  N396  1  0.18539358  0.21790889  0.90201138  1
  N  N397  1  0.19018567  0.55732788  0.90324099  1
  N  N398  1  0.19255257  0.89008414  0.90704701  1
  N  N399  1  0.68325389  0.22014758  0.90005901  1
  N  N400  1  0.69991987  0.55776865  0.91225146  1
  N  N401  1  0.69376893  0.89070424  0.90551540  1
  N  N402  1  0.30995619  0.10799426  0.41233414  1
  N  N403  1  0.31308012  0.44281343  0.40366325  1
  N  N404  1  0.31355956  0.77584462  0.39801603  1
  N  N405  1  0.81312896  0.11023038  0.40474232  1
  N  N406  1  0.81481887  0.44265037  0.40365134  1
  N  N407  1  0.80619676  0.77675809  0.41200695  1
  N  N408  1  0.43893109  0.27774324  0.40470017  1
  N  N409  1  0.42566867  0.60942007  0.39834004  1
  N  N410  1  0.44200715  0.94441881  0.40578964  1
  N  N411  1  0.94445037  0.27782905  0.40996790  1
  N  N412  1  0.93125617  0.61044466  0.39910090  1
  N  N413  1  0.93708679  0.94536247  0.40032832  1
  N  N414  1  0.05750517  0.05588802  0.89867139  1
  N  N415  1  0.05649804  0.39419710  0.90852690  1
  N  N416  1  0.05956517  0.71913522  0.90061578  1
  N  N417  1  0.55462608  0.05937250  0.91893308  1
  N  N418  1  0.56104497  0.39192763  0.90299434  1
  N  N419  1  0.54984506  0.72478806  0.91364387  1
  N  N420  1  0.05694616  0.27675718  0.08649994  1
  N  N421  1  0.04983907  0.60760185  0.08099995  1
  N  N422  1  0.06014553  0.94273535  0.09799913  1
  N  N423  1  0.57065801  0.27951083  0.10472604  1
  N  N424  1  0.55497539  0.61046258  0.09145406  1
  N  N425  1  0.55211284  0.94516661  0.08580026  1
  N  N426  1  0.44012023  0.05747672  0.59634266  1
  N  N427  1  0.43779060  0.39334311  0.58823802  1
  N  N428  1  0.44465211  0.72450576  0.58906294  1
  N  N429  1  0.93805618  0.05791806  0.59496828  1
  N  N430  1  0.93284836  0.39061994  0.59969593  1
  N  N431  1  0.93811556  0.72367454  0.60175215  1
  N  N432  1  0.18185634  0.11227552  0.40212114  1
  N  N433  1  0.18486110  0.44106481  0.40707647  1
  N  N434  1  0.18493655  0.78249734  0.40524800  1
  N  N435  1  0.68325818  0.11047449  0.40287933  1
  N  N436  1  0.68683729  0.44336572  0.40053639  1
  N  N437  1  0.67895878  0.77768693  0.39587848  1
  N  N438  1  0.31303900  0.22604853  0.89957775  1
  N  N439  1  0.31837450  0.56043146  0.90576898  1
  N  N440  1  0.31974671  0.89108572  0.90180146  1
  N  N441  1  0.81098482  0.22376582  0.90712780  1
  N  N442  1  0.82861045  0.55487026  0.89677160  1
  N  N443  1  0.82361845  0.88688523  0.90057383  1
  N  N444  1  0.31704385  0.11023028  0.10392817  1
  N  N445  1  0.32288306  0.44553400  0.10661630  1
  N  N446  1  0.31881866  0.77737549  0.09747240  1
  N  N447  1  0.81643129  0.11103764  0.10149549  1
  N  N448  1  0.81488244  0.44452997  0.09422724  1
  N  N449  1  0.82646021  0.77947940  0.09946689  1
  N  N450  1  0.18782400  0.22555393  0.59248109  1
  N  N451  1  0.19668084  0.55603553  0.58862261  1
  N  N452  1  0.17940635  0.89235229  0.60127746  1
  N  N453  1  0.67704080  0.21912229  0.60617464  1
  N  N454  1  0.69020022  0.55517427  0.59529097  1
  N  N455  1  0.68251196  0.89094548  0.60086113  1
  Cl  Cl456  1  0.25238067  0.05402099  0.60982464  1
  Cl  Cl457  1  0.24992465  0.38657096  0.61878830  1
  Cl  Cl458  1  0.25279864  0.73175123  0.60242131  1
  Cl  Cl459  1  0.75321904  0.05395798  0.62162612  1
  Cl  Cl460  1  0.74953194  0.39064453  0.61614986  1
  Cl  Cl461  1  0.75666696  0.71915466  0.61841401  1
  Cl  Cl462  1  0.24680397  0.27205650  0.09589859  1
  Cl  Cl463  1  0.23914876  0.61578477  0.11793485  1
  Cl  Cl464  1  0.24388338  0.94495922  0.12405193  1
  Cl  Cl465  1  0.75141346  0.28332426  0.12327257  1
  Cl  Cl466  1  0.73554569  0.61132232  0.12257696  1
  Cl  Cl467  1  0.73883176  0.94067680  0.10785010  1
  Cl  Cl468  1  0.24047839  0.05489888  0.87920959  1
  Cl  Cl469  1  0.24290862  0.38781726  0.89121360  1
  Cl  Cl470  1  0.24269818  0.71986749  0.87697574  1
  Cl  Cl471  1  0.74058339  0.05259224  0.88588089  1
  Cl  Cl472  1  0.74515343  0.38521293  0.88082117  1
  Cl  Cl473  1  0.73724052  0.72604970  0.88880914  1
  Cl  Cl474  1  0.25422925  0.28464287  0.36787422  1
  Cl  Cl475  1  0.24237064  0.61392308  0.38464879  1
  Cl  Cl476  1  0.25631927  0.94436185  0.39471873  1
  Cl  Cl477  1  0.75926943  0.27599200  0.38954897  1
  Cl  Cl478  1  0.74080974  0.60923638  0.39530531  1
  Cl  Cl479  1  0.75480981  0.95128962  0.37394911  1
  Cl  Cl480  1  -0.00620257  0.22745337  0.60818324  1
  Cl  Cl481  1  0.00322194  0.55074154  0.61326366  1
  Cl  Cl482  1  -0.00652940  0.88400060  0.61341070  1
  Cl  Cl483  1  0.49503360  0.22101178  0.62453225  1
  Cl  Cl484  1  0.50855192  0.55106143  0.62602029  1
  Cl  Cl485  1  0.49313002  0.89073832  0.61643480  1
  Cl  Cl486  1  0.00339886  0.11369241  0.11466623  1
  Cl  Cl487  1  0.01150207  0.44433842  0.10264889  1
  Cl  Cl488  1  0.00854528  0.77743251  0.12814208  1
  Cl  Cl489  1  0.50547385  0.11388216  0.11654957  1
  Cl  Cl490  1  0.50399377  0.44953508  0.11760267  1
  Cl  Cl491  1  0.50805705  0.77450928  0.10497247  1
  Cl  Cl492  1  0.00325463  0.22941249  0.89187935  1
  Cl  Cl493  1  0.00906327  0.54892244  0.87777109  1
  Cl  Cl494  1  0.00905858  0.88039875  0.87838286  1
  Cl  Cl495  1  0.49597587  0.22021623  0.89099013  1
  Cl  Cl496  1  0.51141653  0.55886233  0.89594590  1
  Cl  Cl497  1  0.50640195  0.89248316  0.89236864  1
  Cl  Cl498  1  -0.00150290  0.11761368  0.38247460  1
  Cl  Cl499  1  -0.00091178  0.44415304  0.37331746  1
  Cl  Cl500  1  -0.00224712  0.77095763  0.39753684  1
  Cl  Cl501  1  0.49632600  0.11375250  0.38296860  1
  Cl  Cl502  1  0.50161070  0.44197599  0.38706219  1
  Cl  Cl503  1  0.49479758  0.77698219  0.37994352  1
  Cl  Cl504  1  0.35847233  0.14836533  0.75272213  1
  Cl  Cl505  1  0.36456246  0.47999149  0.74984780  1
  Cl  Cl506  1  0.36500855  0.81040618  0.75642730  1
  Cl  Cl507  1  0.86047731  0.14718109  0.75144706  1
  Cl  Cl508  1  0.86368207  0.47812074  0.75245122  1
  Cl  Cl509  1  0.86145552  0.81361640  0.75139216  1
  Cl  Cl510  1  0.14631911  0.18703535  0.24905653  1
  Cl  Cl511  1  0.14299261  0.51605320  0.25158166  1
  Cl  Cl512  1  0.13967592  0.85179000  0.25468684  1
  Cl  Cl513  1  0.63791005  0.18849027  0.25285260  1
  Cl  Cl514  1  0.63616880  0.51884201  0.25326761  1
  Cl  Cl515  1  0.63803821  0.85194276  0.25474787  1
  Cl  Cl516  1  0.13659557  0.14772368  0.74921316  1
  Cl  Cl517  1  0.14347799  0.48260696  0.75003568  1
  Cl  Cl518  1  0.14658391  0.81248822  0.74203657  1
  Cl  Cl519  1  0.63815048  0.14821308  0.74982495  1
  Cl  Cl520  1  0.64609543  0.48029179  0.75164932  1
  Cl  Cl521  1  0.63619803  0.81285854  0.74530629  1
  Cl  Cl522  1  0.36440143  0.18768956  0.24358698  1
  Cl  Cl523  1  0.36453755  0.52224965  0.25057074  1
  Cl  Cl524  1  0.36203133  0.85332460  0.24596346  1
  Cl  Cl525  1  0.86253126  0.18690731  0.24556962  1
  Cl  Cl526  1  0.85769651  0.52208181  0.25258211  1
  Cl  Cl527  1  0.85903676  0.85145314  0.24986951  1
  Cl  Cl528  1  0.11260342  0.31284016  0.75416861  1
  Cl  Cl529  1  0.10954708  0.64891849  0.75156975  1
  Cl  Cl530  1  0.11256747  0.97914209  0.74456412  1
  Cl  Cl531  1  0.60884363  0.31395546  0.74964670  1
  Cl  Cl532  1  0.61525793  0.64618686  0.74433303  1
  Cl  Cl533  1  0.60636262  0.98290407  0.75180110  1
  Cl  Cl534  1  0.38593181  0.02110718  0.24267524  1
  Cl  Cl535  1  0.39353442  0.35402797  0.24266355  1
  Cl  Cl536  1  0.38532401  0.68802550  0.24767780  1
  Cl  Cl537  1  0.89199940  0.02078191  0.24786808  1
  Cl  Cl538  1  0.88886002  0.35437643  0.24304040  1
  Cl  Cl539  1  0.88364827  0.68735492  0.24879581  1
  Cl  Cl540  1  0.38981676  0.31472288  0.75595643  1
  Cl  Cl541  1  0.39403326  0.64581414  0.75226494  1
  Cl  Cl542  1  0.38553942  0.97996711  0.75704929  1
  Cl  Cl543  1  0.89110807  0.31219970  0.75233044  1
  Cl  Cl544  1  0.88779276  0.64492474  0.74838696  1
  Cl  Cl545  1  0.89205544  0.97876961  0.75001464  1
  Cl  Cl546  1  0.11236260  0.01982710  0.25312387  1
  Cl  Cl547  1  0.10995025  0.35125793  0.24808735  1
  Cl  Cl548  1  0.10824345  0.68437847  0.25449768  1
  Cl  Cl549  1  0.60852157  0.01774146  0.25144597  1
  Cl  Cl550  1  0.61391828  0.35415838  0.24700403  1
  Cl  Cl551  1  0.60603138  0.68492591  0.25622362  1
