# generated using pymatgen
data_H8PbC4(N3Cl2)2
_symmetry_space_group_name_H-M   'P 1'
_cell_length_a   16.61947017
_cell_length_b   22.50134182
_cell_length_c   21.58844054
_cell_angle_alpha   90.00148394
_cell_angle_beta   90.00902404
_cell_angle_gamma   89.99809157
_symmetry_Int_Tables_number   1
_chemical_formula_structural   H8PbC4(N3Cl2)2
_chemical_formula_sum   'H192 Pb24 C96 N144 Cl96'
_cell_volume   8073.22130525
_cell_formula_units_Z   24
loop_
 _symmetry_equiv_pos_site_id
 _symmetry_equiv_pos_as_xyz
  1  'x, y, z'
loop_
 _atom_site_type_symbol
 _atom_site_label
 _atom_site_symmetry_multiplicity
 _atom_site_fract_x
 _atom_site_fract_y
 _atom_site_fract_z
 _atom_site_occupancy
  H  H0  1  -0.00345726  0.03185222  0.68244972  1
  H  H1  1  -0.00512291  0.36718205  0.67975754  1
  H  H2  1  0.00227271  0.69861413  0.68170347  1
  H  H3  1  0.50456380  0.03225186  0.68160023  1
  H  H4  1  0.50531877  0.36652414  0.67987804  1
  H  H5  1  0.50655599  0.69909468  0.68202862  1
  H  H6  1  0.00224870  0.30251093  0.18186003  1
  H  H7  1  -0.00267125  0.63508294  0.17938498  1
  H  H8  1  0.00547022  0.96878553  0.17986959  1
  H  H9  1  0.50050980  0.30251421  0.18184437  1
  H  H10  1  0.49825127  0.63364766  0.18229217  1
  H  H11  1  0.50495884  0.96723086  0.17850225  1
  H  H12  1  -0.00348267  0.03097293  0.81883954  1
  H  H13  1  0.00923689  0.36486751  0.82026569  1
  H  H14  1  0.00435104  0.69939004  0.82001202  1
  H  H15  1  0.50034502  0.03174786  0.82238075  1
  H  H16  1  0.48857679  0.36865526  0.82466618  1
  H  H17  1  0.49888046  0.70087968  0.82158776  1
  H  H18  1  0.00086674  0.30198936  0.31892347  1
  H  H19  1  -0.00037161  0.63376412  0.31871259  1
  H  H20  1  0.00197800  0.96832260  0.31769126  1
  H  H21  1  0.50066342  0.30139574  0.32336578  1
  H  H22  1  0.49737631  0.63464157  0.32199958  1
  H  H23  1  0.49186008  0.96644143  0.32097701  1
  H  H24  1  0.23927644  0.19826355  0.67697497  1
  H  H25  1  0.25105568  0.53057778  0.68052800  1
  H  H26  1  0.25119261  0.86606376  0.68076367  1
  H  H27  1  0.76058057  0.19791283  0.67744997  1
  H  H28  1  0.74851623  0.53131772  0.68002597  1
  H  H29  1  0.74748157  0.86514709  0.68299726  1
  H  H30  1  0.24477994  0.13412286  0.18268157  1
  H  H31  1  0.24950883  0.46584781  0.17727927  1
  H  H32  1  0.24911969  0.80299210  0.17998785  1
  H  H33  1  0.75816175  0.13345356  0.17899250  1
  H  H34  1  0.75400769  0.46676604  0.18023122  1
  H  H35  1  0.74805344  0.80231615  0.17771448  1
  H  H36  1  0.25881256  0.19952589  0.82026175  1
  H  H37  1  0.25873918  0.53122143  0.81982752  1
  H  H38  1  0.24622916  0.86518226  0.82158294  1
  H  H39  1  0.74211934  0.19917150  0.81709491  1
  H  H40  1  0.73826904  0.53121035  0.81950010  1
  H  H41  1  0.74910289  0.86553657  0.82070951  1
  H  H42  1  0.25196185  0.13328731  0.31985614  1
  H  H43  1  0.25042948  0.46728559  0.31898591  1
  H  H44  1  0.24470066  0.80350257  0.31981533  1
  H  H45  1  0.74204993  0.13323440  0.31657747  1
  H  H46  1  0.74953604  0.46670906  0.32378963  1
  H  H47  1  0.74365393  0.80213777  0.31634113  1
  H  H48  1  0.12447769  0.05215247  0.61640207  1
  H  H49  1  0.12381716  0.38523525  0.61474909  1
  H  H50  1  0.11845141  0.72428298  0.60385648  1
  H  H51  1  0.61908780  0.05445118  0.60360158  1
  H  H52  1  0.62602858  0.38840647  0.60585306  1
  H  H53  1  0.61616373  0.72225368  0.60164931  1
  H  H54  1  0.37513792  0.28232211  0.11202045  1
  H  H55  1  0.37439457  0.61153761  0.10955376  1
  H  H56  1  0.37116948  0.94655930  0.11799755  1
  H  H57  1  0.87714321  0.27849736  0.11112552  1
  H  H58  1  0.87615269  0.61192845  0.10422599  1
  H  H59  1  0.87315028  0.94777688  0.11379067  1
  H  H60  1  0.37771156  0.05316303  0.89513353  1
  H  H61  1  0.38343944  0.39066305  0.90803282  1
  H  H62  1  0.37356460  0.72431812  0.89041844  1
  H  H63  1  0.87619094  0.05510616  0.89477682  1
  H  H64  1  0.87777973  0.38663979  0.88541855  1
  H  H65  1  0.87086119  0.71877075  0.88127101  1
  H  H66  1  0.12475746  0.28106672  0.39075084  1
  H  H67  1  0.12623487  0.61173733  0.38831264  1
  H  H68  1  0.12579755  0.94750915  0.39088468  1
  H  H69  1  0.62436015  0.28077999  0.39491051  1
  H  H70  1  0.62584819  0.61485632  0.38922940  1
  H  H71  1  0.62522669  0.94826979  0.38096745  1
  H  H72  1  0.37977710  0.21635536  0.62569951  1
  H  H73  1  0.37244400  0.55408232  0.60581743  1
  H  H74  1  0.37512045  0.88766283  0.60720180  1
  H  H75  1  0.86743594  0.22813982  0.59486852  1
  H  H76  1  0.87028016  0.55326199  0.60529349  1
  H  H77  1  0.87205204  0.88766323  0.61129897  1
  H  H78  1  0.12531871  0.11138251  0.10769654  1
  H  H79  1  0.12488879  0.44563029  0.10896196  1
  H  H80  1  0.12913893  0.77832187  0.10506725  1
  H  H81  1  0.62316065  0.11359204  0.11820815  1
  H  H82  1  0.62164933  0.44769861  0.11587557  1
  H  H83  1  0.62921261  0.77859457  0.10309026  1
  H  H84  1  0.12157061  0.21856836  0.87683267  1
  H  H85  1  0.12232618  0.55131971  0.87908010  1
  H  H86  1  0.12947855  0.88871399  0.89934289  1
  H  H87  1  0.62831999  0.22185023  0.89555096  1
  H  H88  1  0.63030247  0.55802895  0.90361728  1
  H  H89  1  0.62844762  0.88810883  0.89508033  1
  H  H90  1  0.37820771  0.11324313  0.38792974  1
  H  H91  1  0.37465675  0.44721108  0.38889318  1
  H  H92  1  0.38118127  0.78423489  0.37691980  1
  H  H93  1  0.87700776  0.11530561  0.37971646  1
  H  H94  1  0.87426759  0.44643613  0.39224132  1
  H  H95  1  0.87774840  0.78008426  0.37903471  1
  H  H96  1  0.37544366  0.27879916  0.39323015  1
  H  H97  1  0.37753571  0.60786278  0.39502519  1
  H  H98  1  0.37752508  0.94576044  0.39839159  1
  H  H99  1  0.87628559  0.28057523  0.39000371  1
  H  H100  1  0.87638542  0.61071152  0.38954512  1
  H  H101  1  0.87616726  0.94619033  0.38760127  1
  H  H102  1  0.12460799  0.05310875  0.88822570  1
  H  H103  1  0.12660746  0.38912968  0.89667055  1
  H  H104  1  0.11924456  0.72220718  0.89612690  1
  H  H105  1  0.62632082  0.05513556  0.89065997  1
  H  H106  1  0.62830846  0.38454550  0.87679541  1
  H  H107  1  0.62212249  0.71982335  0.89441077  1
  H  H108  1  0.12597077  0.28124632  0.11008415  1
  H  H109  1  0.12400223  0.61266525  0.11078399  1
  H  H110  1  0.12142940  0.94313689  0.10089031  1
  H  H111  1  0.62498144  0.27725239  0.11109211  1
  H  H112  1  0.62431283  0.61365318  0.11332378  1
  H  H113  1  0.61865541  0.94255762  0.09849389  1
  H  H114  1  0.37065355  0.05053472  0.62156814  1
  H  H115  1  0.37661189  0.38524327  0.61504466  1
  H  H116  1  0.36864381  0.71769561  0.62499669  1
  H  H117  1  0.87508711  0.05433347  0.61015335  1
  H  H118  1  0.87422622  0.38897309  0.60572022  1
  H  H119  1  0.86954030  0.71777172  0.61928879  1
  H  H120  1  0.12904483  0.11273306  0.39060311  1
  H  H121  1  0.12528178  0.44737579  0.38806608  1
  H  H122  1  0.13410716  0.77534816  0.40119267  1
  H  H123  1  0.62874510  0.10994088  0.39578112  1
  H  H124  1  0.62545514  0.44610423  0.39251347  1
  H  H125  1  0.62980496  0.77915746  0.39516389  1
  H  H126  1  0.36855539  0.22600755  0.90273292  1
  H  H127  1  0.37028359  0.55377651  0.90076491  1
  H  H128  1  0.37781856  0.88610275  0.88720815  1
  H  H129  1  0.87644829  0.21800185  0.87614465  1
  H  H130  1  0.87563464  0.55105982  0.87660838  1
  H  H131  1  0.87724267  0.88714981  0.88991329  1
  H  H132  1  0.37413829  0.11241829  0.11543526  1
  H  H133  1  0.37368508  0.44614884  0.10821649  1
  H  H134  1  0.37738273  0.78030079  0.11454456  1
  H  H135  1  0.87057773  0.10866648  0.09912131  1
  H  H136  1  0.87082539  0.44416080  0.10310129  1
  H  H137  1  0.87787687  0.77939391  0.11260447  1
  H  H138  1  0.13581271  0.22701655  0.59102668  1
  H  H139  1  0.12398294  0.55217988  0.60971673  1
  H  H140  1  0.12600113  0.88871584  0.60840345  1
  H  H141  1  0.62228533  0.21721197  0.62195421  1
  H  H142  1  0.62164211  0.55194781  0.61164988  1
  H  H143  1  0.62270699  0.88704412  0.61188600  1
  H  H144  1  0.29669142  0.25312627  1.00356869  1
  H  H145  1  0.54957115  0.75146237  0.49413967  1
  H  H146  1  0.93115638  0.58292894  0.00190316  1
  H  H147  1  0.21316575  0.25110811  0.49207458  1
  H  H148  1  0.42653973  0.57911505  0.00608126  1
  H  H149  1  0.92346595  0.58020626  0.49876514  1
  H  H150  1  0.41216607  0.41543936  0.50198337  1
  H  H151  1  0.05736380  0.74816434  0.50005915  1
  H  H152  1  0.33957586  0.91395378  0.99366244  1
  H  H153  1  0.35949699  0.75250407  0.49010569  1
  H  H154  1  0.69386359  0.08317314  0.50277377  1
  H  H155  1  0.42107140  0.26018562  -0.00070365  1
  H  H156  1  0.41871828  0.25112340  0.49906248  1
  H  H157  1  0.08842894  0.07844811  0.50428675  1
  H  H158  1  0.92946832  0.27493969  0.49686036  1
  H  H159  1  0.42961847  0.08770264  0.99528156  1
  H  H160  1  0.07024955  0.24019061  0.48903333  1
  H  H161  1  0.41754380  0.74340142  0.99604343  1
  H  H162  1  0.15083212  0.57743013  0.98741025  1
  H  H163  1  0.08830726  0.41589053  0.50200746  1
  H  H164  1  0.68962630  0.24301614  1.00566028  1
  H  H165  1  0.92388278  0.91873653  0.49720604  1
  H  H166  1  0.18089795  0.08208493  0.00041114  1
  H  H167  1  0.84111031  0.75140069  0.00553899  1
  H  H168  1  0.30477188  0.57699947  1.00863526  1
  H  H169  1  0.39503253  0.07724020  0.50778116  1
  H  H170  1  0.64430934  0.25294867  0.51616265  1
  H  H171  1  0.55910812  0.07779999  0.49424150  1
  H  H172  1  0.08117413  0.57913004  0.49191881  1
  H  H173  1  0.06235482  0.75200117  1.00446603  1
  H  H174  1  0.85005501  0.24477861  0.99010417  1
  H  H175  1  0.57133801  0.75890872  0.99260813  1
  H  H176  1  0.57373582  0.26360679  0.00262942  1
  H  H177  1  0.81396653  0.41572782  -0.00417221  1
  H  H178  1  0.69394325  0.75169279  0.50218072  1
  H  H179  1  0.20307438  0.75683504  0.50396368  1
  H  H180  1  0.90184233  0.74787799  0.50715536  1
  H  H181  1  0.43443161  0.59254756  0.49996649  1
  H  H182  1  0.66802724  0.91624309  0.50333245  1
  H  H183  1  0.83029081  0.91737436  0.99429999  1
  H  H184  1  0.58254298  0.07450753  0.99633995  1
  H  H185  1  0.92291379  0.08076955  0.50010425  1
  H  H186  1  0.07947876  0.25171494  0.00168000  1
  H  H187  1  0.65062651  0.41824844  0.00817471  1
  H  H188  1  0.57987340  0.58693815  0.00119192  1
  H  H189  1  0.79209749  0.24176368  0.49401020  1
  H  H190  1  0.70551308  0.58286081  1.00319936  1
  H  H191  1  0.58631221  0.57782795  0.49054241  1
  Pb  Pb192  1  0.25013173  0.04611174  0.75380692  1
  Pb  Pb193  1  0.24998899  0.37830115  0.75359326  1
  Pb  Pb194  1  0.24543870  0.71487006  0.74807645  1
  Pb  Pb195  1  0.74935517  0.04633578  0.74855514  1
  Pb  Pb196  1  0.75212064  0.38024236  0.75175029  1
  Pb  Pb197  1  0.74868373  0.71299848  0.74968034  1
  Pb  Pb198  1  0.24932403  0.28473423  0.24968574  1
  Pb  Pb199  1  0.25558104  0.61845782  0.24701855  1
  Pb  Pb200  1  0.25053745  0.95494243  0.24758925  1
  Pb  Pb201  1  0.75183422  0.28652574  0.25266755  1
  Pb  Pb202  1  0.75071380  0.62032618  0.24661199  1
  Pb  Pb203  1  0.75562754  0.95194674  0.24693834  1
  Pb  Pb204  1  0.00089517  0.21247198  0.73754243  1
  Pb  Pb205  1  0.00002813  0.54522292  0.74559062  1
  Pb  Pb206  1  -0.00050947  0.87897510  0.74916794  1
  Pb  Pb207  1  0.50019747  0.21422726  0.75729836  1
  Pb  Pb208  1  0.49833405  0.54821833  0.75259514  1
  Pb  Pb209  1  0.50013359  0.87937492  0.74989124  1
  Pb  Pb210  1  -0.00018503  0.11988477  0.24826667  1
  Pb  Pb211  1  -0.00023425  0.45469541  0.24982525  1
  Pb  Pb212  1  0.00702894  0.78449807  0.25411062  1
  Pb  Pb213  1  0.50434374  0.11748315  0.24885263  1
  Pb  Pb214  1  0.50128512  0.45202914  0.25132021  1
  Pb  Pb215  1  0.50241250  0.78818837  0.24448298  1
  C  C216  1  -0.00128753  0.04655338  0.63451258  1
  C  C217  1  -0.00174200  0.38095876  0.63179988  1
  C  C218  1  -0.00309417  0.71288539  0.63376738  1
  C  C219  1  0.49777121  0.04587886  0.63357189  1
  C  C220  1  0.50206081  0.38060833  0.63200946  1
  C  C221  1  0.49734711  0.71293442  0.63444522  1
  C  C222  1  0.00160776  0.28735513  0.13421114  1
  C  C223  1  -0.00123036  0.61989068  0.13169906  1
  C  C224  1  -0.00001628  0.95375936  0.13232393  1
  C  C225  1  0.50084479  0.28773442  0.13385928  1
  C  C226  1  0.49852785  0.61905268  0.13423991  1
  C  C227  1  0.49838738  0.95227877  0.13121932  1
  C  C228  1  -0.00088113  0.04582931  0.86654069  1
  C  C229  1  0.00422181  0.38014808  0.86758678  1
  C  C230  1  -0.00159462  0.71348294  0.86771415  1
  C  C231  1  0.50142209  0.04705511  0.87009345  1
  C  C232  1  0.50050913  0.38153862  0.87209708  1
  C  C233  1  0.49822350  0.71499455  0.86979940  1
  C  C234  1  0.00054258  0.28786715  0.36716188  1
  C  C235  1  0.00118520  0.61880239  0.36660547  1
  C  C236  1  0.00134663  0.95350228  0.36547454  1
  C  C237  1  0.49978043  0.28667730  0.37123657  1
  C  C238  1  0.50021300  0.61929595  0.36976097  1
  C  C239  1  0.49838335  0.95302323  0.36887663  1
  C  C240  1  0.25125770  0.21246432  0.62978953  1
  C  C241  1  0.24907994  0.54515362  0.63263629  1
  C  C242  1  0.25064917  0.88060310  0.63285734  1
  C  C243  1  0.75018345  0.21367058  0.63040339  1
  C  C244  1  0.74706639  0.54534176  0.63216279  1
  C  C245  1  0.74757550  0.88004584  0.63525884  1
  C  C246  1  0.24831539  0.11938122  0.13494010  1
  C  C247  1  0.24928964  0.45201818  0.12912006  1
  C  C248  1  0.25170392  0.78754861  0.13269912  1
  C  C249  1  0.75024761  0.11896275  0.13166177  1
  C  C250  1  0.74829134  0.45224277  0.13231491  1
  C  C251  1  0.75215358  0.78697591  0.13025549  1
  C  C252  1  0.25005925  0.21386767  0.86774449  1
  C  C253  1  0.24984455  0.54575533  0.86740698  1
  C  C254  1  0.25152731  0.88011742  0.86916134  1
  C  C255  1  0.74922231  0.21306391  0.86498752  1
  C  C256  1  0.74762897  0.54611937  0.86674511  1
  C  C257  1  0.75194735  0.88062075  0.86831810  1
  C  C258  1  0.25310309  0.11950512  0.36786265  1
  C  C259  1  0.25013774  0.45378164  0.36703928  1
  C  C260  1  0.25317226  0.78875165  0.36734423  1
  C  C261  1  0.74963337  0.11933941  0.36433387  1
  C  C262  1  0.74976441  0.45256687  0.37172969  1
  C  C263  1  0.75086389  0.78723782  0.36386325  1
  C  C264  1  0.04414312  0.40608459  0.53880655  1
  C  C265  1  0.20862269  0.42636354  0.03702197  1
  C  C266  1  0.55139919  0.92863986  0.45840610  1
  C  C267  1  0.70504168  0.56956871  0.53914888  1
  C  C268  1  0.80399994  0.23551259  0.95544893  1
  C  C269  1  0.18944267  0.24005352  0.95555801  1
  C  C270  1  0.72636296  0.76151842  0.45946574  1
  C  C271  1  0.53793090  0.40651908  0.53724053  1
  C  C272  1  0.71753082  0.75911099  0.03491910  1
  C  C273  1  0.56332346  0.40451350  0.95826233  1
  C  C274  1  0.77379618  0.08999539  0.03651756  1
  C  C275  1  0.96188254  0.59206879  0.45996315  1
  C  C276  1  0.03843967  0.26159292  0.04087886  1
  C  C277  1  0.44331823  0.06832238  0.54278055  1
  C  C278  1  0.29658155  0.09389360  0.46038385  1
  C  C279  1  0.02607957  0.74044684  0.96434453  1
  C  C280  1  0.21446062  0.09357497  0.46128426  1
  C  C281  1  0.31755588  0.23808491  0.54433926  1
  C  C282  1  0.71002440  0.90587695  0.54217773  1
  C  C283  1  0.79065801  0.42708607  0.46409498  1
  C  C284  1  0.48361846  0.40679396  0.96873429  1
  C  C285  1  0.45862999  0.26441795  0.04040546  1
  C  C286  1  0.21735143  0.09347419  0.04055449  1
  C  C287  1  0.94506484  0.73837805  0.54372255  1
  C  C288  1  0.54044808  0.26232144  0.46618065  1
  C  C289  1  0.52506690  0.06945903  0.53628016  1
  C  C290  1  0.20822154  0.42868722  0.46015146  1
  C  C291  1  0.04440880  0.07001959  0.54125627  1
  C  C292  1  0.54166402  0.59583385  0.04101048  1
  C  C293  1  0.94450791  0.73881104  0.95757137  1
  C  C294  1  0.03346979  0.40908252  0.96156597  1
  C  C295  1  0.44767482  0.92527320  0.04194998  1
  C  C296  1  0.77830657  0.42612325  0.03672847  1
  C  C297  1  0.28910928  0.42655729  0.03673533  1
  C  C298  1  0.70951139  0.42697805  0.46421002  1
  C  C299  1  0.31136536  0.76195441  0.45463481  1
  C  C300  1  0.45611480  0.40580696  0.53901113  1
  C  C301  1  0.27463360  0.56995286  0.96450910  1
  C  C302  1  0.29089509  0.42857514  0.46044450  1
  C  C303  1  0.43772409  0.73697737  0.54664126  1
  C  C304  1  0.96332120  0.92832523  0.45831083  1
  C  C305  1  0.29586190  0.75836338  0.04192431  1
  C  C306  1  0.47070035  0.92747193  0.46443733  1
  C  C307  1  0.51823965  0.73953034  0.53660422  1
  C  C308  1  0.72586741  0.09406667  0.46015523  1
  C  C309  1  0.72234850  0.23607621  0.96260654  1
  C  C310  1  0.96219063  0.07092619  0.53911721  1
  C  C311  1  0.96233881  0.40698689  0.53702672  1
  N  N312  1  0.53558618  0.73332404  0.96421326  1
  N  N313  1  0.95189761  0.92721253  0.04131649  1
  N  N314  1  0.96579088  0.07329013  0.96101231  1
  N  N315  1  0.46505000  0.06454302  0.96462541  1
  N  N316  1  0.02835487  0.92556428  0.03705038  1
  N  N317  1  0.54487672  0.59865227  0.46160154  1
  N  N318  1  0.79653574  0.75973952  0.03952260  1
  N  N319  1  0.52493947  0.92357945  0.03445829  1
  N  N320  1  0.23230493  0.75882690  0.46194532  1
  N  N321  1  0.78282630  0.57099632  0.53622147  1
  N  N322  1  0.95993321  0.26043421  0.45845692  1
  N  N323  1  0.46665494  0.58516043  0.46018731  1
  N  N324  1  0.04524779  0.59431561  0.03947023  1
  N  N325  1  0.45738994  0.74722970  0.95912719  1
  N  N326  1  0.21887521  0.90677958  0.96427341  1
  N  N327  1  0.19586603  0.57083820  0.95535291  1
  N  N328  1  0.69878916  0.42752796  0.04212487  1
  N  N329  1  0.21812513  0.75803674  0.03746535  1
  N  N330  1  0.73144882  0.57479743  0.96095508  1
  N  N331  1  0.26801713  0.24190910  0.96315431  1
  N  N332  1  0.53834777  0.26083937  0.04126589  1
  N  N333  1  0.29678895  0.09464672  0.04239868  1
  N  N334  1  0.80488250  0.09625631  0.45490732  1
  N  N335  1  0.46117808  0.26089986  0.46403451  1
  N  N336  1  0.46200569  0.59651134  0.04028535  1
  N  N337  1  0.04266446  0.92844291  0.45982333  1
  N  N338  1  0.76855814  0.24852796  0.53752330  1
  N  N339  1  0.80524044  0.76149993  0.45397169  1
  N  N340  1  0.04169485  0.59442782  0.45902941  1
  N  N341  1  0.78948933  0.90618685  0.54116540  1
  N  N342  1  0.80899936  0.57172142  0.95338976  1
  N  N343  1  0.95597214  0.40797836  0.95954330  1
  N  N344  1  0.28408196  0.57159187  0.53804434  1
  N  N345  1  0.79173323  0.90580171  0.95917083  1
  N  N346  1  0.96680638  0.59454211  0.03876056  1
  N  N347  1  0.95899544  0.26034015  0.04069376  1
  N  N348  1  0.69090386  0.23588660  0.54411549  1
  N  N349  1  0.03992137  0.26932025  0.46103014  1
  N  N350  1  0.29695115  0.90608295  0.95848654  1
  N  N351  1  0.02444308  0.74047399  0.53954479  1
  N  N352  1  0.69648548  0.09170553  0.04125424  1
  N  N353  1  0.23965557  0.24152684  0.53396741  1
  N  N354  1  0.28821324  0.90668967  0.53883893  1
  N  N355  1  0.71360771  0.90689281  0.96232412  1
  N  N356  1  0.04235825  0.07266435  0.95889933  1
  N  N357  1  0.54302819  0.07829403  0.95953084  1
  N  N358  1  0.20728576  0.57051009  0.53933344  1
  N  N359  1  0.21199537  0.90701908  0.53919062  1
  N  N360  1  0.06531978  0.05520546  0.60089488  1
  N  N361  1  0.06506675  0.38981356  0.59889426  1
  N  N362  1  0.05644294  0.72277796  0.59450764  1
  N  N363  1  0.55776419  0.05563067  0.59331351  1
  N  N364  1  0.56540246  0.39144589  0.59349246  1
  N  N365  1  0.55448968  0.72397033  0.59275354  1
  N  N366  1  0.43512304  0.27892022  0.09827778  1
  N  N367  1  0.43552619  0.60846528  0.09860750  1
  N  N368  1  0.42900098  0.94237306  0.10081678  1
  N  N369  1  0.93776420  0.27657402  0.09931627  1
  N  N370  1  0.93723159  0.60944179  0.09453485  1
  N  N371  1  0.93318320  0.94457342  0.10046950  1
  N  N372  1  0.43848897  0.05849706  0.90566922  1
  N  N373  1  0.44513398  0.39281166  0.91618199  1
  N  N374  1  0.43365757  0.72417085  0.90437905  1
  N  N375  1  0.93768314  0.05672972  0.90396075  1
  N  N376  1  0.93770108  0.38957045  0.89944471  1
  N  N377  1  0.92879180  0.72264998  0.89892641  1
  N  N378  1  0.06407136  0.27502364  0.40155369  1
  N  N379  1  0.06573166  0.60928726  0.40090572  1
  N  N380  1  0.06457205  0.94413665  0.40165880  1
  N  N381  1  0.56448539  0.27773551  0.40835587  1
  N  N382  1  0.56599919  0.60934207  0.40256785  1
  N  N383  1  0.56789216  0.94403198  0.39974612  1
  N  N384  1  0.32455536  0.22088563  0.60398689  1
  N  N385  1  0.31108778  0.55565890  0.59566688  1
  N  N386  1  0.31386198  0.89023145  0.59674477  1
  N  N387  1  0.80578783  0.22424419  0.58774480  1
  N  N388  1  0.80902444  0.55506972  0.59535249  1
  N  N389  1  0.81120044  0.89015183  0.59983295  1
  N  N390  1  0.18620644  0.10875421  0.09682129  1
  N  N391  1  0.18386845  0.44172082  0.09342287  1
  N  N392  1  0.19056999  0.77677903  0.09533017  1
  N  N393  1  0.68185666  0.11020568  0.10208943  1
  N  N394  1  0.68116316  0.44324928  0.10108751  1
  N  N395  1  0.68981216  0.77568132  0.09124952  1
  N  N396  1  0.17843987  0.22303424  0.89642615  1
  N  N397  1  0.18087708  0.55547464  0.89585680  1
  N  N398  1  0.19095004  0.89090471  0.90815950  1
  N  N399  1  0.68938290  0.22238158  0.90559768  1
  N  N400  1  0.69241438  0.55710102  0.90929515  1
  N  N401  1  0.68933548  0.89074999  0.90551199  1
  N  N402  1  0.31896682  0.10983852  0.40283201  1
  N  N403  1  0.31485851  0.44374164  0.40318153  1
  N  N404  1  0.32415745  0.77896245  0.39558852  1
  N  N405  1  0.81779335  0.11155690  0.39498663  1
  N  N406  1  0.81506360  0.44253836  0.40758199  1
  N  N407  1  0.81883643  0.77761334  0.39403917  1
  N  N408  1  0.43583892  0.27607664  0.40558147  1
  N  N409  1  0.43831227  0.60942670  0.40692159  1
  N  N410  1  0.43844638  0.94242616  0.40959498  1
  N  N411  1  0.93644731  0.28310218  0.40320159  1
  N  N412  1  0.93648708  0.60817152  0.40288409  1
  N  N413  1  0.93635853  0.94318756  0.40061283  1
  N  N414  1  0.06425545  0.05564165  0.90035729  1
  N  N415  1  0.06565591  0.39240976  0.90656193  1
  N  N416  1  0.05841380  0.72428241  0.90713007  1
  N  N417  1  0.56627576  0.05559370  0.90445271  1
  N  N418  1  0.57309959  0.38928734  0.89847343  1
  N  N419  1  0.56142463  0.72533856  0.90531814  1
  N  N420  1  0.06569145  0.27797437  0.09799889  1
  N  N421  1  0.06417509  0.61042699  0.09760640  1
  N  N422  1  0.05943598  0.94198858  0.09318220  1
  N  N423  1  0.56432483  0.27878704  0.09820314  1
  N  N424  1  0.56470906  0.61084616  0.09887862  1
  N  N425  1  0.55661342  0.94076588  0.09140555  1
  N  N426  1  0.42833153  0.05388622  0.60343715  1
  N  N427  1  0.43529931  0.38973023  0.59913816  1
  N  N428  1  0.42542128  0.72119723  0.60584568  1
  N  N429  1  0.93525612  0.05650746  0.59752674  1
  N  N430  1  0.93486557  0.39198668  0.59326706  1
  N  N431  1  0.92771048  0.72194454  0.60240208  1
  N  N432  1  0.18899018  0.10936519  0.40455025  1
  N  N433  1  0.18495939  0.44393226  0.40274559  1
  N  N434  1  0.19630982  0.77879406  0.40890071  1
  N  N435  1  0.69047828  0.10829447  0.40499676  1
  N  N436  1  0.68471178  0.44224071  0.40772942  1
  N  N437  1  0.69150087  0.77704431  0.40453814  1
  N  N438  1  0.30647530  0.22463640  0.90933987  1
  N  N439  1  0.30870548  0.55514321  0.90963165  1
  N  N440  1  0.31805739  0.88974649  0.90106603  1
  N  N441  1  0.81899522  0.22135935  0.89486654  1
  N  N442  1  0.81809437  0.55556187  0.89424761  1
  N  N443  1  0.81678151  0.89071629  0.90216275  1
  N  N444  1  0.31403715  0.11035290  0.10173248  1
  N  N445  1  0.31443054  0.44207291  0.09298296  1
  N  N446  1  0.31858090  0.77619208  0.09959157  1
  N  N447  1  0.80916445  0.10651281  0.09044605  1
  N  N448  1  0.80939881  0.44142628  0.09269084  1
  N  N449  1  0.81829777  0.77706099  0.09814464  1
  N  N450  1  0.19775086  0.22345161  0.58599143  1
  N  N451  1  0.18459438  0.55446364  0.59799743  1
  N  N452  1  0.18706113  0.89107741  0.59752573  1
  N  N453  1  0.67974356  0.22350804  0.60398418  1
  N  N454  1  0.68102592  0.55465503  0.59739215  1
  N  N455  1  0.68309241  0.89004675  0.59956739  1
  Cl  Cl456  1  0.24718843  0.05327153  0.62629454  1
  Cl  Cl457  1  0.25004924  0.37944839  0.62245570  1
  Cl  Cl458  1  0.23841743  0.72621055  0.60762880  1
  Cl  Cl459  1  0.74462018  0.05707312  0.61437433  1
  Cl  Cl460  1  0.75022056  0.38277788  0.62099750  1
  Cl  Cl461  1  0.74066980  0.71930693  0.61646162  1
  Cl  Cl462  1  0.25293066  0.27864065  0.11163166  1
  Cl  Cl463  1  0.25062462  0.60981754  0.10936722  1
  Cl  Cl464  1  0.24554975  0.94456390  0.11310597  1
  Cl  Cl465  1  0.74888296  0.27857406  0.11847365  1
  Cl  Cl466  1  0.74992795  0.61155134  0.10578109  1
  Cl  Cl467  1  0.74824700  0.94556715  0.11151181  1
  Cl  Cl468  1  0.25312163  0.05483539  0.88916817  1
  Cl  Cl469  1  0.25398961  0.38356768  0.88646898  1
  Cl  Cl470  1  0.25104448  0.71805328  0.87925156  1
  Cl  Cl471  1  0.75035006  0.05402672  0.88228389  1
  Cl  Cl472  1  0.75508031  0.38962281  0.88617872  1
  Cl  Cl473  1  0.74430262  0.72016209  0.88613326  1
  Cl  Cl474  1  0.24691794  0.27772241  0.39325461  1
  Cl  Cl475  1  0.25333664  0.61387717  0.37898439  1
  Cl  Cl476  1  0.25057130  0.95032384  0.37854585  1
  Cl  Cl477  1  0.75258430  0.27431004  0.39272442  1
  Cl  Cl478  1  0.74822305  0.61415353  0.37773083  1
  Cl  Cl479  1  0.75162054  0.94800541  0.37851325  1
  Cl  Cl480  1  -0.00007330  0.22949587  0.59786959  1
  Cl  Cl481  1  -0.00109557  0.55564327  0.60907312  1
  Cl  Cl482  1  -0.00007619  0.88539327  0.61493896  1
  Cl  Cl483  1  0.50267142  0.22194336  0.62243671  1
  Cl  Cl484  1  0.49602762  0.55696956  0.61002791  1
  Cl  Cl485  1  0.49825076  0.88529549  0.61776408  1
  Cl  Cl486  1  -0.00218358  0.11543704  0.12019289  1
  Cl  Cl487  1  -0.00485598  0.44946981  0.11875119  1
  Cl  Cl488  1  0.00277048  0.77736725  0.12026574  1
  Cl  Cl489  1  0.49810765  0.11123629  0.11062033  1
  Cl  Cl490  1  0.49939512  0.45076841  0.11884390  1
  Cl  Cl491  1  0.50369895  0.77603638  0.10702124  1
  Cl  Cl492  1  0.00055059  0.21942343  0.86912025  1
  Cl  Cl493  1  -0.00094161  0.55285751  0.88010412  1
  Cl  Cl494  1  0.00150289  0.88425717  0.88110244  1
  Cl  Cl495  1  0.49693026  0.22492319  0.89571559  1
  Cl  Cl496  1  0.50071754  0.55943282  0.89590434  1
  Cl  Cl497  1  0.50145954  0.88376567  0.88272831  1
  Cl  Cl498  1  0.00317635  0.11714724  0.38381287  1
  Cl  Cl499  1  0.00062948  0.44734800  0.38393227  1
  Cl  Cl500  1  0.01174345  0.77185086  0.39518935  1
  Cl  Cl501  1  0.50582752  0.11499128  0.38165944  1
  Cl  Cl502  1  0.49933148  0.44866107  0.38383291  1
  Cl  Cl503  1  0.50859101  0.78012738  0.37802560  1
  Cl  Cl504  1  0.36435327  0.14557748  0.74800692  1
  Cl  Cl505  1  0.36058594  0.47937574  0.75078517  1
  Cl  Cl506  1  0.36353163  0.80925673  0.75075971  1
  Cl  Cl507  1  0.86149854  0.14684688  0.74738920  1
  Cl  Cl508  1  0.86218328  0.47846786  0.75190391  1
  Cl  Cl509  1  0.86092826  0.80954455  0.75032859  1
  Cl  Cl510  1  0.13932078  0.19125899  0.25347255  1
  Cl  Cl511  1  0.13667646  0.52185143  0.24841773  1
  Cl  Cl512  1  0.13837751  0.85398482  0.25129553  1
  Cl  Cl513  1  0.63648139  0.18869381  0.24446208  1
  Cl  Cl514  1  0.63705311  0.52158434  0.24746233  1
  Cl  Cl515  1  0.63871409  0.85479380  0.24700268  1
  Cl  Cl516  1  0.13779785  0.14639533  0.75134163  1
  Cl  Cl517  1  0.13650382  0.47838367  0.75254158  1
  Cl  Cl518  1  0.13955698  0.81038242  0.74979398  1
  Cl  Cl519  1  0.63562069  0.14609320  0.74751602  1
  Cl  Cl520  1  0.63688581  0.47838636  0.75033499  1
  Cl  Cl521  1  0.63684178  0.81129733  0.75332250  1
  Cl  Cl522  1  0.36065055  0.19054621  0.24765706  1
  Cl  Cl523  1  0.36213931  0.52341510  0.24791479  1
  Cl  Cl524  1  0.36385769  0.85451509  0.24953107  1
  Cl  Cl525  1  0.86222228  0.19020374  0.25456557  1
  Cl  Cl526  1  0.86088927  0.52135719  0.25021062  1
  Cl  Cl527  1  0.85963204  0.85639368  0.25011172  1
  Cl  Cl528  1  0.11237342  0.31170047  0.74799639  1
  Cl  Cl529  1  0.11078476  0.64486978  0.74987033  1
  Cl  Cl530  1  0.11285533  0.97818151  0.75070989  1
  Cl  Cl531  1  0.61396735  0.31120019  0.75349794  1
  Cl  Cl532  1  0.60871169  0.64389787  0.75291294  1
  Cl  Cl533  1  0.61148274  0.97876470  0.75205960  1
  Cl  Cl534  1  0.38618715  0.02321933  0.24565335  1
  Cl  Cl535  1  0.39093160  0.35546774  0.25146507  1
  Cl  Cl536  1  0.38897878  0.68805156  0.24901360  1
  Cl  Cl537  1  0.88639998  0.02440848  0.25099661  1
  Cl  Cl538  1  0.88708660  0.35436175  0.25042907  1
  Cl  Cl539  1  0.88638495  0.68846899  0.25174365  1
  Cl  Cl540  1  0.38831202  0.31222604  0.74932574  1
  Cl  Cl541  1  0.39006887  0.64348647  0.74831857  1
  Cl  Cl542  1  0.38710246  0.97866411  0.75253977  1
  Cl  Cl543  1  0.88689338  0.31150221  0.75029026  1
  Cl  Cl544  1  0.88566917  0.64487704  0.75219035  1
  Cl  Cl545  1  0.88541094  0.97715532  0.74702792  1
  Cl  Cl546  1  0.11158041  0.02258121  0.25084554  1
  Cl  Cl547  1  0.11180115  0.35435715  0.25233956  1
  Cl  Cl548  1  0.10835402  0.68908328  0.25035441  1
  Cl  Cl549  1  0.60898116  0.02322535  0.24950717  1
  Cl  Cl550  1  0.61215221  0.35560017  0.25072739  1
  Cl  Cl551  1  0.61155241  0.68668488  0.24771046  1
