# generated using pymatgen
data_H8PbC4(N3Cl2)2
_symmetry_space_group_name_H-M   'P 1'
_cell_length_a   16.62306639
_cell_length_b   22.50648444
_cell_length_c   21.59080016
_cell_angle_alpha   90.00164089
_cell_angle_beta   90.00809272
_cell_angle_gamma   89.99333094
_symmetry_Int_Tables_number   1
_chemical_formula_structural   H8PbC4(N3Cl2)2
_chemical_formula_sum   'H192 Pb24 C96 N144 Cl96'
_cell_volume   8077.69651620
_cell_formula_units_Z   24
loop_
 _symmetry_equiv_pos_site_id
 _symmetry_equiv_pos_as_xyz
  1  'x, y, z'
loop_
 _atom_site_type_symbol
 _atom_site_label
 _atom_site_symmetry_multiplicity
 _atom_site_fract_x
 _atom_site_fract_y
 _atom_site_fract_z
 _atom_site_occupancy
  H  H0  1  0.00312358  0.03149112  0.67850365  1
  H  H1  1  0.00292945  0.36346007  0.67657704  1
  H  H2  1  0.00187633  0.69836651  0.68370340  1
  H  H3  1  0.49602173  0.03060378  0.67943216  1
  H  H4  1  0.49688960  0.36453479  0.67837883  1
  H  H5  1  0.50444623  0.69749962  0.68096264  1
  H  H6  1  -0.00138733  0.30119600  0.18048294  1
  H  H7  1  0.01273466  0.63435265  0.18289465  1
  H  H8  1  0.00986008  0.96878700  0.17681174  1
  H  H9  1  0.49460300  0.30211150  0.17932418  1
  H  H10  1  0.48736687  0.63512092  0.17595960  1
  H  H11  1  0.49100574  0.96789679  0.17950452  1
  H  H12  1  0.00102806  0.03154162  0.82124388  1
  H  H13  1  0.00223953  0.36532386  0.82241282  1
  H  H14  1  0.00103865  0.69827768  0.82388200  1
  H  H15  1  0.50390740  0.03124662  0.81708352  1
  H  H16  1  0.49629237  0.36420267  0.81832101  1
  H  H17  1  0.50949409  0.69965446  0.81845465  1
  H  H18  1  0.00244017  0.30279153  0.32117252  1
  H  H19  1  0.00262602  0.63649249  0.31922102  1
  H  H20  1  -0.00336547  0.97148929  0.32016821  1
  H  H21  1  0.49766575  0.30274411  0.31977692  1
  H  H22  1  0.49367443  0.63558619  0.32005470  1
  H  H23  1  0.48858735  0.96698260  0.32394696  1
  H  H24  1  0.24130342  0.19667107  0.67844433  1
  H  H25  1  0.25408032  0.53054314  0.68161597  1
  H  H26  1  0.24657353  0.86390434  0.68025989  1
  H  H27  1  0.74747639  0.19735604  0.68055671  1
  H  H28  1  0.73824275  0.53004052  0.67916707  1
  H  H29  1  0.76060690  0.86364843  0.68057511  1
  H  H30  1  0.25015201  0.13507973  0.18303312  1
  H  H31  1  0.25958947  0.46740826  0.18139039  1
  H  H32  1  0.25021610  0.80131609  0.18003908  1
  H  H33  1  0.74295985  0.13622399  0.17910856  1
  H  H34  1  0.74007602  0.46808500  0.18044927  1
  H  H35  1  0.74206678  0.80238968  0.18045599  1
  H  H36  1  0.25565664  0.19672015  0.82153470  1
  H  H37  1  0.24640839  0.53211351  0.81950030  1
  H  H38  1  0.24735200  0.86533973  0.81847225  1
  H  H39  1  0.73780736  0.19904349  0.82044515  1
  H  H40  1  0.74890516  0.52978852  0.82137282  1
  H  H41  1  0.74652282  0.86590995  0.82159828  1
  H  H42  1  0.24652016  0.13681318  0.32177109  1
  H  H43  1  0.25636533  0.46742980  0.32184105  1
  H  H44  1  0.24241881  0.80243674  0.31839843  1
  H  H45  1  0.75145258  0.13545595  0.31911971  1
  H  H46  1  0.74863005  0.47022437  0.32073341  1
  H  H47  1  0.74442642  0.80253641  0.31686906  1
  H  H48  1  0.11911718  0.05745407  0.60055768  1
  H  H49  1  0.12165133  0.38809214  0.60265608  1
  H  H50  1  0.11953498  0.71998957  0.60826666  1
  H  H51  1  0.62186257  0.05254941  0.61069747  1
  H  H52  1  0.62263618  0.38635931  0.61131075  1
  H  H53  1  0.61679335  0.72110772  0.60223384  1
  H  H54  1  0.38276572  0.27529155  0.09756874  1
  H  H55  1  0.38669506  0.60619519  0.08847525  1
  H  H56  1  0.37219542  0.94248729  0.10471394  1
  H  H57  1  0.87883022  0.27739963  0.10628259  1
  H  H58  1  0.87715945  0.61495248  0.12582434  1
  H  H59  1  0.86889185  0.95029274  0.12523733  1
  H  H60  1  0.37128338  0.05026988  0.87879948  1
  H  H61  1  0.37978476  0.38935743  0.89492728  1
  H  H62  1  0.37321077  0.71696584  0.87840310  1
  H  H63  1  0.87100953  0.05425212  0.88705291  1
  H  H64  1  0.87753504  0.38282337  0.89390686  1
  H  H65  1  0.87130997  0.72144493  0.88945896  1
  H  H66  1  0.12294205  0.27827432  0.39528356  1
  H  H67  1  0.12516882  0.61131723  0.39201382  1
  H  H68  1  0.13254297  0.94958484  0.37926120  1
  H  H69  1  0.62365479  0.28107437  0.38781441  1
  H  H70  1  0.62709311  0.61428839  0.38352805  1
  H  H71  1  0.62687072  0.95125513  0.37668128  1
  H  H72  1  0.37584444  0.21879016  0.61753424  1
  H  H73  1  0.37010888  0.55377225  0.60325508  1
  H  H74  1  0.37229161  0.88725148  0.60903118  1
  H  H75  1  0.87513446  0.22027995  0.61170400  1
  H  H76  1  0.87269858  0.55049225  0.61775899  1
  H  H77  1  0.86748662  0.89416225  0.59641867  1
  H  H78  1  0.12694042  0.11139797  0.11171590  1
  H  H79  1  0.12190265  0.44766747  0.12310303  1
  H  H80  1  0.12571716  0.77934277  0.10995065  1
  H  H81  1  0.63223836  0.11126850  0.09861241  1
  H  H82  1  0.62578875  0.44328698  0.09966938  1
  H  H83  1  0.63381802  0.77741136  0.09737638  1
  H  H84  1  0.11954415  0.21558997  0.88021274  1
  H  H85  1  0.12311920  0.55516348  0.89045393  1
  H  H86  1  0.13128509  0.88842486  0.89627062  1
  H  H87  1  0.62517240  0.22562655  0.89991554  1
  H  H88  1  0.61993703  0.55335357  0.88865468  1
  H  H89  1  0.63280294  0.88990186  0.90212354  1
  H  H90  1  0.37824219  0.11303155  0.38394207  1
  H  H91  1  0.37704550  0.44461697  0.39526304  1
  H  H92  1  0.38269231  0.78507983  0.37233348  1
  H  H93  1  0.87754682  0.11452212  0.38735740  1
  H  H94  1  0.87844817  0.44672538  0.38477982  1
  H  H95  1  0.87954241  0.78137236  0.37868055  1
  H  H96  1  0.37401704  0.28096386  0.38993617  1
  H  H97  1  0.37912563  0.60889921  0.39930489  1
  H  H98  1  0.38219514  0.94278564  0.40707496  1
  H  H99  1  0.87408253  0.27990088  0.38968301  1
  H  H100  1  0.87601177  0.61238796  0.38789406  1
  H  H101  1  0.88620504  0.94325278  0.40218774  1
  H  H102  1  0.11953221  0.05695805  0.89552101  1
  H  H103  1  0.12561387  0.39192213  0.89207331  1
  H  H104  1  0.12004263  0.72292013  0.89832512  1
  H  H105  1  0.61997462  0.05398170  0.89364402  1
  H  H106  1  0.62850228  0.38463894  0.88367774  1
  H  H107  1  0.61921673  0.72506228  0.90188250  1
  H  H108  1  0.12761106  0.27811524  0.11323489  1
  H  H109  1  0.12460110  0.61376647  0.10211383  1
  H  H110  1  0.11383399  0.93917396  0.09250958  1
  H  H111  1  0.63000176  0.28126804  0.11846369  1
  H  H112  1  0.62976794  0.61605030  0.12821064  1
  H  H113  1  0.62092890  0.94752952  0.11285945  1
  H  H114  1  0.37254494  0.05258147  0.61027713  1
  H  H115  1  0.37313608  0.38683096  0.60701946  1
  H  H116  1  0.36911862  0.71767586  0.62372459  1
  H  H117  1  0.87107659  0.05433199  0.61663011  1
  H  H118  1  0.87289495  0.38622518  0.61184376  1
  H  H119  1  0.87046626  0.71711115  0.62060477  1
  H  H120  1  0.13003195  0.11165002  0.39951346  1
  H  H121  1  0.12802448  0.44665473  0.38642416  1
  H  H122  1  0.13605991  0.77752474  0.40046221  1
  H  H123  1  0.62799880  0.11234344  0.38885620  1
  H  H124  1  0.63015580  0.44497005  0.39651983  1
  H  H125  1  0.63144353  0.77749024  0.39550334  1
  H  H126  1  0.36597732  0.22600062  0.90181780  1
  H  H127  1  0.37136215  0.55424583  0.88976753  1
  H  H128  1  0.38027948  0.88536704  0.88402415  1
  H  H129  1  0.87264150  0.21778145  0.88180625  1
  H  H130  1  0.86755669  0.55562361  0.89688626  1
  H  H131  1  0.88036546  0.88764497  0.88437155  1
  H  H132  1  0.37618687  0.11215869  0.11213084  1
  H  H133  1  0.36877830  0.44309667  0.09915659  1
  H  H134  1  0.37487379  0.78094210  0.11123222  1
  H  H135  1  0.87991172  0.11403411  0.12128509  1
  H  H136  1  0.87294763  0.44690359  0.11642621  1
  H  H137  1  0.88031568  0.78204182  0.12379178  1
  H  H138  1  0.12805201  0.22232868  0.59911483  1
  H  H139  1  0.12141318  0.55102055  0.61685166  1
  H  H140  1  0.12313472  0.88996606  0.60912633  1
  H  H141  1  0.62622477  0.22200156  0.60835575  1
  H  H142  1  0.62482678  0.55596411  0.59985178  1
  H  H143  1  0.62221158  0.88396442  0.62412760  1
  H  H144  1  0.91030822  0.41622119  0.50570551  1
  H  H145  1  0.06036610  0.59306464  -0.00696430  1
  H  H146  1  0.85293796  0.08875156  0.01262634  1
  H  H147  1  0.79168152  0.91461808  0.49564985  1
  H  H148  1  0.41497563  0.08182351  0.49892617  1
  H  H149  1  0.91124770  0.75047558  0.99615053  1
  H  H150  1  0.17629601  0.08293747  0.00293222  1
  H  H151  1  0.58056057  0.41693519  0.49940781  1
  H  H152  1  0.20696112  0.74920165  0.50708095  1
  H  H153  1  0.14760952  0.25080107  0.98581077  1
  H  H154  1  0.33141762  0.75297065  -0.00089084  1
  H  H155  1  0.69710515  0.74922540  0.50224264  1
  H  H156  1  0.31822989  0.59772619  0.98703949  1
  H  H157  1  0.46826918  0.58146646  -0.00924789  1
  H  H158  1  0.69846134  0.08419133  -0.00802897  1
  H  H159  1  0.67125775  0.08462502  0.49923815  1
  H  H160  1  0.92530161  0.42333621  0.99220705  1
  H  H161  1  0.44151178  0.41685859  1.00256150  1
  H  H162  1  0.17329603  0.91819663  0.50082065  1
  H  H163  1  0.70506379  0.75086648  -0.00679619  1
  H  H164  1  0.30700747  0.58001217  0.49594169  1
  H  H165  1  0.92186481  0.58328979  0.49702590  1
  H  H166  1  0.54595518  0.75508708  1.00088890  1
  H  H167  1  0.16459973  0.41720352  0.49966486  1
  H  H168  1  0.83840621  0.08686086  0.49860257  1
  H  H169  1  0.90048300  0.58720616  0.01227867  1
  H  H170  1  0.58369964  0.25204256  0.49854360  1
  H  H171  1  0.29541589  0.23878396  1.00400688  1
  H  H172  1  0.29814181  0.41569284  -0.00575176  1
  H  H173  1  0.56277665  0.07807358  1.00347874  1
  H  H174  1  0.17763839  0.56216661  0.99745188  1
  H  H175  1  0.44705396  0.58045175  0.50082590  1
  H  H176  1  0.84715564  0.91389413  0.99287188  1
  H  H177  1  0.06396306  0.74543892  0.49800138  1
  H  H178  1  0.41806821  0.25246904  0.50011582  1
  H  H179  1  0.60968690  0.92330826  0.49255006  1
  H  H180  1  0.45408932  0.25078036  -0.00365374  1
  H  H181  1  0.93242857  0.24980363  -0.00134953  1
  H  H182  1  0.39151195  0.74860122  0.50950641  1
  H  H183  1  0.19332755  0.91451017  1.00377876  1
  H  H184  1  0.03805725  0.91341426  -0.00672193  1
  H  H185  1  0.92011699  0.24947499  0.49395211  1
  H  H186  1  0.90282754  0.74515315  0.50792684  1
  H  H187  1  0.66010581  0.57982752  0.99552902  1
  H  H188  1  0.55319380  0.74924244  0.49425999  1
  H  H189  1  0.95821291  0.92002399  0.50330115  1
  H  H190  1  0.07898296  0.40972007  0.99773704  1
  H  H191  1  0.40149537  0.07735192  0.99184594  1
  Pb  Pb192  1  0.24785959  0.04621052  0.74872375  1
  Pb  Pb193  1  0.24394283  0.38209413  0.75105312  1
  Pb  Pb194  1  0.24580130  0.71281472  0.75169372  1
  Pb  Pb195  1  0.74416377  0.04920855  0.75276110  1
  Pb  Pb196  1  0.74984118  0.37776301  0.74921321  1
  Pb  Pb197  1  0.74313715  0.71525750  0.75045502  1
  Pb  Pb198  1  0.25227433  0.28733328  0.24547212  1
  Pb  Pb199  1  0.25773601  0.61742983  0.24444744  1
  Pb  Pb200  1  0.25379695  0.95412015  0.24711488  1
  Pb  Pb201  1  0.75596795  0.28570607  0.25084141  1
  Pb  Pb202  1  0.75267251  0.62142023  0.25178042  1
  Pb  Pb203  1  0.75421426  0.95346139  0.25565708  1
  Pb  Pb204  1  -0.00104682  0.21195931  0.74501822  1
  Pb  Pb205  1  -0.00790731  0.54776759  0.75318732  1
  Pb  Pb206  1  -0.00154811  0.88356488  0.74626093  1
  Pb  Pb207  1  0.49369930  0.21554315  0.75534432  1
  Pb  Pb208  1  0.49797034  0.54510458  0.74600128  1
  Pb  Pb209  1  0.49707590  0.87954745  0.75288721  1
  Pb  Pb210  1  0.00485929  0.11975718  0.25074927  1
  Pb  Pb211  1  0.00106057  0.45413403  0.24984957  1
  Pb  Pb212  1  0.00658873  0.78543353  0.25187158  1
  Pb  Pb213  1  0.50330356  0.12005738  0.24681238  1
  Pb  Pb214  1  0.50652748  0.45155987  0.24642568  1
  Pb  Pb215  1  0.50486315  0.78758999  0.24200717  1
  C  C216  1  -0.00202581  0.04753430  0.63148939  1
  C  C217  1  -0.00123044  0.37932095  0.62929310  1
  C  C218  1  -0.00300128  0.71225464  0.63564332  1
  C  C219  1  0.49637060  0.04529954  0.63167081  1
  C  C220  1  0.49804709  0.37983019  0.63084313  1
  C  C221  1  0.49630970  0.71223368  0.63342502  1
  C  C222  1  0.00204619  0.28610943  0.13281661  1
  C  C223  1  0.00455447  0.62069360  0.13506649  1
  C  C224  1  -0.00230418  0.95346115  0.13003636  1
  C  C225  1  0.50207821  0.28729721  0.13186560  1
  C  C226  1  0.50111679  0.61998806  0.12938875  1
  C  C227  1  0.49492160  0.95282923  0.13209188  1
  C  C228  1  -0.00329512  0.04705874  0.86843336  1
  C  C229  1  0.00180567  0.38024686  0.87030395  1
  C  C230  1  -0.00308676  0.71416887  0.87110784  1
  C  C231  1  0.49808428  0.04547030  0.86497376  1
  C  C232  1  0.50169229  0.37959101  0.86573838  1
  C  C233  1  0.50090261  0.71420300  0.86586869  1
  C  C234  1  -0.00056116  0.28699722  0.36860710  1
  C  C235  1  0.00136869  0.62019777  0.36645010  1
  C  C236  1  0.00488791  0.95606112  0.36734553  1
  C  C237  1  0.49849611  0.28774701  0.36760515  1
  C  C238  1  0.49964617  0.61990026  0.36735053  1
  C  C239  1  0.50022983  0.95359097  0.37129728  1
  C  C240  1  0.24870619  0.21214578  0.63138830  1
  C  C241  1  0.24843122  0.54524633  0.63393156  1
  C  C242  1  0.24728184  0.87982639  0.63285601  1
  C  C243  1  0.74996805  0.21288432  0.63328817  1
  C  C244  1  0.74555118  0.54545535  0.63208381  1
  C  C245  1  0.75047090  0.87930199  0.63370591  1
  C  C246  1  0.25131743  0.11960664  0.13539527  1
  C  C247  1  0.24968387  0.45305693  0.13396624  1
  C  C248  1  0.25085089  0.78673768  0.13227203  1
  C  C249  1  0.75236385  0.12065283  0.13195659  1
  C  C250  1  0.74611991  0.45347019  0.13279630  1
  C  C251  1  0.75248324  0.78752485  0.13328816  1
  C  C252  1  0.24688056  0.21241028  0.86876245  1
  C  C253  1  0.24697451  0.54716224  0.86741908  1
  C  C254  1  0.25324112  0.87974575  0.86619433  1
  C  C255  1  0.74545030  0.21372804  0.86771308  1
  C  C256  1  0.74503352  0.54573619  0.86869187  1
  C  C257  1  0.75377576  0.88095797  0.86903339  1
  C  C258  1  0.25144162  0.12082079  0.36880365  1
  C  C259  1  0.25316925  0.45296508  0.36960493  1
  C  C260  1  0.25353550  0.78841322  0.36569584  1
  C  C261  1  0.75236521  0.12039141  0.36693156  1
  C  C262  1  0.75230037  0.45429202  0.36786091  1
  C  C263  1  0.75216498  0.78741583  0.36425024  1
  C  C264  1  0.56099026  0.93116742  0.45966264  1
  C  C265  1  0.73468101  0.76126397  0.03695705  1
  C  C266  1  0.79798354  0.42611065  0.45846032  1
  C  C267  1  0.72874461  0.76042557  0.45959374  1
  C  C268  1  0.23627266  0.76095770  0.46368442  1
  C  C269  1  0.94981979  0.07618482  0.54207183  1
  C  C270  1  0.03206349  0.74383006  0.96573160  1
  C  C271  1  0.52128824  0.73883126  0.53683363  1
  C  C272  1  0.45881974  0.26239980  0.46198558  1
  C  C273  1  0.21168758  0.90715299  0.53982310  1
  C  C274  1  0.71286226  0.09502672  0.46136240  1
  C  C275  1  0.02900552  0.59836804  0.03690027  1
  C  C276  1  0.22665051  0.90464435  0.96155089  1
  C  C277  1  0.03328820  0.40938953  0.53466719  1
  C  C278  1  0.29114707  0.76171518  0.03766867  1
  C  C279  1  0.72108406  0.57561182  0.53767406  1
  C  C280  1  0.94760984  0.59709630  0.04580665  1
  C  C281  1  0.96219724  0.59349515  0.45863461  1
  C  C282  1  0.45815417  0.40683643  0.53742034  1
  C  C283  1  0.45715973  0.07185162  0.53711994  1
  C  C284  1  0.43974089  0.73808557  0.54451818  1
  C  C285  1  0.29907528  0.09198530  0.45834478  1
  C  C286  1  0.71521616  0.24117699  0.53980812  1
  C  C287  1  0.97005417  0.26047316  0.03849978  1
  C  C288  1  0.57015252  0.59298252  0.04624012  1
  C  C289  1  0.93279387  0.92662409  0.04502012  1
  C  C290  1  0.02804286  0.07675518  0.96226728  1
  C  C291  1  0.22431304  0.24204400  0.53691035  1
  C  C292  1  0.53975595  0.40685851  0.53727894  1
  C  C293  1  0.27437539  0.57030468  0.53846413  1
  C  C294  1  0.21533446  0.09322515  0.04223656  1
  C  C295  1  0.20777001  0.42711419  0.46261494  1
  C  C296  1  0.20959010  0.76088494  0.03894877  1
  C  C297  1  0.31628087  0.76427762  0.45207186  1
  C  C298  1  0.28937969  0.42664180  0.46408960  1
  C  C299  1  0.44625661  0.06840043  0.95625945  1
  C  C300  1  0.46437283  0.92440451  0.03838229  1
  C  C301  1  0.72850356  0.09361940  0.03563304  1
  C  C302  1  0.53884469  0.07152662  0.53876110  1
  C  C303  1  0.48056353  0.92823189  0.46871855  1
  C  C304  1  0.26848869  0.42596510  0.03799653  1
  C  C305  1  0.54106637  0.26218839  0.46121195  1
  C  C306  1  0.79516708  0.09568297  0.46085687  1
  C  C307  1  0.47476808  0.40662103  0.96040097  1
  C  C308  1  0.52813040  0.06924279  0.96173022  1
  C  C309  1  0.72172868  0.24343182  0.96246422  1
  C  C310  1  0.94682589  0.73577850  0.54396133  1
  C  C311  1  0.02878955  0.73635021  0.53934008  1
  N  N312  1  0.55366201  0.59511654  0.45686344  1
  N  N313  1  0.54153385  0.92618515  0.03957791  1
  N  N314  1  0.06299752  0.92851429  0.45449013  1
  N  N315  1  0.44205068  0.73623514  0.95435450  1
  N  N316  1  0.79902823  0.24067934  0.95822278  1
  N  N317  1  0.04045658  0.41262949  0.96024260  1
  N  N318  1  0.81328017  0.76229758  0.04547767  1
  N  N319  1  0.29087272  0.90655444  0.53958832  1
  N  N320  1  0.28770977  0.56726838  0.96065671  1
  N  N321  1  0.80281550  0.90624785  0.95765128  1
  N  N322  1  0.79617385  0.42931452  0.04163968  1
  N  N323  1  0.55908096  0.26130723  0.04372301  1
  N  N324  1  0.71977408  0.42764553  0.03644409  1
  N  N325  1  0.30566763  0.90386715  0.95741396  1
  N  N326  1  0.19543668  0.56993417  0.54302826  1
  N  N327  1  0.01069670  0.92275539  0.03495547  1
  N  N328  1  0.79840435  0.57433936  0.54209390  1
  N  N329  1  0.19144508  0.23350665  0.95675231  1
  N  N330  1  0.51948888  0.73870101  0.96115170  1
  N  N331  1  0.48151887  0.25939968  0.03816534  1
  N  N332  1  0.03708885  0.25949021  0.46238446  1
  N  N333  1  0.70241504  0.57221860  0.95893711  1
  N  N334  1  0.04147791  0.59327856  0.46065261  1
  N  N335  1  0.79314500  0.24037276  0.53992134  1
  N  N336  1  0.26943373  0.24613505  0.96135184  1
  N  N337  1  0.30152461  0.24138015  0.54165484  1
  N  N338  1  0.22179525  0.09096321  0.46453955  1
  N  N339  1  0.68951476  0.90443167  0.54757828  1
  N  N340  1  0.72516101  0.90690735  0.96500842  1
  N  N341  1  0.02706600  0.07718263  0.53556083  1
  N  N342  1  0.95031811  0.07551825  0.96046440  1
  N  N343  1  0.95324352  0.74226589  0.96170972  1
  N  N344  1  0.49265419  0.59003991  0.03385913  1
  N  N345  1  0.95416980  0.40814825  0.53922809  1
  N  N346  1  0.80753106  0.76182502  0.45387171  1
  N  N347  1  0.76634449  0.90704767  0.53898036  1
  N  N348  1  0.80731411  0.09349345  0.04489215  1
  N  N349  1  0.98537753  0.92563150  0.46061837  1
  N  N350  1  0.47603510  0.59327647  0.46119057  1
  N  N351  1  0.95899347  0.26084972  0.45898387  1
  N  N352  1  0.78073216  0.57309109  0.96283536  1
  N  N353  1  0.18976223  0.42716373  0.04581736  1
  N  N354  1  0.55382426  0.40588389  0.95648354  1
  N  N355  1  0.20734812  0.57625770  0.95848487  1
  N  N356  1  0.04955032  0.26161964  0.03978939  1
  N  N357  1  0.29469902  0.09374517  0.04188499  1
  N  N358  1  0.96240233  0.39830867  0.96432430  1
  N  N359  1  0.72030173  0.42493895  0.46346018  1
  N  N360  1  0.05720390  0.05896349  0.59259778  1
  N  N361  1  0.06102756  0.39153164  0.59052881  1
  N  N362  1  0.05856672  0.72194808  0.59683560  1
  N  N363  1  0.56216463  0.05568337  0.59598873  1
  N  N364  1  0.56334061  0.39019696  0.59659692  1
  N  N365  1  0.55527693  0.72276400  0.59241362  1
  N  N366  1  0.44489581  0.27706084  0.09060490  1
  N  N367  1  0.44919658  0.60890705  0.08458551  1
  N  N368  1  0.43268590  0.94040682  0.09392392  1
  N  N369  1  0.93982669  0.27536255  0.09498760  1
  N  N370  1  0.93420651  0.61092124  0.10668840  1
  N  N371  1  0.92451112  0.94455129  0.10426087  1
  N  N372  1  0.42921423  0.05393806  0.89601004  1
  N  N373  1  0.44100862  0.39114049  0.90497119  1
  N  N374  1  0.43115786  0.72053918  0.89522969  1
  N  N375  1  0.93080620  0.05674293  0.90085589  1
  N  N376  1  0.93785196  0.38994723  0.90511275  1
  N  N377  1  0.93083226  0.72384987  0.90337238  1
  N  N378  1  0.06178420  0.27619786  0.40579004  1
  N  N379  1  0.06421535  0.60990760  0.40280710  1
  N  N380  1  0.07438962  0.94521920  0.39560759  1
  N  N381  1  0.56409707  0.27786573  0.40208951  1
  N  N382  1  0.56783345  0.61129657  0.39834550  1
  N  N383  1  0.57190643  0.94682309  0.39799944  1
  N  N384  1  0.31685325  0.22230306  0.60188998  1
  N  N385  1  0.30863823  0.55549675  0.59399169  1
  N  N386  1  0.31120091  0.88966160  0.59763938  1
  N  N387  1  0.81459742  0.22259935  0.59930579  1
  N  N388  1  0.81363969  0.55537838  0.60248530  1
  N  N389  1  0.80524660  0.89024860  0.59065884  1
  N  N390  1  0.18742485  0.10875885  0.09931126  1
  N  N391  1  0.18008950  0.44434013  0.10581588  1
  N  N392  1  0.18568431  0.77585626  0.09605096  1
  N  N393  1  0.69398136  0.10953027  0.08989372  1
  N  N394  1  0.68750898  0.44238267  0.09279206  1
  N  N395  1  0.69612352  0.77652223  0.09035497  1
  N  N396  1  0.17751329  0.22271111  0.89672756  1
  N  N397  1  0.18325804  0.55283797  0.90366072  1
  N  N398  1  0.19278793  0.89020666  0.90585978  1
  N  N399  1  0.68623182  0.22676382  0.90852915  1
  N  N400  1  0.67970030  0.55525771  0.90195628  1
  N  N401  1  0.69492479  0.89167549  0.90953424  1
  N  N402  1  0.31973330  0.10969109  0.40025094  1
  N  N403  1  0.31662021  0.44206418  0.40794265  1
  N  N404  1  0.32658621  0.78055501  0.39284416  1
  N  N405  1  0.81791019  0.11121572  0.40160011  1
  N  N406  1  0.81961360  0.44351034  0.40041915  1
  N  N407  1  0.82050800  0.77822347  0.39409549  1
  N  N408  1  0.43388122  0.27811366  0.40353022  1
  N  N409  1  0.44115595  0.60812916  0.40711075  1
  N  N410  1  0.44391108  0.94156650  0.41544676  1
  N  N411  1  0.93448797  0.27677403  0.40221720  1
  N  N412  1  0.93605387  0.60938807  0.40101399  1
  N  N413  1  0.94857062  0.94544604  0.40904386  1
  N  N414  1  0.05854066  0.05940636  0.90683236  1
  N  N415  1  0.06565396  0.39035170  0.90545004  1
  N  N416  1  0.05936668  0.72641764  0.90968462  1
  N  N417  1  0.55898387  0.05525878  0.90443936  1
  N  N418  1  0.56875948  0.38917266  0.89744778  1
  N  N419  1  0.55691256  0.72699178  0.90720348  1
  N  N420  1  0.06784688  0.27732194  0.09958833  1
  N  N421  1  0.06334860  0.61281460  0.09312786  1
  N  N422  1  0.05148536  0.94129645  0.08697061  1
  N  N423  1  0.57130020  0.27762026  0.10262007  1
  N  N424  1  0.57527014  0.61035475  0.10575899  1
  N  N425  1  0.56084911  0.94396758  0.09926644  1
  N  N426  1  0.43213416  0.05547182  0.59626529  1
  N  N427  1  0.43319900  0.39051887  0.59392754  1
  N  N428  1  0.42608336  0.72161707  0.60476745  1
  N  N429  1  0.92939190  0.05853847  0.60024261  1
  N  N430  1  0.93254970  0.38947694  0.59748721  1
  N  N431  1  0.92861867  0.72102000  0.60398553  1
  N  N432  1  0.19193003  0.10945823  0.40749181  1
  N  N433  1  0.18662804  0.44362032  0.40260761  1
  N  N434  1  0.19792559  0.77629986  0.40833169  1
  N  N435  1  0.68789822  0.11026781  0.40258780  1
  N  N436  1  0.69181032  0.44308677  0.40563827  1
  N  N437  1  0.69322133  0.77619267  0.40500612  1
  N  N438  1  0.30413731  0.22225075  0.91016077  1
  N  N439  1  0.31092842  0.56061603  0.90093876  1
  N  N440  1  0.32050038  0.88855067  0.89791400  1
  N  N441  1  0.81371606  0.22206156  0.89760337  1
  N  N442  1  0.80644540  0.55721469  0.90643990  1
  N  N443  1  0.82144697  0.89022078  0.89954855  1
  N  N444  1  0.31553241  0.10994504  0.10048351  1
  N  N445  1  0.30668890  0.44139496  0.09167503  1
  N  N446  1  0.31569996  0.77753527  0.09710200  1
  N  N447  1  0.82161124  0.11115839  0.10387015  1
  N  N448  1  0.81357224  0.44518112  0.10141105  1
  N  N449  1  0.82244482  0.77843580  0.10593391  1
  N  N450  1  0.18940945  0.22453065  0.59060093  1
  N  N451  1  0.18112223  0.55448053  0.60250142  1
  N  N452  1  0.18321970  0.89082207  0.59683910  1
  N  N453  1  0.68671362  0.22448705  0.59609056  1
  N  N454  1  0.68604865  0.55821686  0.59144761  1
  N  N455  1  0.67982524  0.88819110  0.60647585  1
  Cl  Cl456  1  0.24471984  0.05330572  0.62060682  1
  Cl  Cl457  1  0.24557037  0.38496551  0.61875792  1
  Cl  Cl458  1  0.24149470  0.71966625  0.61861176  1
  Cl  Cl459  1  0.74634829  0.05181724  0.62055373  1
  Cl  Cl460  1  0.74979425  0.38475829  0.61834825  1
  Cl  Cl461  1  0.73961176  0.72036135  0.61699909  1
  Cl  Cl462  1  0.26028588  0.27178795  0.10371711  1
  Cl  Cl463  1  0.25939595  0.60711285  0.10060893  1
  Cl  Cl464  1  0.23795930  0.94133332  0.11169741  1
  Cl  Cl465  1  0.75483367  0.27836454  0.11883555  1
  Cl  Cl466  1  0.75292603  0.61562649  0.12006167  1
  Cl  Cl467  1  0.74425633  0.95077063  0.12420974  1
  Cl  Cl468  1  0.24183849  0.05518261  0.88357115  1
  Cl  Cl469  1  0.25295197  0.38997222  0.88862522  1
  Cl  Cl470  1  0.24510707  0.71657323  0.88503127  1
  Cl  Cl471  1  0.74538134  0.05628526  0.88890756  1
  Cl  Cl472  1  0.75553952  0.38162576  0.88093323  1
  Cl  Cl473  1  0.74185962  0.72270957  0.88901124  1
  Cl  Cl474  1  0.24611527  0.28129943  0.37664885  1
  Cl  Cl475  1  0.25737778  0.61012680  0.38035096  1
  Cl  Cl476  1  0.26011240  0.94639804  0.38032356  1
  Cl  Cl477  1  0.75093175  0.28063811  0.38289777  1
  Cl  Cl478  1  0.75107877  0.61399847  0.38246383  1
  Cl  Cl479  1  0.76834783  0.93633987  0.39716960  1
  Cl  Cl480  1  0.00015912  0.22302120  0.61201670  1
  Cl  Cl481  1  -0.00310272  0.54867929  0.62119698  1
  Cl  Cl482  1  -0.01268376  0.89720057  0.60570565  1
  Cl  Cl483  1  0.50298797  0.22066350  0.62252565  1
  Cl  Cl484  1  0.49389748  0.55610430  0.60886704  1
  Cl  Cl485  1  0.49592493  0.88601731  0.62005932  1
  Cl  Cl486  1  0.00366556  0.11187856  0.11754075  1
  Cl  Cl487  1  -0.00289577  0.44293763  0.11370664  1
  Cl  Cl488  1  0.00457460  0.78245287  0.11726342  1
  Cl  Cl489  1  0.50569064  0.11169047  0.11134390  1
  Cl  Cl490  1  0.49473029  0.44650566  0.11012877  1
  Cl  Cl491  1  0.51071710  0.77559095  0.10468648  1
  Cl  Cl492  1  -0.00280402  0.21772916  0.87922349  1
  Cl  Cl493  1  -0.00347129  0.55559862  0.88955363  1
  Cl  Cl494  1  0.00746142  0.88977236  0.89147412  1
  Cl  Cl495  1  0.48840485  0.22813524  0.89539261  1
  Cl  Cl496  1  0.49314571  0.55836209  0.89278143  1
  Cl  Cl497  1  0.50958988  0.88434398  0.88497855  1
  Cl  Cl498  1  0.00362004  0.11455494  0.38150860  1
  Cl  Cl499  1  0.00118683  0.44328319  0.38199185  1
  Cl  Cl500  1  0.00948477  0.77942531  0.38504675  1
  Cl  Cl501  1  0.50245968  0.11091706  0.37803504  1
  Cl  Cl502  1  0.50374733  0.44721862  0.38099602  1
  Cl  Cl503  1  0.51085445  0.77824913  0.37540066  1
  Cl  Cl504  1  0.36025677  0.14670044  0.75062209  1
  Cl  Cl505  1  0.36326196  0.47858488  0.75607103  1
  Cl  Cl506  1  0.36044186  0.81137817  0.75320129  1
  Cl  Cl507  1  0.86194140  0.14514331  0.75198332  1
  Cl  Cl508  1  0.85874003  0.48037808  0.75002599  1
  Cl  Cl509  1  0.85943997  0.81254327  0.75251391  1
  Cl  Cl510  1  0.13989003  0.18799157  0.24562300  1
  Cl  Cl511  1  0.13542908  0.52317983  0.24435518  1
  Cl  Cl512  1  0.14182819  0.85325630  0.25090939  1
  Cl  Cl513  1  0.64010644  0.18770312  0.24875639  1
  Cl  Cl514  1  0.64093752  0.52178257  0.24999021  1
  Cl  Cl515  1  0.64297481  0.85358835  0.25059976  1
  Cl  Cl516  1  0.13803688  0.14697056  0.75417066  1
  Cl  Cl517  1  0.14226806  0.47908555  0.75286855  1
  Cl  Cl518  1  0.13596129  0.81329786  0.74927309  1
  Cl  Cl519  1  0.64088701  0.14441974  0.75172891  1
  Cl  Cl520  1  0.63553777  0.47873377  0.75481851  1
  Cl  Cl521  1  0.63896912  0.81253751  0.74761850  1
  Cl  Cl522  1  0.36417544  0.18637479  0.24796271  1
  Cl  Cl523  1  0.35595165  0.51992607  0.25125479  1
  Cl  Cl524  1  0.36503854  0.85253684  0.24948039  1
  Cl  Cl525  1  0.86173792  0.18795901  0.24817293  1
  Cl  Cl526  1  0.86449879  0.52181921  0.24748491  1
  Cl  Cl527  1  0.86622875  0.85548603  0.24624927  1
  Cl  Cl528  1  0.10953098  0.31353936  0.75471326  1
  Cl  Cl529  1  0.11165408  0.64370593  0.75510567  1
  Cl  Cl530  1  0.10728336  0.97679668  0.74937015  1
  Cl  Cl531  1  0.61209430  0.31225321  0.75270828  1
  Cl  Cl532  1  0.60716319  0.64750477  0.75189969  1
  Cl  Cl533  1  0.61033299  0.97886822  0.74656213  1
  Cl  Cl534  1  0.39247884  0.01971488  0.24814294  1
  Cl  Cl535  1  0.38730267  0.35512907  0.24922965  1
  Cl  Cl536  1  0.39279414  0.68614845  0.24796141  1
  Cl  Cl537  1  0.88760322  0.02278589  0.24468336  1
  Cl  Cl538  1  0.89106448  0.35362537  0.25171347  1
  Cl  Cl539  1  0.88716682  0.69118899  0.24691995  1
  Cl  Cl540  1  0.39220162  0.31164268  0.74941348  1
  Cl  Cl541  1  0.38457493  0.64474425  0.75351589  1
  Cl  Cl542  1  0.38563410  0.97896456  0.75597634  1
  Cl  Cl543  1  0.89036566  0.31408384  0.74950612  1
  Cl  Cl544  1  0.89119273  0.64587342  0.75044233  1
  Cl  Cl545  1  0.88909282  0.97666654  0.75450573  1
  Cl  Cl546  1  0.11019039  0.01823931  0.25152260  1
  Cl  Cl547  1  0.11303342  0.35400386  0.24291608  1
  Cl  Cl548  1  0.10848113  0.68678103  0.24976945  1
  Cl  Cl549  1  0.61677191  0.01987452  0.25492981  1
  Cl  Cl550  1  0.60754561  0.35462327  0.24662669  1
  Cl  Cl551  1  0.61316514  0.68517173  0.24680831  1
