# generated using pymatgen
data_H8PbC4(N3Cl2)2
_symmetry_space_group_name_H-M   'P 1'
_cell_length_a   16.62496769
_cell_length_b   22.51153300
_cell_length_c   21.59218521
_cell_angle_alpha   89.99930880
_cell_angle_beta   89.99999176
_cell_angle_gamma   90.00155052
_symmetry_Int_Tables_number   1
_chemical_formula_structural   H8PbC4(N3Cl2)2
_chemical_formula_sum   'H192 Pb24 C96 N144 Cl96'
_cell_volume   8080.95107635
_cell_formula_units_Z   24
loop_
 _symmetry_equiv_pos_site_id
 _symmetry_equiv_pos_as_xyz
  1  'x, y, z'
loop_
 _atom_site_type_symbol
 _atom_site_label
 _atom_site_symmetry_multiplicity
 _atom_site_fract_x
 _atom_site_fract_y
 _atom_site_fract_z
 _atom_site_occupancy
  H  H0  1  -0.00643947  0.03011610  0.67857859  1
  H  H1  1  0.00069573  0.36234651  0.67578615  1
  H  H2  1  -0.00178952  0.69704416  0.68087174  1
  H  H3  1  0.50599094  0.03315607  0.67800455  1
  H  H4  1  0.50319016  0.36610918  0.67967760  1
  H  H5  1  0.49683920  0.69681898  0.67684592  1
  H  H6  1  -0.01312473  0.30339275  0.17415387  1
  H  H7  1  -0.00475385  0.63598769  0.17759816  1
  H  H8  1  0.00317969  0.96863344  0.17640747  1
  H  H9  1  0.51454688  0.30136401  0.18196233  1
  H  H10  1  0.51051134  0.63371258  0.18068257  1
  H  H11  1  0.50685685  0.97208346  0.17903943  1
  H  H12  1  0.00295556  0.02767910  0.81813335  1
  H  H13  1  -0.00378141  0.36524859  0.82555890  1
  H  H14  1  0.00982483  0.69550699  0.82064265  1
  H  H15  1  0.49259623  0.03031516  0.82381834  1
  H  H16  1  0.50844652  0.36141852  0.82239327  1
  H  H17  1  0.50282795  0.69729224  0.81745107  1
  H  H18  1  -0.01537912  0.30129170  0.32463681  1
  H  H19  1  0.01524592  0.63329272  0.32466408  1
  H  H20  1  0.01318758  0.97064536  0.32390152  1
  H  H21  1  0.50107123  0.30534003  0.32260741  1
  H  H22  1  0.49815000  0.63737645  0.31945781  1
  H  H23  1  0.48971695  0.97029572  0.31845066  1
  H  H24  1  0.25216794  0.19654646  0.68301112  1
  H  H25  1  0.24752075  0.52880429  0.68030280  1
  H  H26  1  0.25982795  0.86011204  0.68258826  1
  H  H27  1  0.75337726  0.19537607  0.67786328  1
  H  H28  1  0.74413554  0.52866984  0.67969021  1
  H  H29  1  0.74149827  0.86621922  0.67932467  1
  H  H30  1  0.23485656  0.13573141  0.17837219  1
  H  H31  1  0.24630326  0.46969934  0.17938993  1
  H  H32  1  0.24230114  0.80699969  0.17955733  1
  H  H33  1  0.76159233  0.13606725  0.17482767  1
  H  H34  1  0.74872938  0.46914738  0.18021734  1
  H  H35  1  0.75397042  0.80544405  0.18186660  1
  H  H36  1  0.25503243  0.19838411  0.82209923  1
  H  H37  1  0.25453608  0.52844824  0.82065074  1
  H  H38  1  0.24869122  0.86514783  0.82217904  1
  H  H39  1  0.74707542  0.20147266  0.81927954  1
  H  H40  1  0.74146886  0.53043532  0.82008794  1
  H  H41  1  0.74216139  0.86280109  0.82037424  1
  H  H42  1  0.24514729  0.13653804  0.32258146  1
  H  H43  1  0.26353340  0.47059469  0.32391893  1
  H  H44  1  0.25041718  0.80081690  0.31918651  1
  H  H45  1  0.74376578  0.13870482  0.32153409  1
  H  H46  1  0.74247815  0.47287210  0.32325461  1
  H  H47  1  0.75441018  0.80118495  0.32046617  1
  H  H48  1  0.11609386  0.05541297  0.60698770  1
  H  H49  1  0.12174642  0.38844440  0.60218877  1
  H  H50  1  0.13441908  0.71591250  0.62413424  1
  H  H51  1  0.61341605  0.05963383  0.59402074  1
  H  H52  1  0.61768177  0.38980004  0.60310679  1
  H  H53  1  0.63206659  0.71679610  0.61744108  1
  H  H54  1  0.37606040  0.28317813  0.12397461  1
  H  H55  1  0.36798736  0.61758201  0.13081253  1
  H  H56  1  0.37341480  0.94889282  0.11797494  1
  H  H57  1  0.87809079  0.27531212  0.09227085  1
  H  H58  1  0.87138115  0.61117955  0.10758190  1
  H  H59  1  0.87161318  0.94685885  0.11281062  1
  H  H60  1  0.38303190  0.05707366  0.90668347  1
  H  H61  1  0.37012540  0.38274147  0.87625974  1
  H  H62  1  0.37423780  0.72151313  0.88548881  1
  H  H63  1  0.87910098  0.05799613  0.88772145  1
  H  H64  1  0.87184134  0.38621125  0.89398724  1
  H  H65  1  0.87182679  0.71532162  0.87519668  1
  H  H66  1  0.12551818  0.28668661  0.37381761  1
  H  H67  1  0.11766539  0.60660767  0.41064641  1
  H  H68  1  0.11580311  0.93908923  0.40884476  1
  H  H69  1  0.63230424  0.28110166  0.38492298  1
  H  H70  1  0.61796659  0.61276853  0.39048284  1
  H  H71  1  0.61977337  0.94767726  0.38225791  1
  H  H72  1  0.36949955  0.22434597  0.60582616  1
  H  H73  1  0.37803617  0.55111366  0.61545248  1
  H  H74  1  0.37878898  0.88524535  0.60605135  1
  H  H75  1  0.86641149  0.22412072  0.59841995  1
  H  H76  1  0.87485636  0.55198508  0.61481895  1
  H  H77  1  0.87968824  0.88752209  0.62313357  1
  H  H78  1  0.12828210  0.10578056  0.09438102  1
  H  H79  1  0.13302764  0.44315798  0.09952075  1
  H  H80  1  0.13130013  0.77779379  0.09881125  1
  H  H81  1  0.62014433  0.11771271  0.12304561  1
  H  H82  1  0.63390121  0.44265584  0.10249637  1
  H  H83  1  0.62990959  0.78102177  0.10893171  1
  H  H84  1  0.12420565  0.22155767  0.88665043  1
  H  H85  1  0.13148559  0.55230800  0.89324916  1
  H  H86  1  0.12750934  0.88957813  0.89462954  1
  H  H87  1  0.62975206  0.22191131  0.89425782  1
  H  H88  1  0.63156063  0.55839959  0.90197909  1
  H  H89  1  0.63014421  0.89130750  0.90085073  1
  H  H90  1  0.38034961  0.11529051  0.38295223  1
  H  H91  1  0.37442474  0.44087343  0.40313200  1
  H  H92  1  0.36627023  0.77644148  0.39761226  1
  H  H93  1  0.87993610  0.11618127  0.38222491  1
  H  H94  1  0.87869362  0.45083810  0.38065491  1
  H  H95  1  0.86211498  0.77465051  0.40226234  1
  H  H96  1  0.38281514  0.27831196  0.39821503  1
  H  H97  1  0.36835224  0.61653757  0.38579974  1
  H  H98  1  0.37096555  0.94301275  0.39421962  1
  H  H99  1  0.88207658  0.27364273  0.40960119  1
  H  H100  1  0.87414559  0.61717178  0.37307703  1
  H  H101  1  0.87203594  0.95030115  0.37345638  1
  H  H102  1  0.12847361  0.05110795  0.88671203  1
  H  H103  1  0.12061100  0.38644793  0.89353648  1
  H  H104  1  0.11828730  0.72718893  0.90233690  1
  H  H105  1  0.62931876  0.05026433  0.88088794  1
  H  H106  1  0.61666290  0.39203232  0.90446490  1
  H  H107  1  0.62284745  0.72115437  0.89109011  1
  H  H108  1  0.12451582  0.28422840  0.11678665  1
  H  H109  1  0.12066649  0.61013723  0.10868249  1
  H  H110  1  0.12019888  0.94172616  0.10185553  1
  H  H111  1  0.62261778  0.27486881  0.09977585  1
  H  H112  1  0.61259315  0.60938347  0.09479742  1
  H  H113  1  0.62140625  0.94380001  0.10182230  1
  H  H114  1  0.36761081  0.05279186  0.62273503  1
  H  H115  1  0.36921577  0.38529620  0.61849168  1
  H  H116  1  0.38494958  0.72376235  0.59668236  1
  H  H117  1  0.86736557  0.05629447  0.60917108  1
  H  H118  1  0.87375300  0.38652097  0.60733334  1
  H  H119  1  0.88691013  0.71990068  0.60043666  1
  H  H120  1  0.13221850  0.11063015  0.40102743  1
  H  H121  1  0.12744174  0.44922046  0.38284534  1
  H  H122  1  0.11790420  0.77934343  0.38210399  1
  H  H123  1  0.63301095  0.10982906  0.40333006  1
  H  H124  1  0.63260687  0.44202795  0.40278248  1
  H  H125  1  0.61536484  0.78136451  0.37608925  1
  H  H126  1  0.37343120  0.22177173  0.89708657  1
  H  H127  1  0.38034732  0.55382237  0.88907568  1
  H  H128  1  0.37643617  0.88727389  0.88648631  1
  H  H129  1  0.87876891  0.22046826  0.88306698  1
  H  H130  1  0.87872858  0.54742874  0.87744027  1
  H  H131  1  0.87707752  0.88524209  0.88197418  1
  H  H132  1  0.37324399  0.11611352  0.12203461  1
  H  H133  1  0.38076162  0.44828510  0.11859293  1
  H  H134  1  0.37849857  0.78333863  0.12330653  1
  H  H135  1  0.86403874  0.10682422  0.08882655  1
  H  H136  1  0.88262082  0.44749368  0.11678346  1
  H  H137  1  0.87843889  0.77846898  0.11067086  1
  H  H138  1  0.12101064  0.21926459  0.61545309  1
  H  H139  1  0.12947468  0.55513235  0.60417130  1
  H  H140  1  0.13053639  0.88822640  0.61984887  1
  H  H141  1  0.61898501  0.21747319  0.61807224  1
  H  H142  1  0.62629074  0.55656368  0.60555036  1
  H  H143  1  0.63330552  0.89376426  0.59766988  1
  H  H144  1  0.19505880  0.08295912  0.50848674  1
  H  H145  1  0.70473757  0.42544611  0.50461891  1
  H  H146  1  0.70295388  0.92114675  0.49205520  1
  H  H147  1  0.38925708  0.41573844  0.98900185  1
  H  H148  1  0.78286963  0.09245594  -0.01073331  1
  H  H149  1  0.06753477  0.41659286  0.49920504  1
  H  H150  1  0.04709992  0.74938272  1.00356398  1
  H  H151  1  0.63649941  0.08329453  0.01443104  1
  H  H152  1  0.07195503  0.57683401  0.00454300  1
  H  H153  1  0.33879244  0.91890137  0.99881477  1
  H  H154  1  0.55027748  0.24622562  -0.00451723  1
  H  H155  1  0.89336164  0.75020372  0.98681763  1
  H  H156  1  0.03686126  0.91695988  0.50843247  1
  H  H157  1  0.33869049  0.58428049  0.99911418  1
  H  H158  1  0.69860293  0.41209543  -0.00359196  1
  H  H159  1  0.34262373  0.58321835  0.50586661  1
  H  H160  1  0.11321224  0.74301177  0.50996990  1
  H  H161  1  0.70065241  0.58644946  1.00225833  1
  H  H162  1  0.58232321  0.92295992  0.49595011  1
  H  H163  1  0.91555708  0.08744962  0.50595370  1
  H  H164  1  0.31913258  0.25163939  1.00517357  1
  H  H165  1  0.95108560  0.74561353  0.49299683  1
  H  H166  1  0.90919807  0.91564022  0.00650073  1
  H  H167  1  0.56836889  0.75285459  0.99835545  1
  H  H168  1  0.92976483  0.07784299  0.99501763  1
  H  H169  1  0.56793942  0.58254149  0.50092325  1
  H  H170  1  0.53723452  0.58332594  -0.00928921  1
  H  H171  1  0.16758103  0.91545926  0.50758751  1
  H  H172  1  0.35348244  0.75117240  0.01145395  1
  H  H173  1  0.44188543  0.25401495  0.50239605  1
  H  H174  1  0.68611630  0.24711397  1.00589118  1
  H  H175  1  0.31632313  0.89027966  0.49925599  1
  H  H176  1  0.59990492  0.24970298  0.49613290  1
  H  H177  1  0.79225316  0.74438552  0.50696704  1
  H  H178  1  0.20563457  0.07995866  -0.00463735  1
  H  H179  1  0.85736278  0.91305360  0.51238307  1
  H  H180  1  0.88555147  0.58691836  0.48875151  1
  H  H181  1  0.08237998  0.07883383  0.99824540  1
  H  H182  1  0.43042974  0.93310918  0.50090693  1
  H  H183  1  0.16137012  0.25139861  0.99268641  1
  H  H184  1  0.20007184  0.75701500  -0.00361816  1
  H  H185  1  0.63646563  0.75155802  0.48584007  1
  H  H186  1  0.85108380  0.41083045  0.48369040  1
  H  H187  1  0.55744788  0.41874703  0.49372100  1
  H  H188  1  0.11406683  0.25418156  0.48866579  1
  H  H189  1  0.54446636  0.41530303  1.00550209  1
  H  H190  1  0.85678405  0.57768442  0.99025756  1
  H  H191  1  0.35287320  0.08745196  0.49161390  1
  Pb  Pb192  1  0.25439520  0.04878297  0.75484486  1
  Pb  Pb193  1  0.24716732  0.37947115  0.74726144  1
  Pb  Pb194  1  0.25552865  0.71571106  0.75666740  1
  Pb  Pb195  1  0.74964320  0.04818662  0.75011908  1
  Pb  Pb196  1  0.75402135  0.38250009  0.74857010  1
  Pb  Pb197  1  0.75235513  0.71282365  0.74499734  1
  Pb  Pb198  1  0.24621493  0.28476371  0.24944266  1
  Pb  Pb199  1  0.24329501  0.61829201  0.25641512  1
  Pb  Pb200  1  0.24686775  0.95254390  0.25657204  1
  Pb  Pb201  1  0.75214496  0.28650524  0.24636651  1
  Pb  Pb202  1  0.74380449  0.61640254  0.24102247  1
  Pb  Pb203  1  0.74302791  0.95211764  0.24992520  1
  Pb  Pb204  1  -0.00049528  0.21363235  0.74654420  1
  Pb  Pb205  1  0.00658818  0.54814977  0.75246909  1
  Pb  Pb206  1  0.00357194  0.88193349  0.75034461  1
  Pb  Pb207  1  0.50249332  0.21626675  0.74830362  1
  Pb  Pb208  1  0.50144059  0.54681756  0.74960795  1
  Pb  Pb209  1  0.50585299  0.88214760  0.74418255  1
  Pb  Pb210  1  -0.00495071  0.11685364  0.24347263  1
  Pb  Pb211  1  0.00175037  0.45331189  0.25078186  1
  Pb  Pb212  1  -0.00570685  0.78435152  0.24865583  1
  Pb  Pb213  1  0.49993586  0.12128814  0.25500369  1
  Pb  Pb214  1  0.49599385  0.45006896  0.25011604  1
  Pb  Pb215  1  0.49409253  0.78478022  0.24871330  1
  C  C216  1  -0.00803306  0.04714973  0.63162873  1
  C  C217  1  -0.00113454  0.37853793  0.62847512  1
  C  C218  1  0.00688494  0.71121184  0.63321108  1
  C  C219  1  0.49573358  0.04835143  0.63115468  1
  C  C220  1  0.49686034  0.38027190  0.63201145  1
  C  C221  1  0.50455980  0.71255730  0.62988981  1
  C  C222  1  -0.00319230  0.28811300  0.12731169  1
  C  C223  1  -0.00374799  0.61946360  0.13046548  1
  C  C224  1  -0.00203228  0.95234099  0.12936874  1
  C  C225  1  0.50402977  0.28713185  0.13460371  1
  C  C226  1  0.49705526  0.62050781  0.13350581  1
  C  C227  1  0.50029713  0.95531175  0.13246906  1
  C  C228  1  0.00282296  0.04391067  0.86555123  1
  C  C229  1  -0.00376310  0.37975664  0.87362473  1
  C  C230  1  0.00017819  0.71135385  0.86766315  1
  C  C231  1  0.50152340  0.04511227  0.87094820  1
  C  C232  1  0.49856502  0.37760612  0.86933029  1
  C  C233  1  0.49955018  0.71316881  0.86488719  1
  C  C234  1  -0.00148461  0.28700445  0.37134357  1
  C  C235  1  0.00131148  0.61893033  0.37135419  1
  C  C236  1  0.00052995  0.95497265  0.37043701  1
  C  C237  1  0.50502325  0.28870054  0.36983408  1
  C  C238  1  0.49520999  0.62223378  0.36696121  1
  C  C239  1  0.49286002  0.95506151  0.36618839  1
  C  C240  1  0.24753382  0.21228720  0.63562491  1
  C  C241  1  0.25172954  0.54495728  0.63314964  1
  C  C242  1  0.25705715  0.87593354  0.63505967  1
  C  C243  1  0.74640521  0.21192590  0.63118190  1
  C  C244  1  0.74880061  0.54535563  0.63302517  1
  C  C245  1  0.75234141  0.88098619  0.63211440  1
  C  C246  1  0.24482087  0.12041073  0.13137383  1
  C  C247  1  0.25329428  0.45396297  0.13237610  1
  C  C248  1  0.25055218  0.79067375  0.13250701  1
  C  C249  1  0.74842186  0.12051736  0.12815383  1
  C  C250  1  0.75539685  0.45362757  0.13287727  1
  C  C251  1  0.75407200  0.78899402  0.13465324  1
  C  C252  1  0.25049501  0.21395521  0.86966961  1
  C  C253  1  0.25542897  0.54500036  0.86774094  1
  C  C254  1  0.25150532  0.88073951  0.86954027  1
  C  C255  1  0.75161773  0.21491017  0.86728027  1
  C  C256  1  0.75046014  0.54534696  0.86756718  1
  C  C257  1  0.74977478  0.87872239  0.86749216  1
  C  C258  1  0.25307869  0.12062520  0.36980044  1
  C  C259  1  0.25488291  0.45408172  0.37042584  1
  C  C260  1  0.24490750  0.78578515  0.36652663  1
  C  C261  1  0.75208472  0.12244023  0.36843085  1
  C  C262  1  0.75136469  0.45588027  0.36996432  1
  C  C263  1  0.74320644  0.78541034  0.36732897  1
  C  C264  1  0.44279027  0.40523866  0.54233062  1
  C  C265  1  0.44765009  0.59617234  0.45836917  1
  C  C266  1  0.55592063  0.06899767  0.95965796  1
  C  C267  1  0.55514575  0.25959332  0.45926271  1
  C  C268  1  0.03646355  0.40590459  0.96529904  1
  C  C269  1  0.53173373  0.74108946  0.95839621  1
  C  C270  1  0.97745150  0.25793795  0.03190569  1
  C  C271  1  0.28353855  0.24113059  0.96439432  1
  C  C272  1  0.72105638  0.23834257  0.96426836  1
  C  C273  1  0.27686513  0.42058110  0.46411725  1
  C  C274  1  0.43783246  0.40693720  0.95466526  1
  C  C275  1  0.22686191  0.09298835  0.46569003  1
  C  C276  1  0.42937706  0.59794388  0.04858612  1
  C  C277  1  0.55626951  0.73866390  0.54100528  1
  C  C278  1  0.69509111  0.24030547  0.54273234  1
  C  C279  1  0.93611633  0.59443728  0.45736365  1
  C  C280  1  0.30775155  0.76103416  0.04607167  1
  C  C281  1  0.73050043  0.42424378  0.03860987  1
  C  C282  1  0.54168701  0.93027023  0.45731903  1
  C  C283  1  0.52156613  0.25893723  0.03888281  1
  C  C284  1  0.43916537  0.07475849  0.54397080  1
  C  C285  1  0.80249062  0.23775667  0.95866911  1
  C  C286  1  0.04511955  0.07153672  0.95758499  1
  C  C287  1  0.98323439  0.73574330  0.53560165  1
  C  C288  1  0.20872555  0.90383189  0.54486786  1
  C  C289  1  0.93430140  0.92710819  0.45446172  1
  C  C290  1  0.50895282  0.59460137  0.03465454  1
  C  C291  1  0.06352617  0.26210136  0.45732805  1
  C  C292  1  0.95417902  0.58906882  0.03790578  1
  C  C293  1  0.95621401  0.40570117  0.96544439  1
  C  C294  1  0.52399462  0.40721514  0.53534909  1
  C  C295  1  0.30380722  0.42724975  0.04318208  1
  C  C296  1  0.80928097  0.56983890  0.95532928  1
  C  C297  1  0.73133867  0.90945645  0.53580144  1
  C  C298  1  0.29483905  0.57317671  0.95990234  1
  C  C299  1  0.29625499  0.90872047  0.96202427  1
  C  C300  1  0.52929248  0.59401664  0.46187120  1
  C  C301  1  0.21468176  0.90932959  0.96317006  1
  C  C302  1  0.71815828  0.57697519  0.53987159  1
  C  C303  1  0.29681009  0.57278841  0.54280793  1
  C  C304  1  0.03086994  0.92138509  0.03478254  1
  C  C305  1  0.06465058  0.73412805  0.54397348  1
  C  C306  1  0.94015524  0.74074250  0.95303245  1
  C  C307  1  0.52599449  0.92236753  0.03926381  1
  C  C308  1  0.19712689  0.75888132  0.45649525  1
  C  C309  1  0.76339480  0.75665202  0.46350165  1
  C  C310  1  0.01607134  0.59058028  0.46850969  1
  C  C311  1  0.98337074  0.25760372  0.46826148  1
  N  N312  1  0.01195029  0.92352985  0.46516004  1
  N  N313  1  0.28842521  0.90113979  0.54010836  1
  N  N314  1  0.20179783  0.23950431  0.54454999  1
  N  N315  1  0.45253223  0.74039719  0.95690405  1
  N  N316  1  0.68492350  0.75894249  0.45333685  1
  N  N317  1  0.27412758  0.75839156  0.46330719  1
  N  N318  1  0.20408469  0.24156079  0.95942676  1
  N  N319  1  0.77195651  0.24358572  0.53523570  1
  N  N320  1  0.21765709  0.57473463  0.53843423  1
  N  N321  1  0.22695545  0.42464809  0.03576325  1
  N  N322  1  0.68509672  0.09938610  0.04354594  1
  N  N323  1  0.95416811  0.07627189  0.54143079  1
  N  N324  1  0.72959433  0.09106331  0.46352936  1
  N  N325  1  0.95195663  0.92399495  0.03977902  1
  N  N326  1  0.79291147  0.75998889  0.04189619  1
  N  N327  1  0.44300720  0.26226558  0.04680008  1
  N  N328  1  0.21556619  0.57322638  0.96168341  1
  N  N329  1  0.30598483  0.09370858  0.45788184  1
  N  N330  1  0.51561570  0.07713992  0.53347451  1
  N  N331  1  0.73035335  0.57377468  0.96257772  1
  N  N332  1  0.01898754  0.74462286  0.96132043  1
  N  N333  1  0.03247698  0.07565733  0.53878295  1
  N  N334  1  0.30686418  0.09220930  0.04608733  1
  N  N335  1  0.76200908  0.08797667  0.03418935  1
  N  N336  1  0.22983125  0.08807855  0.03840926  1
  N  N337  1  0.72597073  0.90901658  0.96272520  1
  N  N338  1  0.51670535  0.41040236  0.96313902  1
  N  N339  1  0.03144060  0.40689320  0.53664005  1
  N  N340  1  0.96557675  0.07497576  0.95655209  1
  N  N341  1  0.80744306  0.43036365  0.45636171  1
  N  N342  1  0.80979786  0.90646841  0.54542590  1
  N  N343  1  0.47926380  0.74162410  0.53325503  1
  N  N344  1  0.03339419  0.58924745  0.03906253  1
  N  N345  1  0.05437749  0.26057203  0.03869667  1
  N  N346  1  0.46197517  0.92844421  0.46048038  1
  N  N347  1  0.19959474  0.42343845  0.45891444  1
  N  N348  1  0.95301670  0.40465188  0.53643906  1
  N  N349  1  0.72919627  0.41901014  0.46138618  1
  N  N350  1  0.80205004  0.90671330  0.95660124  1
  N  N351  1  0.47543754  0.25803631  0.46262956  1
  N  N352  1  0.80946232  0.42546108  0.04358395  1
  N  N353  1  0.80551967  0.09413912  0.45691988  1
  N  N354  1  0.79577272  0.57516785  0.54201457  1
  N  N355  1  0.22866669  0.75927453  0.03859711  1
  N  N356  1  0.27785127  0.24136427  0.54107421  1
  N  N357  1  0.47921463  0.07243212  0.96873675  1
  N  N358  1  0.44872669  0.92442674  0.04297788  1
  N  N359  1  0.71655177  0.76100234  0.04125393  1
  N  N360  1  0.05525310  0.05799778  0.59556099  1
  N  N361  1  0.06050905  0.38989420  0.59174985  1
  N  N362  1  0.07756160  0.71920707  0.60478479  1
  N  N363  1  0.55107452  0.06043422  0.58916682  1
  N  N364  1  0.55675251  0.39136504  0.59240966  1
  N  N365  1  0.57450988  0.72170196  0.60015437  1
  N  N366  1  0.43404248  0.27958950  0.10647678  1
  N  N367  1  0.42283208  0.61328951  0.10841466  1
  N  N368  1  0.43246669  0.94537014  0.10244172  1
  N  N369  1  0.93983462  0.27412347  0.08509051  1
  N  N370  1  0.93104316  0.60766989  0.09454423  1
  N  N371  1  0.93100032  0.94280386  0.09812837  1
  N  N372  1  0.44531044  0.05699477  0.91228446  1
  N  N373  1  0.42681081  0.38836351  0.89583560  1
  N  N374  1  0.43410578  0.72306090  0.89822715  1
  N  N375  1  0.93945154  0.05431282  0.90086850  1
  N  N376  1  0.93070186  0.38996819  0.90943724  1
  N  N377  1  0.92839693  0.72156305  0.89456367  1
  N  N378  1  0.07134057  0.28019763  0.39607934  1
  N  N379  1  0.05553408  0.60544934  0.41693885  1
  N  N380  1  0.05385730  0.94384823  0.41424630  1
  N  N381  1  0.57342420  0.27714825  0.40106427  1
  N  N382  1  0.55768010  0.61035379  0.40366675  1
  N  N383  1  0.56089772  0.94470385  0.39859798  1
  N  N384  1  0.30768393  0.22440960  0.59730745  1
  N  N385  1  0.31893516  0.55496900  0.60074103  1
  N  N386  1  0.31781518  0.88032208  0.59570936  1
  N  N387  1  0.80419332  0.22535618  0.59171900  1
  N  N388  1  0.81508012  0.55556898  0.60100045  1
  N  N389  1  0.82241483  0.88742056  0.60419698  1
  N  N390  1  0.18995477  0.10806761  0.08885394  1
  N  N391  1  0.19522448  0.44166071  0.09272398  1
  N  N392  1  0.19345784  0.78081148  0.09102468  1
  N  N393  1  0.67669777  0.11026428  0.10399262  1
  N  N394  1  0.69558868  0.44153671  0.09300849  1
  N  N395  1  0.69115481  0.77875809  0.09848617  1
  N  N396  1  0.18402965  0.22491025  0.90109915  1
  N  N397  1  0.19277106  0.55543260  0.90389463  1
  N  N398  1  0.18782993  0.89255829  0.90734110  1
  N  N399  1  0.69030857  0.22414023  0.90611475  1
  N  N400  1  0.69400983  0.55836558  0.90859908  1
  N  N401  1  0.69227667  0.89169131  0.90781779  1
  N  N402  1  0.32158416  0.11101759  0.39894963  1
  N  N403  1  0.31320083  0.43922200  0.41131139  1
  N  N404  1  0.30419087  0.77510842  0.40559348  1
  N  N405  1  0.82082973  0.11365252  0.39795790  1
  N  N406  1  0.82077652  0.44385702  0.39697098  1
  N  N407  1  0.80016112  0.77290358  0.41012767  1
  N  N408  1  0.44468175  0.27852011  0.40834164  1
  N  N409  1  0.42766871  0.61296082  0.40075782  1
  N  N410  1  0.43190075  0.94759881  0.40479335  1
  N  N411  1  0.94407339  0.27272339  0.41651749  1
  N  N412  1  0.92845970  0.61192326  0.39586201  1
  N  N413  1  0.92692506  0.94502144  0.39512836  1
  N  N414  1  0.06868453  0.05399833  0.90065915  1
  N  N415  1  0.06158255  0.39031670  0.90929861  1
  N  N416  1  0.05602705  0.72313759  0.90954417  1
  N  N417  1  0.57239940  0.05316685  0.89976835  1
  N  N418  1  0.55419579  0.38909100  0.91153861  1
  N  N419  1  0.56197394  0.72453059  0.90234171  1
  N  N420  1  0.06640676  0.27996286  0.09943696  1
  N  N421  1  0.05994919  0.60832463  0.09608469  1
  N  N422  1  0.05959071  0.93892802  0.09021972  1
  N  N423  1  0.56056899  0.27441280  0.09224470  1
  N  N424  1  0.55034017  0.60906899  0.08900781  1
  N  N425  1  0.56015725  0.94097430  0.09284291  1
  N  N426  1  0.42424465  0.05758369  0.60361408  1
  N  N427  1  0.42709419  0.38931099  0.60078507  1
  N  N428  1  0.44716304  0.72470442  0.58969215  1
  N  N429  1  0.92804450  0.05896410  0.59733361  1
  N  N430  1  0.93363547  0.38839704  0.59436725  1
  N  N431  1  0.94848824  0.72167229  0.59172747  1
  N  N432  1  0.19355196  0.10885766  0.41080744  1
  N  N433  1  0.18604809  0.44463689  0.39909173  1
  N  N434  1  0.17627360  0.77552869  0.39799000  1
  N  N435  1  0.69515485  0.10854367  0.40896262  1
  N  N436  1  0.69437785  0.44518929  0.41136543  1
  N  N437  1  0.67293816  0.77670390  0.39423076  1
  N  N438  1  0.31271346  0.22422656  0.90855876  1
  N  N439  1  0.32052909  0.55647945  0.90230947  1
  N  N440  1  0.31788605  0.89101984  0.90255988  1
  N  N441  1  0.82027593  0.22404116  0.89995026  1
  N  N442  1  0.82181280  0.55250134  0.89617187  1
  N  N443  1  0.81809678  0.88803602  0.89740729  1
  N  N444  1  0.31562727  0.11048130  0.10461807  1
  N  N445  1  0.32281483  0.44460367  0.10189019  1
  N  N446  1  0.32134758  0.77875764  0.10477208  1
  N  N447  1  0.80173587  0.11079373  0.08356299  1
  N  N448  1  0.82311776  0.44355661  0.10224589  1
  N  N449  1  0.81767616  0.77720867  0.09979562  1
  N  N450  1  0.18138843  0.22137881  0.60281188  1
  N  N451  1  0.19122683  0.55724340  0.59522065  1
  N  N452  1  0.18952564  0.89008363  0.60377033  1
  N  N453  1  0.67674109  0.22180077  0.60112293  1
  N  N454  1  0.68731292  0.55895312  0.59484316  1
  N  N455  1  0.69507970  0.89377520  0.58957181  1
  Cl  Cl456  1  0.23884335  0.05312276  0.61755388  1
  Cl  Cl457  1  0.24307040  0.38796463  0.61466341  1
  Cl  Cl458  1  0.26362470  0.72110118  0.62649225  1
  Cl  Cl459  1  0.74312570  0.05307298  0.61857113  1
  Cl  Cl460  1  0.74587955  0.39435491  0.60810962  1
  Cl  Cl461  1  0.76085100  0.72093493  0.60917425  1
  Cl  Cl462  1  0.24899478  0.27798632  0.11380721  1
  Cl  Cl463  1  0.24125251  0.61432729  0.12298508  1
  Cl  Cl464  1  0.24486295  0.94636704  0.12422448  1
  Cl  Cl465  1  0.74901692  0.27474840  0.11045915  1
  Cl  Cl466  1  0.74011987  0.60749146  0.10224955  1
  Cl  Cl467  1  0.74735817  0.95106357  0.11884986  1
  Cl  Cl468  1  0.25316120  0.05826107  0.89304635  1
  Cl  Cl469  1  0.24598819  0.38211724  0.87723475  1
  Cl  Cl470  1  0.24061303  0.73060867  0.89671627  1
  Cl  Cl471  1  0.75725089  0.06539013  0.89071862  1
  Cl  Cl472  1  0.73718827  0.39059571  0.88397094  1
  Cl  Cl473  1  0.74521409  0.71388373  0.87565709  1
  Cl  Cl474  1  0.26207032  0.28053877  0.37935797  1
  Cl  Cl475  1  0.24203134  0.61171245  0.38798029  1
  Cl  Cl476  1  0.24450818  0.93623081  0.39932631  1
  Cl  Cl477  1  0.75891694  0.28215289  0.37824617  1
  Cl  Cl478  1  0.74239318  0.61501601  0.37181457  1
  Cl  Cl479  1  0.74368851  0.94268380  0.38608200  1
  Cl  Cl480  1  -0.00696933  0.22216075  0.61144562  1
  Cl  Cl481  1  0.00372580  0.55161405  0.61986783  1
  Cl  Cl482  1  0.00757333  0.89662551  0.60862846  1
  Cl  Cl483  1  0.49104256  0.22657223  0.60849407  1
  Cl  Cl484  1  0.50431835  0.55443403  0.61728805  1
  Cl  Cl485  1  0.50386211  0.89707202  0.60434461  1
  Cl  Cl486  1  -0.00882324  0.10276751  0.09838053  1
  Cl  Cl487  1  0.00936749  0.44972409  0.11905381  1
  Cl  Cl488  1  0.00810688  0.77322012  0.10381842  1
  Cl  Cl489  1  0.49770217  0.11771468  0.12487137  1
  Cl  Cl490  1  0.51111663  0.44065681  0.10889327  1
  Cl  Cl491  1  0.50717611  0.78050742  0.11425494  1
  Cl  Cl492  1  0.00249897  0.21727753  0.87878232  1
  Cl  Cl493  1  0.00744733  0.55427227  0.88927635  1
  Cl  Cl494  1  0.00191277  0.88785170  0.88402357  1
  Cl  Cl495  1  0.50208074  0.22246269  0.88212260  1
  Cl  Cl496  1  0.50930281  0.55429410  0.88550806  1
  Cl  Cl497  1  0.50870780  0.88840219  0.87576388  1
  Cl  Cl498  1  0.00497822  0.11191879  0.37738324  1
  Cl  Cl499  1  0.00281450  0.44605618  0.38661755  1
  Cl  Cl500  1  -0.01395134  0.78090983  0.38230306  1
  Cl  Cl501  1  0.50665883  0.11501979  0.38689293  1
  Cl  Cl502  1  0.50802419  0.44078585  0.38523294  1
  Cl  Cl503  1  0.48936428  0.78223342  0.38063548  1
  Cl  Cl504  1  0.35371955  0.14643137  0.74855230  1
  Cl  Cl505  1  0.36496638  0.47735781  0.74746938  1
  Cl  Cl506  1  0.35796636  0.81354909  0.75843381  1
  Cl  Cl507  1  0.86199127  0.14658126  0.75362470  1
  Cl  Cl508  1  0.85811187  0.47795111  0.74962618  1
  Cl  Cl509  1  0.86641320  0.81184567  0.74541443  1
  Cl  Cl510  1  0.14491043  0.18560268  0.25158845  1
  Cl  Cl511  1  0.14356059  0.51745942  0.25362537  1
  Cl  Cl512  1  0.13807249  0.85087174  0.25153357  1
  Cl  Cl513  1  0.63816314  0.18658889  0.24498485  1
  Cl  Cl514  1  0.64617956  0.51797721  0.24808795  1
  Cl  Cl515  1  0.64143531  0.85429166  0.25662373  1
  Cl  Cl516  1  0.13468573  0.14502264  0.75201265  1
  Cl  Cl517  1  0.14491578  0.48433180  0.75184148  1
  Cl  Cl518  1  0.13770893  0.81300122  0.74841960  1
  Cl  Cl519  1  0.63851552  0.14883495  0.74844768  1
  Cl  Cl520  1  0.63993924  0.48211170  0.74885704  1
  Cl  Cl521  1  0.64310728  0.81545603  0.74422117  1
  Cl  Cl522  1  0.36532510  0.18852404  0.24811621  1
  Cl  Cl523  1  0.36513409  0.52322151  0.24634452  1
  Cl  Cl524  1  0.36056064  0.85399256  0.24909115  1
  Cl  Cl525  1  0.86014869  0.18295025  0.24576124  1
  Cl  Cl526  1  0.86459952  0.52119516  0.25212301  1
  Cl  Cl527  1  0.86124139  0.85498033  0.24956212  1
  Cl  Cl528  1  0.10739728  0.31534496  0.74895067  1
  Cl  Cl529  1  0.10663444  0.64723171  0.75064677  1
  Cl  Cl530  1  0.10504312  0.98038399  0.74750093  1
  Cl  Cl531  1  0.60335298  0.31410043  0.74799361  1
  Cl  Cl532  1  0.61160725  0.64858638  0.74318561  1
  Cl  Cl533  1  0.60997786  0.98169980  0.75110006  1
  Cl  Cl534  1  0.38503987  0.02160030  0.25198002  1
  Cl  Cl535  1  0.39253674  0.35687002  0.24401479  1
  Cl  Cl536  1  0.38826535  0.68970558  0.24396159  1
  Cl  Cl537  1  0.89304417  0.02032466  0.25282435  1
  Cl  Cl538  1  0.89250112  0.35170123  0.24912644  1
  Cl  Cl539  1  0.89046864  0.68740909  0.24922823  1
  Cl  Cl540  1  0.38404765  0.31233884  0.74939274  1
  Cl  Cl541  1  0.39005225  0.64750287  0.75770749  1
  Cl  Cl542  1  0.38799794  0.98008194  0.74439952  1
  Cl  Cl543  1  0.88726917  0.31417574  0.75133393  1
  Cl  Cl544  1  0.88703184  0.64429493  0.75316263  1
  Cl  Cl545  1  0.88494548  0.97781705  0.74980380  1
  Cl  Cl546  1  0.11039421  0.01829411  0.24971464  1
  Cl  Cl547  1  0.11280739  0.35159083  0.25480245  1
  Cl  Cl548  1  0.10719013  0.68509412  0.25067974  1
  Cl  Cl549  1  0.60750399  0.01891486  0.25034151  1
  Cl  Cl550  1  0.61265212  0.35212246  0.25252509  1
  Cl  Cl551  1  0.60895155  0.68577626  0.25057399  1
