# generated using pymatgen
data_H8PbC4(N3Cl2)2
_symmetry_space_group_name_H-M   'P 1'
_cell_length_a   16.62681731
_cell_length_b   22.51765172
_cell_length_c   21.59553504
_cell_angle_alpha   89.99918514
_cell_angle_beta   89.99362996
_cell_angle_gamma   90.00491835
_symmetry_Int_Tables_number   1
_chemical_formula_structural   H8PbC4(N3Cl2)2
_chemical_formula_sum   'H192 Pb24 C96 N144 Cl96'
_cell_volume   8085.30089155
_cell_formula_units_Z   24
loop_
 _symmetry_equiv_pos_site_id
 _symmetry_equiv_pos_as_xyz
  1  'x, y, z'
loop_
 _atom_site_type_symbol
 _atom_site_label
 _atom_site_symmetry_multiplicity
 _atom_site_fract_x
 _atom_site_fract_y
 _atom_site_fract_z
 _atom_site_occupancy
  H  H0  1  -0.00462921  0.02964678  0.67990575  1
  H  H1  1  -0.00664926  0.35925500  0.67582965  1
  H  H2  1  0.00418166  0.69609337  0.68107415  1
  H  H3  1  0.49133751  0.03080108  0.68194605  1
  H  H4  1  0.50245934  0.36222691  0.68078645  1
  H  H5  1  0.50309642  0.69713812  0.67377416  1
  H  H6  1  -0.00810044  0.30660477  0.17913249  1
  H  H7  1  0.00964474  0.63707742  0.17794852  1
  H  H8  1  -0.00826973  0.96880892  0.17919343  1
  H  H9  1  0.49879964  0.30645099  0.17601270  1
  H  H10  1  0.48678934  0.63728045  0.17702958  1
  H  H11  1  0.51445092  0.96935760  0.17460040  1
  H  H12  1  -0.00701179  0.03003252  0.81718605  1
  H  H13  1  0.00397157  0.36609058  0.82185012  1
  H  H14  1  -0.00895826  0.69873632  0.82084624  1
  H  H15  1  0.50114048  0.02771952  0.82377023  1
  H  H16  1  0.48677775  0.36638743  0.82213027  1
  H  H17  1  0.50214180  0.69339509  0.82365368  1
  H  H18  1  0.00689355  0.30272375  0.32192965  1
  H  H19  1  0.00421708  0.63660455  0.32513013  1
  H  H20  1  -0.00837252  0.97392733  0.32479634  1
  H  H21  1  0.50070117  0.30416833  0.31694134  1
  H  H22  1  0.50378376  0.64276326  0.32071064  1
  H  H23  1  0.50337864  0.97461712  0.32267418  1
  H  H24  1  0.25023813  0.19347053  0.67970335  1
  H  H25  1  0.24496602  0.52809916  0.68222046  1
  H  H26  1  0.24489169  0.86557067  0.67931454  1
  H  H27  1  0.75068541  0.19464072  0.67834420  1
  H  H28  1  0.74434755  0.53245632  0.67561950  1
  H  H29  1  0.75422673  0.86111358  0.67842333  1
  H  H30  1  0.24273806  0.13599541  0.18303714  1
  H  H31  1  0.24052700  0.47136592  0.17856968  1
  H  H32  1  0.25418726  0.80531896  0.17844717  1
  H  H33  1  0.75964714  0.13236904  0.18164034  1
  H  H34  1  0.76911038  0.46989161  0.17299329  1
  H  H35  1  0.75958830  0.80759836  0.18311895  1
  H  H36  1  0.25414047  0.19722982  0.81761959  1
  H  H37  1  0.24450049  0.52933371  0.81910381  1
  H  H38  1  0.25243363  0.86105485  0.82379628  1
  H  H39  1  0.75812070  0.19862567  0.82269481  1
  H  H40  1  0.76332398  0.52789078  0.82690071  1
  H  H41  1  0.75134221  0.86193859  0.82024807  1
  H  H42  1  0.25691720  0.13526530  0.32502865  1
  H  H43  1  0.24756670  0.46849716  0.32138054  1
  H  H44  1  0.24004841  0.80282323  0.32033312  1
  H  H45  1  0.75972963  0.13654682  0.32291258  1
  H  H46  1  0.76110844  0.46685725  0.31817942  1
  H  H47  1  0.75976336  0.80420730  0.32377827  1
  H  H48  1  0.12781435  0.05216536  0.61714900  1
  H  H49  1  0.13262597  0.38039842  0.62160426  1
  H  H50  1  0.11782080  0.72392232  0.60321444  1
  H  H51  1  0.62574495  0.05443214  0.61935127  1
  H  H52  1  0.63049726  0.38454630  0.61549927  1
  H  H53  1  0.61958670  0.72482258  0.59942651  1
  H  H54  1  0.38611438  0.27634594  0.09844166  1
  H  H55  1  0.37820041  0.61029294  0.09257256  1
  H  H56  1  0.37536927  0.94971761  0.12002773  1
  H  H57  1  0.88680225  0.27932765  0.09405853  1
  H  H58  1  0.87269638  0.61331163  0.12043790  1
  H  H59  1  0.87566555  0.94280323  0.10117182  1
  H  H60  1  0.37988438  0.05517489  0.89582318  1
  H  H61  1  0.37957658  0.39271392  0.90719247  1
  H  H62  1  0.38483849  0.72181249  0.89753865  1
  H  H63  1  0.88149201  0.05298184  0.89719077  1
  H  H64  1  0.86931529  0.38647419  0.88116398  1
  H  H65  1  0.88928982  0.72338218  0.90657978  1
  H  H66  1  0.11866209  0.27524630  0.40255838  1
  H  H67  1  0.11322596  0.60573287  0.40544278  1
  H  H68  1  0.13275375  0.95700017  0.37837077  1
  H  H69  1  0.62495673  0.27856575  0.38678723  1
  H  H70  1  0.61562454  0.61210973  0.40050448  1
  H  H71  1  0.63149807  0.94458582  0.38783277  1
  H  H72  1  0.37470336  0.21853780  0.60969560  1
  H  H73  1  0.38180745  0.55228095  0.62456753  1
  H  H74  1  0.36075659  0.88988427  0.60095118  1
  H  H75  1  0.87720075  0.21695298  0.61288786  1
  H  H76  1  0.88624855  0.55097753  0.62628284  1
  H  H77  1  0.86075418  0.89184510  0.59610728  1
  H  H78  1  0.12065969  0.11121992  0.10878594  1
  H  H79  1  0.13022159  0.44196719  0.09701928  1
  H  H80  1  0.12187170  0.78117669  0.11700931  1
  H  H81  1  0.62207689  0.11536238  0.12690241  1
  H  H82  1  0.62764455  0.45182829  0.12464575  1
  H  H83  1  0.62148546  0.78589850  0.12582710  1
  H  H84  1  0.11912839  0.21733433  0.87477510  1
  H  H85  1  0.13217175  0.55585675  0.89890672  1
  H  H86  1  0.12827290  0.88872144  0.89159636  1
  H  H87  1  0.61690245  0.21515912  0.87674609  1
  H  H88  1  0.62616991  0.55130702  0.88215595  1
  H  H89  1  0.62759057  0.88816380  0.89220387  1
  H  H90  1  0.36262545  0.10778039  0.40752453  1
  H  H91  1  0.36526996  0.44311085  0.39664376  1
  H  H92  1  0.38030538  0.78313630  0.37526226  1
  H  H93  1  0.86722604  0.10914853  0.40455755  1
  H  H94  1  0.86190151  0.43900953  0.40350973  1
  H  H95  1  0.87974761  0.77680498  0.39662768  1
  H  H96  1  0.37577762  0.27946552  0.38822283  1
  H  H97  1  0.36877850  0.61558777  0.37573281  1
  H  H98  1  0.38234695  0.94977231  0.39481304  1
  H  H99  1  0.87166595  0.27984440  0.38003590  1
  H  H100  1  0.86729458  0.61784367  0.38319089  1
  H  H101  1  0.88839375  0.94013294  0.40797081  1
  H  H102  1  0.12901621  0.04956156  0.87397977  1
  H  H103  1  0.11749053  0.38955215  0.89948539  1
  H  H104  1  0.13297135  0.71649371  0.86875005  1
  H  H105  1  0.62909935  0.05202897  0.88974608  1
  H  H106  1  0.62474228  0.38526254  0.87708054  1
  H  H107  1  0.63310627  0.71474365  0.88462982  1
  H  H108  1  0.13193731  0.28183129  0.12791654  1
  H  H109  1  0.11891185  0.60929810  0.09483437  1
  H  H110  1  0.12350664  0.94690032  0.11692169  1
  H  H111  1  0.63294225  0.28678199  0.11441693  1
  H  H112  1  0.62373451  0.61453295  0.11911495  1
  H  H113  1  0.62046506  0.93922251  0.09238353  1
  H  H114  1  0.37812213  0.05530649  0.59987911  1
  H  H115  1  0.38168454  0.38597127  0.60903014  1
  H  H116  1  0.37146042  0.72211213  0.61134017  1
  H  H117  1  0.87939885  0.05785441  0.60258393  1
  H  H118  1  0.88711864  0.39049217  0.59337057  1
  H  H119  1  0.86955897  0.71876210  0.61938064  1
  H  H120  1  0.11795930  0.11966112  0.37688922  1
  H  H121  1  0.11683353  0.44535126  0.38663908  1
  H  H122  1  0.13454754  0.77511605  0.40392914  1
  H  H123  1  0.62188292  0.11874888  0.37547980  1
  H  H124  1  0.61793180  0.45275448  0.36760187  1
  H  H125  1  0.63088377  0.77850146  0.38964515  1
  H  H126  1  0.36613740  0.22022708  0.89701985  1
  H  H127  1  0.37992637  0.55262922  0.87852827  1
  H  H128  1  0.37771906  0.88842202  0.89262479  1
  H  H129  1  0.86058345  0.22965383  0.90937109  1
  H  H130  1  0.87239680  0.55623145  0.90816821  1
  H  H131  1  0.87628670  0.88781166  0.89131982  1
  H  H132  1  0.36918256  0.11258630  0.11187705  1
  H  H133  1  0.37637803  0.44921593  0.12018601  1
  H  H134  1  0.36916994  0.77840848  0.09890622  1
  H  H135  1  0.86833616  0.10937826  0.09975724  1
  H  H136  1  0.87084978  0.44215852  0.08917017  1
  H  H137  1  0.86815097  0.77926261  0.10165808  1
  H  H138  1  0.12538177  0.21999273  0.60977560  1
  H  H139  1  0.13542298  0.55677713  0.60157753  1
  H  H140  1  0.11267081  0.88763169  0.61646868  1
  H  H141  1  0.62813070  0.21961508  0.60727285  1
  H  H142  1  0.64268090  0.56305234  0.58946760  1
  H  H143  1  0.61498079  0.88231069  0.62295386  1
  H  H144  1  0.78494979  0.40990524  0.50669741  1
  H  H145  1  0.60109439  0.75052987  -0.00347151  1
  H  H146  1  0.78009750  0.25697807  1.00649665  1
  H  H147  1  0.96727495  0.92303321  0.50828845  1
  H  H148  1  0.83984705  0.24628340  0.50001468  1
  H  H149  1  0.65273801  0.58041756  0.99135943  1
  H  H150  1  0.59084113  0.91715719  0.49375132  1
  H  H151  1  0.96409160  0.75361926  1.00915694  1
  H  H152  1  0.54836694  0.58624403  0.50155821  1
  H  H153  1  0.96407925  0.25181487  -0.00529637  1
  H  H154  1  0.63973470  0.08477866  0.01357467  1
  H  H155  1  0.10966973  0.41629518  0.51527334  1
  H  H156  1  0.04431216  0.58255176  -0.00516026  1
  H  H157  1  0.60666018  0.41669125  0.99072412  1
  H  H158  1  0.72195391  0.58570768  0.49010990  1
  H  H159  1  0.43471270  0.08429585  1.00025920  1
  H  H160  1  0.19964692  0.58586755  1.00358837  1
  H  H161  1  0.80080158  0.07962473  -0.00601397  1
  H  H162  1  0.78829008  0.92094562  0.49351186  1
  H  H163  1  0.96329104  0.40831753  0.49298674  1
  H  H164  1  0.59677915  0.41393892  0.50352457  1
  H  H165  1  0.43068642  0.41482477  0.49935325  1
  H  H166  1  0.14206611  0.24323281  0.98968873  1
  H  H167  1  0.13267027  0.08898019  0.49226678  1
  H  H168  1  0.05243872  0.75363921  0.49737239  1
  H  H169  1  0.10547024  0.07738100  0.98768349  1
  H  H170  1  0.39476808  0.58113931  0.48741335  1
  H  H171  1  0.40821487  0.75301985  0.50450647  1
  H  H172  1  0.33211198  0.91526039  0.99770986  1
  H  H173  1  0.57674757  0.24828118  0.49539069  1
  H  H174  1  0.20854103  0.74693430  0.50691463  1
  H  H175  1  0.60165110  0.24875277  0.01028300  1
  H  H176  1  0.20385206  0.41520211  -0.00349632  1
  H  H177  1  0.79710064  0.74915613  -0.00196970  1
  H  H178  1  0.17168027  0.92089267  1.00079644  1
  H  H179  1  0.63955385  0.08883905  0.49083246  1
  H  H180  1  0.30307997  0.74147197  0.00093987  1
  H  H181  1  0.94581133  0.07670886  1.00572284  1
  H  H182  1  0.20513202  0.58296437  0.49625049  1
  H  H183  1  0.30241451  0.24449497  1.00579918  1
  H  H184  1  0.11499640  0.91984687  0.48555047  1
  H  H185  1  0.45439061  0.26104254  -0.00506003  1
  H  H186  1  0.43399934  0.91649816  0.50305317  1
  H  H187  1  0.32528856  0.24869653  0.50131617  1
  H  H188  1  0.03980584  0.58959932  0.50828937  1
  H  H189  1  0.05598720  0.41984148  1.00782623  1
  H  H190  1  0.89138718  0.58487833  0.49273431  1
  H  H191  1  0.12272747  0.74785188  -0.01799325  1
  Pb  Pb192  1  0.25297762  0.04703204  0.74617449  1
  Pb  Pb193  1  0.25311586  0.38131164  0.75993134  1
  Pb  Pb194  1  0.25864856  0.71663959  0.74944065  1
  Pb  Pb195  1  0.75257639  0.04784723  0.74980676  1
  Pb  Pb196  1  0.75387908  0.38093523  0.74295522  1
  Pb  Pb197  1  0.75172833  0.71287605  0.75516897  1
  Pb  Pb198  1  0.25356670  0.28434572  0.25267052  1
  Pb  Pb199  1  0.24531941  0.61904421  0.24794863  1
  Pb  Pb200  1  0.24699810  0.95155301  0.24787477  1
  Pb  Pb201  1  0.74695025  0.28464694  0.24253336  1
  Pb  Pb202  1  0.74180282  0.61713898  0.25539611  1
  Pb  Pb203  1  0.74922195  0.95271228  0.25038988  1
  Pb  Pb204  1  -0.00060514  0.21428241  0.75874597  1
  Pb  Pb205  1  0.00641780  0.55025591  0.75595826  1
  Pb  Pb206  1  0.00000773  0.88025801  0.74477425  1
  Pb  Pb207  1  0.49978031  0.21455664  0.75272110  1
  Pb  Pb208  1  0.50655492  0.54710951  0.73749530  1
  Pb  Pb209  1  0.50363764  0.88176531  0.74790973  1
  Pb  Pb210  1  -0.00302959  0.11947668  0.24698171  1
  Pb  Pb211  1  0.00023696  0.44841750  0.24934635  1
  Pb  Pb212  1  -0.00627151  0.78330308  0.25422924  1
  Pb  Pb213  1  0.49289234  0.11602377  0.24876337  1
  Pb  Pb214  1  0.49305957  0.45274599  0.25251986  1
  Pb  Pb215  1  0.49710058  0.78662375  0.24876256  1
  C  C216  1  0.00067550  0.04609081  0.63313160  1
  C  C217  1  0.00467097  0.37623433  0.62944364  1
  C  C218  1  -0.00312752  0.71277725  0.63430128  1
  C  C219  1  0.49835576  0.04610355  0.63457832  1
  C  C220  1  0.50506688  0.37806067  0.63329116  1
  C  C221  1  0.49756780  0.71418091  0.62707001  1
  C  C222  1  0.00328288  0.29041704  0.13268742  1
  C  C223  1  0.00080504  0.62106502  0.13104489  1
  C  C224  1  -0.00323119  0.95345294  0.13199242  1
  C  C225  1  0.50628402  0.28974092  0.12907534  1
  C  C226  1  0.49595205  0.62198139  0.12983942  1
  C  C227  1  0.50299413  0.95346998  0.12825196  1
  C  C228  1  0.00155271  0.04417700  0.86483732  1
  C  C229  1  -0.00288315  0.38112370  0.86920421  1
  C  C230  1  0.00521975  0.71298993  0.86763215  1
  C  C231  1  0.50295826  0.04488584  0.87064077  1
  C  C232  1  0.49685074  0.38135272  0.86913075  1
  C  C233  1  0.50744236  0.70999117  0.87053414  1
  C  C234  1  -0.00067662  0.28660264  0.36868985  1
  C  C235  1  -0.00539500  0.62049171  0.37209390  1
  C  C236  1  0.00448383  0.95724610  0.37106689  1
  C  C237  1  0.50033384  0.28757437  0.36411679  1
  C  C238  1  0.49616520  0.62487573  0.36712272  1
  C  C239  1  0.50627235  0.95698874  0.36950057  1
  C  C240  1  0.25013158  0.20994119  0.63256000  1
  C  C241  1  0.25465130  0.54440535  0.63550466  1
  C  C242  1  0.23943261  0.88039628  0.63188109  1
  C  C243  1  0.75251947  0.20999563  0.63083728  1
  C  C244  1  0.75770163  0.54698476  0.62875264  1
  C  C245  1  0.74295146  0.87748336  0.63196148  1
  C  C246  1  0.24423582  0.12046721  0.13542167  1
  C  C247  1  0.24862764  0.45527463  0.13166553  1
  C  C248  1  0.24878607  0.78815995  0.13169068  1
  C  C249  1  0.74944919  0.11901064  0.13393218  1
  C  C250  1  0.75545974  0.45471835  0.12661612  1
  C  C251  1  0.74946075  0.79146939  0.13643651  1
  C  C252  1  0.24588203  0.21120714  0.86534976  1
  C  C253  1  0.25235273  0.54543611  0.86602360  1
  C  C254  1  0.25321990  0.87839668  0.87079474  1
  C  C255  1  0.74514398  0.21343927  0.86952162  1
  C  C256  1  0.75345609  0.54409733  0.87353597  1
  C  C257  1  0.75172482  0.87821084  0.86753849  1
  C  C258  1  0.24491477  0.12127203  0.37210323  1
  C  C259  1  0.24273861  0.45296512  0.36854852  1
  C  C260  1  0.25209463  0.78754399  0.36715235  1
  C  C261  1  0.74861142  0.12164826  0.36985802  1
  C  C262  1  0.74692568  0.45306533  0.36505697  1
  C  C263  1  0.75658307  0.78669162  0.37027721  1
  C  C264  1  0.18919475  0.23429117  0.95494440  1
  C  C265  1  0.75773790  0.42369434  0.46294063  1
  C  C266  1  0.76916138  0.42551581  0.03037492  1
  C  C267  1  0.77675235  0.57556774  0.96954675  1
  C  C268  1  0.47550444  0.74162398  0.96394273  1
  C  C269  1  0.55144709  0.40404450  0.54084118  1
  C  C270  1  0.06686337  0.25901094  0.04886895  1
  C  C271  1  0.43989625  0.59171896  0.45252378  1
  C  C272  1  0.04512936  0.92626878  0.04203904  1
  C  C273  1  0.47003000  0.92681335  0.46243217  1
  C  C274  1  0.53718021  0.25935453  0.45647930  1
  C  C275  1  0.21250167  0.90944572  0.96237117  1
  C  C276  1  0.05865401  0.06763610  0.95398076  1
  C  C277  1  0.02061159  0.74233348  0.53986490  1
  C  C278  1  0.79602231  0.23672534  0.53747947  1
  C  C279  1  0.82449766  0.57203418  0.54403714  1
  C  C280  1  0.19184564  0.90502946  0.54105446  1
  C  C281  1  0.27330721  0.42483713  0.46299573  1
  C  C282  1  0.51949293  0.92059054  0.03352880  1
  C  C283  1  0.76784696  0.76111364  0.04147574  1
  C  C284  1  0.46944975  0.40454001  0.53850732  1
  C  C285  1  0.55409328  0.40753047  0.95602659  1
  C  C286  1  0.76897205  0.09354195  0.46635527  1
  C  C287  1  0.97721219  0.06809747  0.96246507  1
  C  C288  1  0.23073186  0.57453263  0.96076845  1
  C  C289  1  0.68915722  0.09368383  0.04633330  1
  C  C290  1  0.26352612  0.09302694  0.46877058  1
  C  C291  1  0.07197179  0.73876063  0.95175102  1
  C  C292  1  0.77037572  0.09163327  0.03678763  1
  C  C293  1  0.67847167  0.42891802  0.44887089  1
  C  C294  1  0.27078394  0.23502787  0.96279766  1
  C  C295  1  0.18303587  0.09698556  0.45962335  1
  C  C296  1  0.23504194  0.57206483  0.53977687  1
  C  C297  1  0.52983665  0.74757516  0.53345910  1
  C  C298  1  0.28658347  0.23818819  0.54032762  1
  C  C299  1  0.75935934  0.90807225  0.53686227  1
  C  C300  1  0.71436498  0.23730618  0.53710560  1
  C  C301  1  0.55681141  0.73979893  0.96093860  1
  C  C302  1  0.68831687  0.09684040  0.45797420  1
  C  C303  1  0.99182085  0.74133187  0.96527960  1
  C  C304  1  0.94665093  0.25715135  0.45639894  1
  C  C305  1  0.23688894  0.75888246  0.46311035  1
  C  C306  1  0.78863536  0.75363795  0.46207064  1
  C  C307  1  0.68966750  0.42915840  0.04244504  1
  C  C308  1  0.04827464  0.07526449  0.54394605  1
  C  C309  1  0.02286501  0.40903495  0.96584361  1
  C  C310  1  0.54993042  0.07358614  0.96223030  1
  C  C311  1  0.94183811  0.40830349  0.95770768  1
  N  N312  1  0.98675291  0.41177233  0.53712571  1
  N  N313  1  0.98989080  0.92106935  0.46343292  1
  N  N314  1  0.79040052  0.90803943  0.96000736  1
  N  N315  1  0.93797428  0.59762487  0.45890730  1
  N  N316  1  0.94139109  0.59260674  0.04490307  1
  N  N317  1  0.96786620  0.92460069  0.03579390  1
  N  N318  1  0.20841251  0.09344640  0.04126518  1
  N  N319  1  0.55190291  0.59456774  0.04198569  1
  N  N320  1  0.54922632  0.07538298  0.54582460  1
  N  N321  1  0.48109287  0.25495064  0.03741279  1
  N  N322  1  0.47640356  0.59320793  0.03342545  1
  N  N323  1  0.68043428  0.23533236  0.95521464  1
  N  N324  1  0.75673386  0.24153809  0.96454142  1
  N  N325  1  0.98916094  0.25869673  0.03826239  1
  N  N326  1  0.47076448  0.07533507  0.96299825  1
  N  N327  1  0.30715572  0.42596943  0.04529313  1
  N  N328  1  0.68106125  0.90526552  0.54576709  1
  N  N329  1  0.71137004  0.75399176  0.46120686  1
  N  N330  1  0.69871892  0.57305634  0.96001476  1
  N  N331  1  0.45787054  0.25943497  0.45727164  1
  N  N332  1  0.71418314  0.90842232  0.96011315  1
  N  N333  1  0.54944065  0.92459008  0.45849687  1
  N  N334  1  0.01520707  0.58603398  0.46450375  1
  N  N335  1  0.29235488  0.90945357  0.96141578  1
  N  N336  1  0.19554621  0.75819492  0.04416593  1
  N  N337  1  0.94167060  0.74135362  0.54548818  1
  N  N338  1  0.27304441  0.75725397  0.03917827  1
  N  N339  1  0.55893661  0.26678861  0.04077996  1
  N  N340  1  0.51891611  0.59064565  0.45969069  1
  N  N341  1  0.22970149  0.42305140  0.03913936  1
  N  N342  1  0.06642751  0.93486536  0.45580215  1
  N  N343  1  0.31507831  0.76174326  0.45362087  1
  N  N344  1  0.19573369  0.42703590  0.46107662  1
  N  N345  1  0.28484610  0.09444444  0.04210057  1
  N  N346  1  0.47604620  0.40985480  0.96669323  1
  N  N347  1  0.30943815  0.57407346  0.95418078  1
  N  N348  1  0.68952997  0.76237697  0.05008934  1
  N  N349  1  0.31356180  0.57066700  0.54763747  1
  N  N350  1  0.02352441  0.25537397  0.46495279  1
  N  N351  1  0.74670528  0.57614373  0.53329082  1
  N  N352  1  0.01872861  0.59083414  0.03759851  1
  N  N353  1  0.97126645  0.07710549  0.53763708  1
  N  N354  1  0.26916423  0.90668668  0.53492942  1
  N  N355  1  0.44274613  0.92449051  0.04106277  1
  N  N356  1  0.06402360  0.39947527  0.54378759  1
  N  N357  1  0.45117275  0.74498838  0.53838027  1
  N  N358  1  0.47358316  0.07528544  0.53917444  1
  N  N359  1  0.20733769  0.23917953  0.53999733  1
  N  N360  1  0.06912413  0.05673464  0.60177577  1
  N  N361  1  0.07533864  0.38708429  0.60374908  1
  N  N362  1  0.05619385  0.72525576  0.59413593  1
  N  N363  1  0.56622745  0.05783415  0.60492805  1
  N  N364  1  0.57183184  0.38786166  0.60019133  1
  N  N365  1  0.55892960  0.72860289  0.58822313  1
  N  N366  1  0.44786710  0.27911192  0.08890799  1
  N  N367  1  0.44014063  0.61053524  0.08762638  1
  N  N368  1  0.43257898  0.94539172  0.10151495  1
  N  N369  1  0.94931201  0.28067608  0.08904253  1
  N  N370  1  0.93084969  0.61006582  0.10347206  1
  N  N371  1  0.93749361  0.94205584  0.09304194  1
  N  N372  1  0.44109291  0.05703427  0.90662230  1
  N  N373  1  0.44179582  0.39307421  0.91175374  1
  N  N374  1  0.44599812  0.72384161  0.90937559  1
  N  N375  1  0.94299416  0.05380791  0.90652690  1
  N  N376  1  0.92694488  0.39169723  0.89939537  1
  N  N377  1  0.95163904  0.72502219  0.91240328  1
  N  N378  1  0.05658899  0.27401900  0.40887451  1
  N  N379  1  0.05116864  0.60935454  0.41380777  1
  N  N380  1  0.07603607  0.94791282  0.39598011  1
  N  N381  1  0.56465383  0.27619864  0.39955866  1
  N  N382  1  0.55342902  0.61418087  0.40810947  1
  N  N383  1  0.57172487  0.94486150  0.40180469  1
  N  N384  1  0.31454271  0.22072277  0.59696323  1
  N  N385  1  0.32418083  0.55342484  0.60733652  1
  N  N386  1  0.29865086  0.89104888  0.59283315  1
  N  N387  1  0.81831722  0.21982988  0.59711335  1
  N  N388  1  0.83166397  0.55494183  0.60384169  1
  N  N389  1  0.79858307  0.89131052  0.58936337  1
  N  N390  1  0.18191659  0.10922858  0.09898841  1
  N  N391  1  0.19230082  0.44332434  0.09026532  1
  N  N392  1  0.18066092  0.77760607  0.10150877  1
  N  N393  1  0.67804145  0.11062914  0.10682227  1
  N  N394  1  0.68191167  0.44644426  0.10173107  1
  N  N395  1  0.67958765  0.78124526  0.10922971  1
  N  N396  1  0.17545779  0.21972785  0.89418123  1
  N  N397  1  0.19388495  0.55739270  0.90701447  1
  N  N398  1  0.18809313  0.89121033  0.90560198  1
  N  N399  1  0.67326143  0.21850828  0.89591584  1
  N  N400  1  0.68371443  0.55275264  0.90109282  1
  N  N401  1  0.68859727  0.88977797  0.90301969  1
  N  N402  1  0.30091971  0.10786584  0.41617753  1
  N  N403  1  0.30415912  0.44075624  0.40736809  1
  N  N404  1  0.32279470  0.77959947  0.39365608  1
  N  N405  1  0.80532122  0.10834294  0.41336326  1
  N  N406  1  0.79960011  0.43941143  0.40932732  1
  N  N407  1  0.81939215  0.77324976  0.40748482  1
  N  N408  1  0.43674490  0.27689927  0.39933821  1
  N  N409  1  0.42557434  0.61133535  0.39454180  1
  N  N410  1  0.44284481  0.94572730  0.40686496  1
  N  N411  1  0.92923061  0.27580863  0.39794918  1
  N  N412  1  0.92470444  0.61048298  0.39951742  1
  N  N413  1  0.95051374  0.94441945  0.41434543  1
  N  N414  1  0.07213319  0.05295415  0.89321290  1
  N  N415  1  0.05637980  0.39198512  0.90935391  1
  N  N416  1  0.07874126  0.72139636  0.89131304  1
  N  N417  1  0.57002024  0.05578272  0.90468224  1
  N  N418  1  0.56805360  0.39066570  0.89634274  1
  N  N419  1  0.57551503  0.72012594  0.90159675  1
  N  N420  1  0.07610354  0.27749819  0.10770947  1
  N  N421  1  0.05667426  0.61008262  0.08885436  1
  N  N422  1  0.06520787  0.94337081  0.10035193  1
  N  N423  1  0.57486604  0.27833698  0.10027163  1
  N  N424  1  0.56546791  0.61231847  0.10171792  1
  N  N425  1  0.55869976  0.93823311  0.08548034  1
  N  N426  1  0.44048010  0.05660821  0.59371366  1
  N  N427  1  0.44199953  0.38856329  0.59630764  1
  N  N428  1  0.43046356  0.72368272  0.59597745  1
  N  N429  1  0.94136849  0.05850497  0.59455739  1
  N  N430  1  0.94942360  0.38765178  0.58675396  1
  N  N431  1  0.92878959  0.72320522  0.60433863  1
  N  N432  1  0.17308793  0.11452597  0.39836960  1
  N  N433  1  0.17641258  0.44423489  0.40084294  1
  N  N434  1  0.19685488  0.77433846  0.41032816  1
  N  N435  1  0.67714748  0.11421008  0.39667922  1
  N  N436  1  0.67224671  0.44642555  0.38974173  1
  N  N437  1  0.69117505  0.77472972  0.40262640  1
  N  N438  1  0.30468669  0.22065657  0.90673247  1
  N  N439  1  0.32110298  0.55603559  0.89509419  1
  N  N440  1  0.31716420  0.88830039  0.90566143  1
  N  N441  1  0.79769140  0.22774647  0.91297013  1
  N  N442  1  0.81102807  0.55799221  0.91598638  1
  N  N443  1  0.81530881  0.88921349  0.90270754  1
  N  N444  1  0.30822016  0.11099874  0.10026742  1
  N  N445  1  0.31828184  0.44440325  0.10357517  1
  N  N446  1  0.30717425  0.77446882  0.09257942  1
  N  N447  1  0.80666149  0.10779230  0.09158359  1
  N  N448  1  0.80929147  0.44096284  0.08187057  1
  N  N449  1  0.80612047  0.77847925  0.09427763  1
  N  N450  1  0.18635961  0.22134604  0.59765469  1
  N  N451  1  0.19752997  0.55630555  0.59344743  1
  N  N452  1  0.17092633  0.88938401  0.60012795  1
  N  N453  1  0.68834647  0.22144552  0.59366272  1
  N  N454  1  0.70500206  0.55820501  0.58462933  1
  N  N455  1  0.67249182  0.88620747  0.60524543  1
  Cl  Cl456  1  0.25516904  0.05446201  0.61162535  1
  Cl  Cl457  1  0.25665733  0.38346046  0.62789180  1
  Cl  Cl458  1  0.24232163  0.72336873  0.61391691  1
  Cl  Cl459  1  0.75415019  0.05720671  0.61678742  1
  Cl  Cl460  1  0.76501122  0.38981880  0.60809716  1
  Cl  Cl461  1  0.74212791  0.71449361  0.62397290  1
  Cl  Cl462  1  0.26497674  0.27665691  0.11643528  1
  Cl  Cl463  1  0.24289103  0.61080611  0.10971633  1
  Cl  Cl464  1  0.24794009  0.94075707  0.11238698  1
  Cl  Cl465  1  0.76384679  0.27820122  0.10008172  1
  Cl  Cl466  1  0.74809589  0.61094287  0.12277703  1
  Cl  Cl467  1  0.74825767  0.94322653  0.11951690  1
  Cl  Cl468  1  0.25794171  0.05065507  0.87801594  1
  Cl  Cl469  1  0.24556334  0.39247482  0.89728427  1
  Cl  Cl470  1  0.26648418  0.72353315  0.88747073  1
  Cl  Cl471  1  0.75637696  0.05660546  0.88470098  1
  Cl  Cl472  1  0.74838462  0.38133351  0.87303241  1
  Cl  Cl473  1  0.76892009  0.71805245  0.89115288  1
  Cl  Cl474  1  0.24844705  0.28002893  0.38520991  1
  Cl  Cl475  1  0.23291576  0.60671265  0.38559733  1
  Cl  Cl476  1  0.25767615  0.95379712  0.37793592  1
  Cl  Cl477  1  0.74739643  0.27805938  0.37299974  1
  Cl  Cl478  1  0.73708575  0.60749566  0.39666584  1
  Cl  Cl479  1  0.76444733  0.93977140  0.38879591  1
  Cl  Cl480  1  0.00334604  0.22122281  0.62945343  1
  Cl  Cl481  1  0.01523372  0.56133163  0.60997463  1
  Cl  Cl482  1  -0.01579946  0.89803830  0.60438661  1
  Cl  Cl483  1  0.50274773  0.22315655  0.62134959  1
  Cl  Cl484  1  0.52049729  0.56670551  0.60076206  1
  Cl  Cl485  1  0.48459624  0.88750462  0.61119900  1
  Cl  Cl486  1  -0.00495030  0.11247618  0.11080558  1
  Cl  Cl487  1  0.00719941  0.44337286  0.11364057  1
  Cl  Cl488  1  -0.00732781  0.77757084  0.11915544  1
  Cl  Cl489  1  0.49045425  0.11172960  0.11033343  1
  Cl  Cl490  1  0.49928966  0.44752971  0.12610591  1
  Cl  Cl491  1  0.48931841  0.78307230  0.11633778  1
  Cl  Cl492  1  -0.02134716  0.23067212  0.90056272  1
  Cl  Cl493  1  0.00556846  0.55784929  0.89490940  1
  Cl  Cl494  1  0.00066952  0.88789819  0.87486262  1
  Cl  Cl495  1  0.48860964  0.22550411  0.89195239  1
  Cl  Cl496  1  0.50390658  0.55296224  0.86771180  1
  Cl  Cl497  1  0.50175987  0.89026762  0.88071657  1
  Cl  Cl498  1  -0.01356366  0.11134345  0.37675648  1
  Cl  Cl499  1  -0.01179735  0.43795024  0.39348506  1
  Cl  Cl500  1  0.01060427  0.77785445  0.39001288  1
  Cl  Cl501  1  0.48467270  0.10947819  0.37643046  1
  Cl  Cl502  1  0.48672327  0.44679854  0.38664200  1
  Cl  Cl503  1  0.50649530  0.77870816  0.38372358  1
  Cl  Cl504  1  0.35830156  0.15136306  0.74993966  1
  Cl  Cl505  1  0.36571123  0.48169105  0.74777778  1
  Cl  Cl506  1  0.35086180  0.81752443  0.74625294  1
  Cl  Cl507  1  0.85688203  0.15283368  0.75289250  1
  Cl  Cl508  1  0.86527629  0.48230015  0.74865285  1
  Cl  Cl509  1  0.86082124  0.81495799  0.74419005  1
  Cl  Cl510  1  0.13689018  0.18619576  0.25196749  1
  Cl  Cl511  1  0.13379953  0.51765684  0.25427568  1
  Cl  Cl512  1  0.14354628  0.85035831  0.24594344  1
  Cl  Cl513  1  0.63100694  0.18774719  0.24321713  1
  Cl  Cl514  1  0.63793992  0.52154914  0.25165290  1
  Cl  Cl515  1  0.63533420  0.85290890  0.25434322  1
  Cl  Cl516  1  0.13537335  0.14460376  0.75737837  1
  Cl  Cl517  1  0.13996894  0.48096058  0.74879859  1
  Cl  Cl518  1  0.13368970  0.80944382  0.75399236  1
  Cl  Cl519  1  0.63587055  0.14586664  0.75565811  1
  Cl  Cl520  1  0.64565902  0.48355683  0.74641287  1
  Cl  Cl521  1  0.63862514  0.81341240  0.74764452  1
  Cl  Cl522  1  0.35717456  0.18484693  0.25265692  1
  Cl  Cl523  1  0.35399083  0.51595627  0.24685409  1
  Cl  Cl524  1  0.36102706  0.85257042  0.25371425  1
  Cl  Cl525  1  0.85448271  0.18237704  0.24937069  1
  Cl  Cl526  1  0.85780156  0.51987470  0.25067485  1
  Cl  Cl527  1  0.85863177  0.85057885  0.25253775  1
  Cl  Cl528  1  0.11401865  0.31360579  0.75490072  1
  Cl  Cl529  1  0.11200871  0.64532191  0.75820583  1
  Cl  Cl530  1  0.11677970  0.97754202  0.74540065  1
  Cl  Cl531  1  0.61414690  0.31380525  0.75166470  1
  Cl  Cl532  1  0.61078026  0.65030263  0.75543558  1
  Cl  Cl533  1  0.61291227  0.97816620  0.74330973  1
  Cl  Cl534  1  0.39080894  0.01559173  0.23826794  1
  Cl  Cl535  1  0.39437797  0.34826480  0.24859644  1
  Cl  Cl536  1  0.38403646  0.68604226  0.26009131  1
  Cl  Cl537  1  0.89176191  0.01488845  0.24815220  1
  Cl  Cl538  1  0.88618842  0.34910441  0.24982687  1
  Cl  Cl539  1  0.89148527  0.68490287  0.25633099  1
  Cl  Cl540  1  0.39202610  0.31659740  0.75483970  1
  Cl  Cl541  1  0.39232228  0.64749025  0.73920891  1
  Cl  Cl542  1  0.39332457  0.98362062  0.75332059  1
  Cl  Cl543  1  0.89485846  0.31854829  0.75103372  1
  Cl  Cl544  1  0.89121792  0.64696599  0.74176161  1
  Cl  Cl545  1  0.89331030  0.98399063  0.74786529  1
  Cl  Cl546  1  0.11165607  0.01995543  0.25228450  1
  Cl  Cl547  1  0.10598529  0.35340437  0.24967988  1
  Cl  Cl548  1  0.10801656  0.68408038  0.24898992  1
  Cl  Cl549  1  0.61112910  0.02017872  0.25122087  1
  Cl  Cl550  1  0.61531960  0.35809432  0.24464212  1
  Cl  Cl551  1  0.60739969  0.68526543  0.24476978  1
