# generated using pymatgen
data_H8PbC4(N3Cl2)2
_symmetry_space_group_name_H-M   'P 1'
_cell_length_a   16.62806090
_cell_length_b   22.51708438
_cell_length_c   21.59340980
_cell_angle_alpha   90.00119371
_cell_angle_beta   89.99154147
_cell_angle_gamma   90.00616934
_symmetry_Int_Tables_number   1
_chemical_formula_structural   H8PbC4(N3Cl2)2
_chemical_formula_sum   'H192 Pb24 C96 N144 Cl96'
_cell_volume   8084.90612106
_cell_formula_units_Z   24
loop_
 _symmetry_equiv_pos_site_id
 _symmetry_equiv_pos_as_xyz
  1  'x, y, z'
loop_
 _atom_site_type_symbol
 _atom_site_label
 _atom_site_symmetry_multiplicity
 _atom_site_fract_x
 _atom_site_fract_y
 _atom_site_fract_z
 _atom_site_occupancy
  H  H0  1  -0.00997379  0.02844890  0.67388545  1
  H  H1  1  0.00472605  0.36036658  0.68177662  1
  H  H2  1  -0.00618501  0.69861257  0.67760673  1
  H  H3  1  0.50799717  0.02993199  0.68017841  1
  H  H4  1  0.48704930  0.36038932  0.67696109  1
  H  H5  1  0.50165629  0.69190365  0.67982045  1
  H  H6  1  0.00520564  0.30511308  0.17689481  1
  H  H7  1  0.00972166  0.63422081  0.17738699  1
  H  H8  1  -0.00270551  0.95983122  0.18132613  1
  H  H9  1  0.50716935  0.30326644  0.18229141  1
  H  H10  1  0.48611219  0.63707300  0.17482297  1
  H  H11  1  0.49348217  0.96866425  0.17902860  1
  H  H12  1  -0.00894279  0.03222250  0.82285704  1
  H  H13  1  -0.01655890  0.36302621  0.82294098  1
  H  H14  1  -0.00586957  0.69498403  0.82560351  1
  H  H15  1  0.49365980  0.02924366  0.81711773  1
  H  H16  1  0.51562112  0.36122399  0.82473570  1
  H  H17  1  0.49047165  0.69421124  0.81849163  1
  H  H18  1  -0.00975490  0.30604299  0.32088163  1
  H  H19  1  0.00790121  0.63544609  0.31953559  1
  H  H20  1  -0.00364864  0.97064167  0.32581673  1
  H  H21  1  0.50193899  0.30374303  0.32082002  1
  H  H22  1  0.49721666  0.64094386  0.32466227  1
  H  H23  1  0.50700470  0.97150656  0.32277146  1
  H  H24  1  0.26426396  0.19706727  0.67523661  1
  H  H25  1  0.24666093  0.53007625  0.67694962  1
  H  H26  1  0.27036775  0.86480192  0.67209014  1
  H  H27  1  0.75410143  0.19588230  0.67909596  1
  H  H28  1  0.75008709  0.52767797  0.67332202  1
  H  H29  1  0.73533499  0.86263621  0.67533413  1
  H  H30  1  0.25334840  0.13591448  0.17951322  1
  H  H31  1  0.24104436  0.47380921  0.17724290  1
  H  H32  1  0.25386766  0.80368169  0.17742443  1
  H  H33  1  0.75338126  0.13850717  0.18012403  1
  H  H34  1  0.75288664  0.47621492  0.18160399  1
  H  H35  1  0.74529559  0.80351504  0.17933823  1
  H  H36  1  0.24756008  0.19850844  0.81641398  1
  H  H37  1  0.24489987  0.52637600  0.82547224  1
  H  H38  1  0.24558428  0.86225446  0.81867910  1
  H  H39  1  0.74627296  0.19674790  0.81882873  1
  H  H40  1  0.75060781  0.53287673  0.82511766  1
  H  H41  1  0.76017093  0.86188097  0.82177552  1
  H  H42  1  0.26306001  0.13935126  0.32368838  1
  H  H43  1  0.25901138  0.47328221  0.32016771  1
  H  H44  1  0.26094244  0.80217826  0.32323727  1
  H  H45  1  0.74180674  0.13818817  0.32017510  1
  H  H46  1  0.73732009  0.46977977  0.32098972  1
  H  H47  1  0.73809502  0.80165347  0.31908423  1
  H  H48  1  0.12546260  0.05125631  0.61604309  1
  H  H49  1  0.12339910  0.38786852  0.60623880  1
  H  H50  1  0.12990358  0.71890309  0.61842781  1
  H  H51  1  0.62178726  0.05720794  0.60221992  1
  H  H52  1  0.62936742  0.38304254  0.62710140  1
  H  H53  1  0.62817136  0.71783798  0.61042308  1
  H  H54  1  0.37047883  0.28293855  0.12237601  1
  H  H55  1  0.38022756  0.60661224  0.09272257  1
  H  H56  1  0.38216678  0.94335730  0.10016112  1
  H  H57  1  0.87043006  0.27856261  0.12027512  1
  H  H58  1  0.87973091  0.61468389  0.11441943  1
  H  H59  1  0.89058806  0.94024150  0.09535390  1
  H  H60  1  0.38487491  0.05509821  0.89949874  1
  H  H61  1  0.37280570  0.38366626  0.87024113  1
  H  H62  1  0.37497062  0.71843690  0.89630950  1
  H  H63  1  0.88837203  0.06173917  0.90831138  1
  H  H64  1  0.88143395  0.39507301  0.90939294  1
  H  H65  1  0.88087536  0.72363389  0.90217223  1
  H  H66  1  0.12432394  0.28163834  0.38145291  1
  H  H67  1  0.11364696  0.60804678  0.40348379  1
  H  H68  1  0.12082003  0.94427983  0.39398669  1
  H  H69  1  0.62758999  0.28028428  0.39013525  1
  H  H70  1  0.61898486  0.61136795  0.39460497  1
  H  H71  1  0.61627609  0.94071143  0.40468432  1
  H  H72  1  0.37027193  0.22476878  0.59278782  1
  H  H73  1  0.38141496  0.55369238  0.61845981  1
  H  H74  1  0.37238244  0.89507865  0.58660778  1
  H  H75  1  0.86911169  0.22315498  0.60242657  1
  H  H76  1  0.87972832  0.55422303  0.60923900  1
  H  H77  1  0.88108253  0.88155939  0.63261068  1
  H  H78  1  0.11745938  0.11391173  0.12038176  1
  H  H79  1  0.12941959  0.44428881  0.09664021  1
  H  H80  1  0.11899325  0.78154541  0.11931369  1
  H  H81  1  0.61851200  0.11251417  0.12389217  1
  H  H82  1  0.62808297  0.44747439  0.11217922  1
  H  H83  1  0.62328956  0.77789200  0.10881035  1
  H  H84  1  0.13237997  0.22310744  0.89334448  1
  H  H85  1  0.12263668  0.55553651  0.89562869  1
  H  H86  1  0.11559806  0.88521922  0.88615763  1
  H  H87  1  0.63238775  0.22409555  0.89677237  1
  H  H88  1  0.62250551  0.55586170  0.89264644  1
  H  H89  1  0.61926428  0.88280902  0.87366929  1
  H  H90  1  0.37105509  0.10936546  0.40737138  1
  H  H91  1  0.36759590  0.44262498  0.40219718  1
  H  H92  1  0.36545911  0.77527031  0.40602390  1
  H  H93  1  0.87628281  0.11504318  0.38181952  1
  H  H94  1  0.87379477  0.44898078  0.37781882  1
  H  H95  1  0.86955232  0.78343139  0.38254727  1
  H  H96  1  0.37830635  0.27809272  0.39237326  1
  H  H97  1  0.37030015  0.61361097  0.39229551  1
  H  H98  1  0.37053780  0.94828126  0.38063462  1
  H  H99  1  0.87645482  0.27643371  0.39823424  1
  H  H100  1  0.86774036  0.61647161  0.37479670  1
  H  H101  1  0.87222775  0.94334881  0.39499964  1
  H  H102  1  0.13257038  0.05023866  0.87322355  1
  H  H103  1  0.12433843  0.38527195  0.87351122  1
  H  H104  1  0.12840997  0.71568369  0.88599201  1
  H  H105  1  0.63135277  0.05206324  0.87451841  1
  H  H106  1  0.61526595  0.39535030  0.91121354  1
  H  H107  1  0.62301634  0.71777613  0.88125244  1
  H  H108  1  0.11734856  0.27828726  0.09685551  1
  H  H109  1  0.12858093  0.60941811  0.10315229  1
  H  H110  1  0.13677391  0.94717857  0.12375748  1
  H  H111  1  0.61777600  0.27563048  0.10222350  1
  H  H112  1  0.62555642  0.61560147  0.12102548  1
  H  H113  1  0.62912708  0.94858797  0.12235335  1
  H  H114  1  0.37362592  0.05078070  0.61829200  1
  H  H115  1  0.38638058  0.39241841  0.58958338  1
  H  H116  1  0.37966538  0.72013764  0.60734676  1
  H  H117  1  0.87845009  0.06073344  0.59646352  1
  H  H118  1  0.87540466  0.38374986  0.61689687  1
  H  H119  1  0.88229356  0.72411359  0.59750349  1
  H  H120  1  0.12541933  0.11689312  0.38139433  1
  H  H121  1  0.12122076  0.44853518  0.37272883  1
  H  H122  1  0.11976812  0.78563514  0.37504194  1
  H  H123  1  0.62824221  0.11142364  0.39882048  1
  H  H124  1  0.62643374  0.44464721  0.40017798  1
  H  H125  1  0.62068954  0.77689767  0.39311344  1
  H  H126  1  0.38068567  0.21859334  0.87643243  1
  H  H127  1  0.37146377  0.55395552  0.89281935  1
  H  H128  1  0.36342134  0.88775957  0.89551961  1
  H  H129  1  0.88030531  0.21903578  0.88118169  1
  H  H130  1  0.87169058  0.55824445  0.89668731  1
  H  H131  1  0.86257979  0.89155866  0.90931080  1
  H  H132  1  0.36489737  0.10812247  0.10096600  1
  H  H133  1  0.37625294  0.45072632  0.11906414  1
  H  H134  1  0.36585009  0.77478422  0.09766887  1
  H  H135  1  0.86563907  0.11017804  0.09991949  1
  H  H136  1  0.87746448  0.44701937  0.11455261  1
  H  H137  1  0.87254980  0.77981261  0.11365494  1
  H  H138  1  0.12535638  0.21303769  0.62318242  1
  H  H139  1  0.13388544  0.55891250  0.59808685  1
  H  H140  1  0.12897643  0.88502924  0.62201595  1
  H  H141  1  0.62085774  0.21911469  0.61658692  1
  H  H142  1  0.63112504  0.55585913  0.60041889  1
  H  H143  1  0.64103344  0.89422045  0.58534895  1
  H  H144  1  0.60544303  0.91995807  1.00860722  1
  H  H145  1  0.91334609  0.58429263  0.00092078  1
  H  H146  1  0.72733810  0.91689278  0.48945032  1
  H  H147  1  0.09965818  0.74614436  0.99403275  1
  H  H148  1  0.83488264  0.74729023  0.00374116  1
  H  H149  1  0.38194673  0.41692756  0.98464664  1
  H  H150  1  0.44476919  0.91396646  -0.00671025  1
  H  H151  1  0.96375071  0.42098262  1.00619757  1
  H  H152  1  0.64501782  0.08284439  0.01092457  1
  H  H153  1  0.96723669  0.08511593  1.00797658  1
  H  H154  1  0.30004728  0.07944805  -0.00587526  1
  H  H155  1  0.91662973  0.91523348  0.50104175  1
  H  H156  1  0.09556867  0.08603624  0.50930688  1
  H  H157  1  0.29649592  0.41612061  0.50186805  1
  H  H158  1  0.69768929  0.25301940  1.00306332  1
  H  H159  1  0.46929044  0.41933859  0.49381903  1
  H  H160  1  0.14576185  0.91456545  0.51208208  1
  H  H161  1  0.96773704  0.90999390  -0.00197849  1
  H  H162  1  0.94657195  0.75481064  0.49220063  1
  H  H163  1  0.67578843  0.74582289  0.50193040  1
  H  H164  1  0.14399729  0.08750567  0.00987494  1
  H  H165  1  0.78202255  0.91608552  1.00703518  1
  H  H166  1  0.04818873  0.25082239  -0.00497017  1
  H  H167  1  0.14171729  0.24473878  0.50824974  1
  H  H168  1  0.43680936  0.75052139  1.00143341  1
  H  H169  1  0.83994980  0.58484753  0.50292126  1
  H  H170  1  0.91221334  0.41375642  0.50617849  1
  H  H171  1  0.55601831  0.08817168  0.49662966  1
  H  H172  1  0.68857395  0.41395376  0.50609490  1
  H  H173  1  0.10659333  0.74913082  0.50915527  1
  H  H174  1  0.19166258  0.25303530  1.00129721  1
  H  H175  1  0.35243542  0.24763189  0.98941535  1
  H  H176  1  0.11378312  0.92450148  0.01344597  1
  H  H177  1  0.29344262  0.74484466  0.51037016  1
  H  H178  1  0.20211446  0.58723740  0.49600771  1
  H  H179  1  0.69397936  0.08430115  0.50519499  1
  H  H180  1  0.45550938  0.08216118  1.00397633  1
  H  H181  1  0.68004312  0.42623269  0.00498793  1
  H  H182  1  0.53432784  0.41658696  1.00895476  1
  H  H183  1  0.79873147  0.08891188  -0.00286128  1
  H  H184  1  0.58078825  0.24982795  0.49870976  1
  H  H185  1  0.54268679  0.91440779  0.50480577  1
  H  H186  1  0.14263831  0.41239418  0.48402035  1
  H  H187  1  0.83200690  0.41178801  0.00619338  1
  H  H188  1  0.03955459  0.57966784  0.50617622  1
  H  H189  1  0.66996529  0.74776966  -0.00022718  1
  H  H190  1  0.54892934  0.24582968  -0.00264176  1
  H  H191  1  0.66522291  0.58472085  0.99823783  1
  Pb  Pb192  1  0.25796246  0.04928243  0.75494285  1
  Pb  Pb193  1  0.25577890  0.38127024  0.73499035  1
  Pb  Pb194  1  0.25375061  0.71349011  0.75081685  1
  Pb  Pb195  1  0.75500245  0.04769878  0.75036741  1
  Pb  Pb196  1  0.75589977  0.38360319  0.76418816  1
  Pb  Pb197  1  0.75361729  0.71449586  0.74998286  1
  Pb  Pb198  1  0.24711871  0.28646105  0.24649705  1
  Pb  Pb199  1  0.25307384  0.61761549  0.25282040  1
  Pb  Pb200  1  0.25208413  0.95199656  0.25165687  1
  Pb  Pb201  1  0.75187465  0.28384419  0.25016758  1
  Pb  Pb202  1  0.74668302  0.61976965  0.25014333  1
  Pb  Pb203  1  0.75130941  0.94984021  0.25217251  1
  Pb  Pb204  1  0.00404958  0.21467476  0.75403887  1
  Pb  Pb205  1  0.00589995  0.54922059  0.74859000  1
  Pb  Pb206  1  0.00389255  0.88173863  0.75966796  1
  Pb  Pb207  1  0.50638328  0.21666221  0.74917709  1
  Pb  Pb208  1  0.50362100  0.54667714  0.75238301  1
  Pb  Pb209  1  0.50238688  0.88037407  0.74028155  1
  Pb  Pb210  1  0.00172965  0.11714651  0.24631110  1
  Pb  Pb211  1  -0.00084315  0.45383787  0.24131132  1
  Pb  Pb212  1  0.00105675  0.78335110  0.24741749  1
  Pb  Pb213  1  0.49747954  0.11820152  0.25272699  1
  Pb  Pb214  1  0.50264054  0.44986705  0.25472953  1
  Pb  Pb215  1  0.49537785  0.78536142  0.24874968  1
  C  C216  1  -0.00160414  0.04626501  0.62771396  1
  C  C217  1  0.00142355  0.37712061  0.63475069  1
  C  C218  1  0.00271120  0.71420617  0.63035214  1
  C  C219  1  0.50099884  0.04598295  0.63316236  1
  C  C220  1  0.50050926  0.37738614  0.63110247  1
  C  C221  1  0.50316662  0.70965368  0.63314361  1
  C  C222  1  -0.00218573  0.28861890  0.13016906  1
  C  C223  1  0.00533186  0.61956165  0.12973697  1
  C  C224  1  0.00851611  0.94888774  0.13305794  1
  C  C225  1  0.49805541  0.28758551  0.13523891  1
  C  C226  1  0.49771733  0.62047080  0.12873943  1
  C  C227  1  0.50210703  0.95368784  0.13163973  1
  C  C228  1  0.00408063  0.04660296  0.86979432  1
  C  C229  1  -0.00429512  0.37974080  0.86905807  1
  C  C230  1  0.00165788  0.71135765  0.87248635  1
  C  C231  1  0.50379625  0.04507387  0.86396443  1
  C  C232  1  0.50126315  0.37828087  0.87066085  1
  C  C233  1  0.49636581  0.71000685  0.86571164  1
  C  C234  1  -0.00263195  0.28848530  0.36708921  1
  C  C235  1  -0.00407045  0.62069232  0.36656428  1
  C  C236  1  -0.00415132  0.95376237  0.37283459  1
  C  C237  1  0.50257405  0.28737336  0.36803286  1
  C  C238  1  0.49511445  0.62247014  0.37081948  1
  C  C239  1  0.49817130  0.95472913  0.36935390  1
  C  C240  1  0.25227207  0.21167700  0.62833975  1
  C  C241  1  0.25367865  0.54634295  0.63013483  1
  C  C242  1  0.25672256  0.88046531  0.62578188  1
  C  C243  1  0.74763662  0.21208427  0.63225635  1
  C  C244  1  0.75419244  0.54508415  0.62668437  1
  C  C245  1  0.75242537  0.87795936  0.62944830  1
  C  C246  1  0.24426915  0.12049716  0.13224966  1
  C  C247  1  0.24866663  0.45694499  0.13072973  1
  C  C248  1  0.24629294  0.78719642  0.13075890  1
  C  C249  1  0.74593420  0.12185274  0.13316654  1
  C  C250  1  0.75216663  0.45845265  0.13477688  1
  C  C251  1  0.74704417  0.78670080  0.13218762  1
  C  C252  1  0.25386916  0.21328920  0.86407825  1
  C  C253  1  0.24649191  0.54479757  0.87165349  1
  C  C254  1  0.24129128  0.87759341  0.86630266  1
  C  C255  1  0.75340021  0.21301023  0.86580921  1
  C  C256  1  0.74776736  0.54878324  0.87244327  1
  C  C257  1  0.74756747  0.87793706  0.86817347  1
  C  C258  1  0.25338880  0.12308989  0.37048249  1
  C  C259  1  0.24938983  0.45636759  0.36678741  1
  C  C260  1  0.24882843  0.78734047  0.37012741  1
  C  C261  1  0.74899896  0.12202856  0.36719642  1
  C  C262  1  0.74561169  0.45466472  0.36815956  1
  C  C263  1  0.74255215  0.78708144  0.36675840  1
  C  C264  1  0.97208213  0.25438191  0.46009894  1
  C  C265  1  0.72938374  0.24172449  0.96051550  1
  C  C266  1  0.27208490  0.91311923  0.52901584  1
  C  C267  1  0.51861557  0.25824647  0.04026877  1
  C  C268  1  0.26930465  0.09154721  0.03684465  1
  C  C269  1  0.19092241  0.23682021  0.54080372  1
  C  C270  1  0.69015857  0.09236432  0.04615522  1
  C  C271  1  0.71192679  0.75831631  0.46216077  1
  C  C272  1  0.55881124  0.92932979  0.04266404  1
  C  C273  1  0.31006014  0.57860242  0.54307769  1
  C  C274  1  0.79172766  0.75823251  0.04019681  1
  C  C275  1  0.07016507  0.07419767  0.95410113  1
  C  C276  1  0.30104855  0.42904639  0.04264690  1
  C  C277  1  0.94072827  0.25524472  0.04376322  1
  C  C278  1  0.71925001  0.57822658  0.53342612  1
  C  C279  1  0.03801766  0.92423999  0.46555929  1
  C  C280  1  0.70953128  0.75844904  0.03821470  1
  C  C281  1  0.18958535  0.42345136  0.45075326  1
  C  C282  1  0.26399105  0.75808226  0.46751534  1
  C  C283  1  0.79331611  0.76111204  0.45721293  1
  C  C284  1  0.82612802  0.90350603  0.54836216  1
  C  C285  1  0.27143600  0.24077415  0.53186593  1
  C  C286  1  0.47750624  0.92646945  0.03490406  1
  C  C287  1  0.48507086  0.07189602  0.96008223  1
  C  C288  1  0.72253541  0.42587226  0.46492469  1
  C  C289  1  0.54082790  0.26009833  0.46024566  1
  C  C290  1  0.52436342  0.07591541  0.53895375  1
  C  C291  1  0.72561648  0.09419967  0.46228284  1
  C  C292  1  0.95755555  0.59362657  0.03752042  1
  C  C293  1  0.18393065  0.76232673  0.45545829  1
  C  C294  1  0.97366719  0.74234324  0.96811953  1
  C  C295  1  0.01113170  0.59227354  0.46253763  1
  C  C296  1  0.80344628  0.42769242  0.45576148  1
  C  C297  1  0.48146839  0.58743672  0.03411176  1
  C  C298  1  0.19348022  0.75811379  0.04293551  1
  C  C299  1  0.03930072  0.59170881  0.03516660  1
  C  C300  1  0.78590158  0.57790570  0.96659905  1
  C  C301  1  0.21178401  0.57889525  0.96247872  1
  C  C302  1  0.77448298  0.24409602  0.53880409  1
  C  C303  1  0.30718993  0.23838376  0.95426889  1
  C  C304  1  0.79390366  0.42507118  0.04471242  1
  C  C305  1  0.97849366  0.74299877  0.53463345  1
  C  C306  1  0.43286501  0.40829513  0.95224657  1
  C  C307  1  0.22545107  0.24066703  0.96005341  1
  C  C308  1  0.97228897  0.08222413  0.53386150  1
  C  C309  1  0.52986809  0.58746987  0.46137515  1
  C  C310  1  0.95715795  0.40385086  0.54355808  1
  C  C311  1  0.47045398  0.73917484  0.95983524  1
  N  N312  1  0.22434375  0.42581130  0.03434710  1
  N  N313  1  0.05056415  0.07793033  0.54125892  1
  N  N314  1  0.44553422  0.07439229  0.54438052  1
  N  N315  1  0.19697743  0.09460836  0.45781289  1
  N  N316  1  0.43902380  0.92490658  0.45533609  1
  N  N317  1  0.23164563  0.57879761  0.53692898  1
  N  N318  1  0.01903118  0.25698863  0.03649866  1
  N  N319  1  0.51079193  0.41206619  0.96498039  1
  N  N320  1  0.51643522  0.92232143  0.46194402  1
  N  N321  1  0.19560864  0.90601877  0.95721181  1
  N  N322  1  0.26845503  0.42124780  0.45949148  1
  N  N323  1  0.04921807  0.25654772  0.45580001  1
  N  N324  1  0.99240783  0.07769371  0.96463665  1
  N  N325  1  0.46149735  0.25926121  0.46154764  1
  N  N326  1  0.80838887  0.24031719  0.95521527  1
  N  N327  1  0.75896638  0.90721770  0.96289842  1
  N  N328  1  0.44004148  0.26088948  0.04716166  1
  N  N329  1  0.49157267  0.41085154  0.53800402  1
  N  N330  1  0.27212645  0.90644354  0.96084321  1
  N  N331  1  0.54427255  0.74033312  0.54163210  1
  N  N332  1  0.27241458  0.09182606  0.46610810  1
  N  N333  1  0.06786550  0.93050332  0.04617546  1
  N  N334  1  0.46777588  0.74147924  0.54066623  1
  N  N335  1  0.54954060  0.73961490  0.95486890  1
  N  N336  1  0.06200743  0.40944630  0.95168697  1
  N  N337  1  0.28904788  0.57870788  0.96284010  1
  N  N338  1  0.69707119  0.24247100  0.54202940  1
  N  N339  1  0.76922265  0.09128908  0.03908921  1
  N  N340  1  0.56807371  0.40761022  0.54926787  1
  N  N341  1  0.95870166  0.92434670  0.46479021  1
  N  N342  1  0.71414522  0.42576649  0.04448203  1
  N  N343  1  0.99018722  0.93532870  0.03450875  1
  N  N344  1  0.19041217  0.09421154  0.04447655  1
  N  N345  1  0.93296174  0.59570969  0.45324516  1
  N  N346  1  0.74966583  0.90795274  0.53357157  1
  N  N347  1  0.68262229  0.90492315  0.95188468  1
  N  N348  1  0.80436395  0.09428427  0.45634722  1
  N  N349  1  0.05742741  0.74151524  0.54289758  1
  N  N350  1  0.45243255  0.58777756  0.46174244  1
  N  N351  1  0.56344586  0.07129810  0.95151572  1
  N  N352  1  0.55820642  0.59079835  0.04222915  1
  N  N353  1  0.19498246  0.90812704  0.54145390  1
  N  N354  1  0.98539059  0.41297289  0.96205562  1
  N  N355  1  0.03641139  0.40551281  0.53968096  1
  N  N356  1  0.27051679  0.75569203  0.03450057  1
  N  N357  1  0.79799589  0.57647056  0.53747029  1
  N  N358  1  0.05221219  0.73905252  0.96110699  1
  N  N359  1  0.70671661  0.57664102  0.96372635  1
  N  N360  1  0.06723526  0.05536805  0.59901063  1
  N  N361  1  0.06245588  0.38876346  0.59724823  1
  N  N362  1  0.07164566  0.72385462  0.60182248  1
  N  N363  1  0.56023363  0.05882777  0.59310019  1
  N  N364  1  0.57286591  0.38862670  0.60766883  1
  N  N365  1  0.56751288  0.72054347  0.59878966  1
  N  N366  1  0.42889636  0.27877792  0.10649210  1
  N  N367  1  0.44202950  0.60518170  0.08592347  1
  N  N368  1  0.44360708  0.94166474  0.09076775  1
  N  N369  1  0.92738026  0.27419034  0.10191019  1
  N  N370  1  0.93791699  0.61107591  0.09755607  1
  N  N371  1  0.95342251  0.93827411  0.09016347  1
  N  N372  1  0.44704605  0.05604917  0.90665133  1
  N  N373  1  0.42718185  0.38904229  0.89326009  1
  N  N374  1  0.43642972  0.72139463  0.90544718  1
  N  N375  1  0.95090470  0.05743246  0.91373358  1
  N  N376  1  0.94317673  0.39233860  0.91325207  1
  N  N377  1  0.94200230  0.72545584  0.91302867  1
  N  N378  1  0.06528443  0.27776978  0.39670722  1
  N  N379  1  0.05114315  0.60770454  0.40977998  1
  N  N380  1  0.06098780  0.94173837  0.40834728  1
  N  N381  1  0.56755981  0.27698809  0.40308866  1
  N  N382  1  0.55872574  0.60809297  0.40662258  1
  N  N383  1  0.55417515  0.94258202  0.41098869  1
  N  N384  1  0.30852125  0.22570007  0.58453079  1
  N  N385  1  0.32401134  0.55883612  0.60079052  1
  N  N386  1  0.31077683  0.89571874  0.58105157  1
  N  N387  1  0.80778372  0.22574210  0.59266799  1
  N  N388  1  0.82036676  0.55517956  0.59463490  1
  N  N389  1  0.82797205  0.88632128  0.60818867  1
  N  N390  1  0.17532940  0.11329643  0.10285590  1
  N  N391  1  0.19154804  0.44395261  0.09057721  1
  N  N392  1  0.17641287  0.77653641  0.10170193  1
  N  N393  1  0.67557618  0.10958845  0.10492840  1
  N  N394  1  0.68869161  0.44987485  0.09901502  1
  N  N395  1  0.68320610  0.77591176  0.09575540  1
  N  N396  1  0.19364960  0.22485664  0.90350591  1
  N  N397  1  0.18273349  0.55861104  0.90761171  1
  N  N398  1  0.17525386  0.88781803  0.89882052  1
  N  N399  1  0.69407757  0.22545040  0.90596072  1
  N  N400  1  0.68269631  0.55846350  0.90583831  1
  N  N401  1  0.67564008  0.88727708  0.89311878  1
  N  N402  1  0.30898466  0.10971888  0.41228188  1
  N  N403  1  0.30520580  0.44491284  0.40882685  1
  N  N404  1  0.30353356  0.77410611  0.41307724  1
  N  N405  1  0.81704953  0.11177648  0.39719014  1
  N  N406  1  0.81665135  0.44478283  0.39713846  1
  N  N407  1  0.81128657  0.77817756  0.39955744  1
  N  N408  1  0.43943542  0.27601363  0.40366430  1
  N  N409  1  0.43058168  0.60997332  0.40401246  1
  N  N410  1  0.42824460  0.94372342  0.39706878  1
  N  N411  1  0.93795077  0.27381457  0.40685946  1
  N  N412  1  0.92521740  0.61332544  0.39324579  1
  N  N413  1  0.93231653  0.94339473  0.40770525  1
  N  N414  1  0.07775624  0.05628476  0.89461429  1
  N  N415  1  0.06782583  0.39039140  0.89322909  1
  N  N416  1  0.06982143  0.71992767  0.90227881  1
  N  N417  1  0.57351582  0.05494105  0.89152496  1
  N  N418  1  0.55305083  0.39001671  0.91562793  1
  N  N419  1  0.56386821  0.72143280  0.89603356  1
  N  N420  1  0.05525881  0.27950503  0.08897649  1
  N  N421  1  0.06784381  0.60726176  0.09085981  1
  N  N422  1  0.07937773  0.94517126  0.10523127  1
  N  N423  1  0.55576508  0.27450642  0.09401529  1
  N  N424  1  0.56822666  0.61148974  0.10250356  1
  N  N425  1  0.57279155  0.94604954  0.10272283  1
  N  N426  1  0.43277770  0.05595241  0.60317183  1
  N  N427  1  0.44884374  0.39006086  0.58644070  1
  N  N428  1  0.44098937  0.72305979  0.59745278  1
  N  N429  1  0.93958482  0.06254842  0.58719432  1
  N  N430  1  0.93467864  0.38716604  0.60177437  1
  N  N431  1  0.94395352  0.72656815  0.58894604  1
  N  N432  1  0.18371411  0.11383098  0.39851423  1
  N  N433  1  0.17775770  0.44376917  0.39273531  1
  N  N434  1  0.17532739  0.77954590  0.39606428  1
  N  N435  1  0.68984616  0.11043549  0.40773229  1
  N  N436  1  0.68759323  0.44296221  0.40901243  1
  N  N437  1  0.68141929  0.77480062  0.40471926  1
  N  N438  1  0.32327020  0.22154890  0.89456797  1
  N  N439  1  0.31100012  0.55714266  0.90494437  1
  N  N440  1  0.30160568  0.88891722  0.90468468  1
  N  N441  1  0.82139084  0.22273337  0.89614598  1
  N  N442  1  0.81147937  0.56089904  0.90999653  1
  N  N443  1  0.80008447  0.88969435  0.91262245  1
  N  N444  1  0.30321776  0.10763659  0.09128566  1
  N  N445  1  0.31884290  0.44710143  0.10125220  1
  N  N446  1  0.30353363  0.77455828  0.09055629  1
  N  N447  1  0.80350674  0.11245698  0.09203133  1
  N  N448  1  0.81759525  0.44372097  0.10114213  1
  N  N449  1  0.81329548  0.77546945  0.09903594  1
  N  N450  1  0.18050598  0.21884191  0.60195159  1
  N  N451  1  0.19559403  0.55707240  0.58976942  1
  N  N452  1  0.18499851  0.88688350  0.60077705  1
  N  N453  1  0.68025317  0.22211629  0.60172549  1
  N  N454  1  0.69186425  0.55900149  0.58871060  1
  N  N455  1  0.70342548  0.88965546  0.58296810  1
  Cl  Cl456  1  0.24837597  0.04562032  0.62472000  1
  Cl  Cl457  1  0.26258170  0.39491453  0.59715723  1
  Cl  Cl458  1  0.25658779  0.71749615  0.61481905  1
  Cl  Cl459  1  0.74820745  0.05462325  0.61595105  1
  Cl  Cl460  1  0.75345401  0.38292629  0.63177912  1
  Cl  Cl461  1  0.75528631  0.71933646  0.61501859  1
  Cl  Cl462  1  0.23914291  0.27690007  0.11132632  1
  Cl  Cl463  1  0.25365430  0.61149860  0.12131028  1
  Cl  Cl464  1  0.26160093  0.94891967  0.12007557  1
  Cl  Cl465  1  0.74003815  0.27835998  0.11442097  1
  Cl  Cl466  1  0.75244668  0.60919392  0.11792227  1
  Cl  Cl467  1  0.77073225  0.93788539  0.10387713  1
  Cl  Cl468  1  0.26285459  0.05619001  0.89125960  1
  Cl  Cl469  1  0.24715597  0.38503639  0.86256332  1
  Cl  Cl470  1  0.25165490  0.71648570  0.88088480  1
  Cl  Cl471  1  0.76783818  0.06175969  0.89429463  1
  Cl  Cl472  1  0.74327573  0.39922587  0.90459673  1
  Cl  Cl473  1  0.75625745  0.72089778  0.88440652  1
  Cl  Cl474  1  0.25398573  0.28107153  0.37845330  1
  Cl  Cl475  1  0.23682212  0.60773277  0.39529507  1
  Cl  Cl476  1  0.24254550  0.94239684  0.38608773  1
  Cl  Cl477  1  0.75353412  0.28022369  0.38189791  1
  Cl  Cl478  1  0.74192522  0.61075573  0.38378741  1
  Cl  Cl479  1  0.73911348  0.93891129  0.39641153  1
  Cl  Cl480  1  -0.00882325  0.21743834  0.62357664  1
  Cl  Cl481  1  0.00874302  0.55919128  0.61111215  1
  Cl  Cl482  1  0.00604985  0.89020029  0.62702471  1
  Cl  Cl483  1  0.49454622  0.22367679  0.61676439  1
  Cl  Cl484  1  0.50874792  0.55074630  0.62067985  1
  Cl  Cl485  1  0.51708607  0.89630061  0.60106078  1
  Cl  Cl486  1  -0.01299019  0.10670837  0.10225606  1
  Cl  Cl487  1  0.00075566  0.44099808  0.10286450  1
  Cl  Cl488  1  -0.00410317  0.78303654  0.11381595  1
  Cl  Cl489  1  0.48778499  0.10725903  0.11703075  1
  Cl  Cl490  1  0.50623231  0.43955169  0.11209419  1
  Cl  Cl491  1  0.49014776  0.77446415  0.11335197  1
  Cl  Cl492  1  0.00983049  0.22301735  0.89267403  1
  Cl  Cl493  1  -0.00467337  0.55666137  0.88202060  1
  Cl  Cl494  1  -0.01661180  0.88761615  0.90263130  1
  Cl  Cl495  1  0.51081580  0.22419993  0.88500564  1
  Cl  Cl496  1  0.49839896  0.55272513  0.88671740  1
  Cl  Cl497  1  0.48566769  0.88563579  0.87426678  1
  Cl  Cl498  1  0.00132640  0.11197937  0.37863448  1
  Cl  Cl499  1  -0.00267181  0.44814548  0.37158136  1
  Cl  Cl500  1  -0.00699075  0.78437282  0.38119333  1
  Cl  Cl501  1  0.50193745  0.10836344  0.38809210  1
  Cl  Cl502  1  0.49087625  0.43924621  0.39600924  1
  Cl  Cl503  1  0.49317501  0.77900176  0.37997843  1
  Cl  Cl504  1  0.35584157  0.14897495  0.74954608  1
  Cl  Cl505  1  0.35930247  0.48078143  0.74725654  1
  Cl  Cl506  1  0.35755572  0.81838230  0.74383671  1
  Cl  Cl507  1  0.86026047  0.14860094  0.75559051  1
  Cl  Cl508  1  0.85549293  0.48127841  0.75324688  1
  Cl  Cl509  1  0.86274745  0.81687134  0.74750776  1
  Cl  Cl510  1  0.13289834  0.18643390  0.24701217  1
  Cl  Cl511  1  0.13582293  0.51992885  0.24903375  1
  Cl  Cl512  1  0.13318026  0.85485665  0.24977230  1
  Cl  Cl513  1  0.63422279  0.18655488  0.24759897  1
  Cl  Cl514  1  0.63657135  0.51766092  0.24529329  1
  Cl  Cl515  1  0.64186683  0.85471971  0.24401829  1
  Cl  Cl516  1  0.13503831  0.14266758  0.74493730  1
  Cl  Cl517  1  0.13958287  0.47947517  0.74300115  1
  Cl  Cl518  1  0.13511868  0.81048601  0.74442044  1
  Cl  Cl519  1  0.63979951  0.14608554  0.74984512  1
  Cl  Cl520  1  0.63977522  0.48058425  0.75130246  1
  Cl  Cl521  1  0.64191300  0.81586043  0.75428873  1
  Cl  Cl522  1  0.35662178  0.18398274  0.24621495  1
  Cl  Cl523  1  0.35548333  0.52008481  0.24981896  1
  Cl  Cl524  1  0.35399713  0.84868773  0.25072316  1
  Cl  Cl525  1  0.85424954  0.18707926  0.24882724  1
  Cl  Cl526  1  0.86001486  0.52003342  0.25457153  1
  Cl  Cl527  1  0.85907448  0.85636078  0.25650387  1
  Cl  Cl528  1  0.10841810  0.31322712  0.74940998  1
  Cl  Cl529  1  0.11215040  0.64612827  0.74846832  1
  Cl  Cl530  1  0.11397649  0.97590244  0.76348984  1
  Cl  Cl531  1  0.60806509  0.31435689  0.74746607  1
  Cl  Cl532  1  0.61505444  0.64750178  0.75775073  1
  Cl  Cl533  1  0.61622921  0.97917118  0.76050980  1
  Cl  Cl534  1  0.39294638  0.01296686  0.25639970  1
  Cl  Cl535  1  0.38602449  0.35268133  0.24563032  1
  Cl  Cl536  1  0.39132154  0.68190184  0.25261303  1
  Cl  Cl537  1  0.88598183  0.01878054  0.25063665  1
  Cl  Cl538  1  0.88723379  0.35288982  0.24118345  1
  Cl  Cl539  1  0.88143160  0.68864192  0.25215682  1
  Cl  Cl540  1  0.38896489  0.31396939  0.75567797  1
  Cl  Cl541  1  0.39195022  0.64756338  0.74658806  1
  Cl  Cl542  1  0.39502600  0.98403698  0.74382006  1
  Cl  Cl543  1  0.88787584  0.31269286  0.75878575  1
  Cl  Cl544  1  0.89362866  0.65011062  0.74906780  1
  Cl  Cl545  1  0.89396917  0.98283689  0.74869216  1
  Cl  Cl546  1  0.10485810  0.02171400  0.24303095  1
  Cl  Cl547  1  0.10882393  0.35309167  0.25482331  1
  Cl  Cl548  1  0.10356399  0.68665945  0.24967153  1
  Cl  Cl549  1  0.61550767  0.02118122  0.24082401  1
  Cl  Cl550  1  0.60473775  0.35491194  0.25270285  1
  Cl  Cl551  1  0.61113374  0.68672814  0.24419124  1
