# generated using pymatgen
data_H8PbC4(N3Cl2)2
_symmetry_space_group_name_H-M   'P 1'
_cell_length_a   16.62634957
_cell_length_b   22.52001283
_cell_length_c   21.59677552
_cell_angle_alpha   89.99887640
_cell_angle_beta   89.99876745
_cell_angle_gamma   90.01287298
_symmetry_Int_Tables_number   1
_chemical_formula_structural   H8PbC4(N3Cl2)2
_chemical_formula_sum   'H192 Pb24 C96 N144 Cl96'
_cell_volume   8086.38554385
_cell_formula_units_Z   24
loop_
 _symmetry_equiv_pos_site_id
 _symmetry_equiv_pos_as_xyz
  1  'x, y, z'
loop_
 _atom_site_type_symbol
 _atom_site_label
 _atom_site_symmetry_multiplicity
 _atom_site_fract_x
 _atom_site_fract_y
 _atom_site_fract_z
 _atom_site_occupancy
  H  H0  1  0.00256096  0.02704248  0.67725685  1
  H  H1  1  -0.00141651  0.36539422  0.68339077  1
  H  H2  1  0.00193860  0.69703545  0.68055296  1
  H  H3  1  0.49096708  0.02939920  0.67700460  1
  H  H4  1  0.49070971  0.36248559  0.67574788  1
  H  H5  1  0.50507963  0.69319457  0.67659534  1
  H  H6  1  0.00638800  0.30367974  0.18170524  1
  H  H7  1  0.00104153  0.63743001  0.17544469  1
  H  H8  1  -0.00784379  0.97211684  0.17399200  1
  H  H9  1  0.50469531  0.30489551  0.18007933  1
  H  H10  1  0.49678476  0.64068498  0.17695686  1
  H  H11  1  0.50919987  0.96613996  0.17770945  1
  H  H12  1  0.00138582  0.02737903  0.82147639  1
  H  H13  1  -0.00339675  0.35558145  0.82470214  1
  H  H14  1  -0.00155429  0.69514938  0.82057997  1
  H  H15  1  0.49839984  0.02731687  0.82271321  1
  H  H16  1  0.49969580  0.36369589  0.82153625  1
  H  H17  1  0.49273249  0.69154665  0.82112189  1
  H  H18  1  -0.00056998  0.30609895  0.31644303  1
  H  H19  1  0.01090061  0.64031430  0.32285176  1
  H  H20  1  -0.01436185  0.96712843  0.31898846  1
  H  H21  1  0.51405608  0.30492487  0.32679153  1
  H  H22  1  0.50059756  0.64146551  0.32591552  1
  H  H23  1  0.50886598  0.97093442  0.31947133  1
  H  H24  1  0.23613365  0.20137073  0.67856554  1
  H  H25  1  0.24297856  0.52885617  0.68170299  1
  H  H26  1  0.26372822  0.86215694  0.68083427  1
  H  H27  1  0.77760946  0.19347643  0.67601604  1
  H  H28  1  0.76189387  0.52868830  0.67667167  1
  H  H29  1  0.74153532  0.85943798  0.68009840  1
  H  H30  1  0.24208450  0.13817681  0.17950868  1
  H  H31  1  0.25142229  0.47439856  0.17788415  1
  H  H32  1  0.25748592  0.80434526  0.18143465  1
  H  H33  1  0.76065954  0.13893507  0.18055108  1
  H  H34  1  0.74970932  0.47134289  0.17813883  1
  H  H35  1  0.75621360  0.80476390  0.17678208  1
  H  H36  1  0.24326992  0.19758787  0.82470457  1
  H  H37  1  0.26198206  0.53148579  0.82126767  1
  H  H38  1  0.24945685  0.86095365  0.82263696  1
  H  H39  1  0.73946083  0.19642677  0.82288214  1
  H  H40  1  0.73806165  0.53078030  0.82364969  1
  H  H41  1  0.75971318  0.86206071  0.82219886  1
  H  H42  1  0.25842212  0.13626307  0.32434446  1
  H  H43  1  0.25292185  0.47037443  0.31724414  1
  H  H44  1  0.22548487  0.80140119  0.32878145  1
  H  H45  1  0.74734115  0.13362118  0.32349877  1
  H  H46  1  0.76243167  0.47058429  0.31747158  1
  H  H47  1  0.76332832  0.79704197  0.32301054  1
  H  H48  1  0.13311024  0.05409893  0.61359343  1
  H  H49  1  0.13307324  0.38441806  0.62439209  1
  H  H50  1  0.12315845  0.72270933  0.60631687  1
  H  H51  1  0.63336727  0.05009040  0.62805458  1
  H  H52  1  0.62546885  0.38241896  0.61981486  1
  H  H53  1  0.62813080  0.71829520  0.60421031  1
  H  H54  1  0.37187103  0.28348552  0.11732560  1
  H  H55  1  0.37268054  0.61254618  0.10584906  1
  H  H56  1  0.37767218  0.94676318  0.11255411  1
  H  H57  1  0.87285499  0.27983114  0.11865811  1
  H  H58  1  0.86957702  0.61519136  0.11132533  1
  H  H59  1  0.88035495  0.94216747  0.09616126  1
  H  H60  1  0.37553389  0.05634128  0.89301790  1
  H  H61  1  0.39228349  0.38965036  0.90284240  1
  H  H62  1  0.37635564  0.72119449  0.89850088  1
  H  H63  1  0.87880070  0.05412399  0.89366700  1
  H  H64  1  0.88917090  0.38954043  0.90547254  1
  H  H65  1  0.87687226  0.72235608  0.89363004  1
  H  H66  1  0.12410478  0.27966920  0.38631884  1
  H  H67  1  0.11273740  0.60935901  0.40898608  1
  H  H68  1  0.12472942  0.94770591  0.37582650  1
  H  H69  1  0.62415256  0.27217613  0.40783089  1
  H  H70  1  0.61874721  0.61235388  0.40014721  1
  H  H71  1  0.62795249  0.94602154  0.39576069  1
  H  H72  1  0.37892892  0.21766064  0.63138687  1
  H  H73  1  0.38026605  0.54754396  0.62703004  1
  H  H74  1  0.37028657  0.88983688  0.59743355  1
  H  H75  1  0.87350958  0.22400514  0.58603846  1
  H  H76  1  0.88180121  0.55815794  0.60276569  1
  H  H77  1  0.87119073  0.88704692  0.61789493  1
  H  H78  1  0.12343869  0.11274665  0.10451335  1
  H  H79  1  0.11641434  0.44794333  0.11915843  1
  H  H80  1  0.12566736  0.78191728  0.11643604  1
  H  H81  1  0.62453997  0.11839924  0.12304171  1
  H  H82  1  0.61326752  0.45216836  0.12242336  1
  H  H83  1  0.62644771  0.78334887  0.11436521  1
  H  H84  1  0.13730527  0.22445018  0.90690790  1
  H  H85  1  0.12884935  0.55387049  0.88126514  1
  H  H86  1  0.12396740  0.88845271  0.89090390  1
  H  H87  1  0.63334824  0.22306478  0.90575386  1
  H  H88  1  0.63606848  0.55883926  0.91089904  1
  H  H89  1  0.62415532  0.88360138  0.88286467  1
  H  H90  1  0.35668491  0.10527683  0.41217496  1
  H  H91  1  0.37001336  0.44503270  0.39550099  1
  H  H92  1  0.37012216  0.78473386  0.36915070  1
  H  H93  1  0.86186045  0.10893380  0.40036342  1
  H  H94  1  0.86947827  0.44345693  0.40021726  1
  H  H95  1  0.87489399  0.77551164  0.40253751  1
  H  H96  1  0.37837936  0.28480183  0.38562516  1
  H  H97  1  0.36999567  0.61352174  0.38755490  1
  H  H98  1  0.37916566  0.94409961  0.38206739  1
  H  H99  1  0.87467905  0.27757565  0.38411188  1
  H  H100  1  0.86964131  0.62017454  0.37436652  1
  H  H101  1  0.87853657  0.94050163  0.40246276  1
  H  H102  1  0.12737026  0.05501708  0.88731994  1
  H  H103  1  0.13397246  0.38214139  0.87920825  1
  H  H104  1  0.12594220  0.71993440  0.88773340  1
  H  H105  1  0.62496477  0.05425053  0.88857612  1
  H  H106  1  0.63834957  0.38187986  0.87499678  1
  H  H107  1  0.62442914  0.71689248  0.88562254  1
  H  H108  1  0.12060486  0.27687191  0.10136326  1
  H  H109  1  0.11874088  0.61033763  0.10093079  1
  H  H110  1  0.12738741  0.94947777  0.11534843  1
  H  H111  1  0.61999783  0.27589222  0.10247641  1
  H  H112  1  0.62127096  0.61405441  0.10607790  1
  H  H113  1  0.62627342  0.94452238  0.10039788  1
  H  H114  1  0.38934589  0.06184464  0.59165070  1
  H  H115  1  0.37889143  0.39156236  0.59804946  1
  H  H116  1  0.38043654  0.72415557  0.60886635  1
  H  H117  1  0.88405828  0.05410619  0.60336423  1
  H  H118  1  0.88469469  0.38872483  0.60548843  1
  H  H119  1  0.87386435  0.72063241  0.61317323  1
  H  H120  1  0.11451963  0.11562669  0.36994977  1
  H  H121  1  0.12174289  0.44735187  0.38408913  1
  H  H122  1  0.13130590  0.77190655  0.41861219  1
  H  H123  1  0.61471040  0.11551592  0.38294699  1
  H  H124  1  0.62336032  0.45069678  0.37406828  1
  H  H125  1  0.62758318  0.78104850  0.38095828  1
  H  H126  1  0.38200692  0.21571382  0.87594075  1
  H  H127  1  0.37642142  0.55616592  0.90095719  1
  H  H128  1  0.37248318  0.88644162  0.89274972  1
  H  H129  1  0.87815514  0.21302242  0.87456238  1
  H  H130  1  0.87943148  0.55075735  0.87328118  1
  H  H131  1  0.87036474  0.89050889  0.90432983  1
  H  H132  1  0.37205094  0.11426646  0.11434210  1
  H  H133  1  0.36437425  0.44594571  0.10055008  1
  H  H134  1  0.37382415  0.77973717  0.10214671  1
  H  H135  1  0.87213751  0.11135253  0.10290295  1
  H  H136  1  0.86016814  0.44295390  0.09942735  1
  H  H137  1  0.87516225  0.78025351  0.10289649  1
  H  H138  1  0.13558256  0.22661161  0.59101807  1
  H  H139  1  0.13414731  0.55702596  0.60112507  1
  H  H140  1  0.12428779  0.88338908  0.62499686  1
  H  H141  1  0.63317113  0.21743269  0.62985323  1
  H  H142  1  0.63355203  0.55392645  0.61007635  1
  H  H143  1  0.62269480  0.88393744  0.60366528  1
  H  H144  1  0.06468893  0.58334513  -0.00736867  1
  H  H145  1  0.92067513  0.24786335  0.49437328  1
  H  H146  1  0.08156673  0.75231647  0.99629218  1
  H  H147  1  0.10650552  0.41455912  0.51167871  1
  H  H148  1  0.68507119  0.89254461  0.49699514  1
  H  H149  1  0.36721750  0.24815143  -0.00894977  1
  H  H150  1  0.79545635  0.41219465  -0.00634339  1
  H  H151  1  0.62995203  0.41821796  0.00471515  1
  H  H152  1  0.94035954  0.08633682  0.49573826  1
  H  H153  1  0.82552333  0.58758476  0.50105908  1
  H  H154  1  0.66105633  0.74817423  0.00253032  1
  H  H155  1  0.46173373  0.42061466  1.00796103  1
  H  H156  1  0.30129197  0.41491905  -0.00593005  1
  H  H157  1  0.80975879  0.08094402  -0.00393567  1
  H  H158  1  0.09690586  0.91822811  0.00838017  1
  H  H159  1  0.56625001  0.90975902  0.00069021  1
  H  H160  1  0.20078355  0.58476670  0.49526579  1
  H  H161  1  0.78541026  0.24748543  0.49087861  1
  H  H162  1  0.14668149  0.41922082  0.01141648  1
  H  H163  1  0.58696452  0.08814486  0.99777925  1
  H  H164  1  0.86187145  0.24459633  -0.01021330  1
  H  H165  1  0.17923109  0.08550690  -0.00294326  1
  H  H166  1  0.55871718  0.57980097  0.50249523  1
  H  H167  1  0.03171001  0.58446200  0.50661173  1
  H  H168  1  0.96377908  0.41625793  1.00529558  1
  H  H169  1  0.36992935  0.75266699  0.48428090  1
  H  H170  1  0.09852155  0.07998053  0.50448909  1
  H  H171  1  0.41711535  0.90944971  0.49250154  1
  H  H172  1  0.95262894  0.91220973  0.50578437  1
  H  H173  1  0.60130105  0.41704898  0.50606947  1
  H  H174  1  0.56656103  0.93412003  0.50212405  1
  H  H175  1  0.91703133  0.75239314  0.50457381  1
  H  H176  1  0.27395150  0.08131790  0.50974758  1
  H  H177  1  0.55397512  0.24997976  0.50865526  1
  H  H178  1  0.41514267  0.91584903  0.00668863  1
  H  H179  1  0.07340171  0.25906497  0.49363633  1
  H  H180  1  0.90264936  0.58694668  0.00384065  1
  H  H181  1  0.79659700  0.41447729  0.50383047  1
  H  H182  1  0.36195762  0.57515470  0.51275810  1
  H  H183  1  0.21339944  0.25468529  0.48894930  1
  H  H184  1  0.29552613  0.91490618  0.49316121  1
  H  H185  1  0.64150427  0.08727284  0.49876354  1
  H  H186  1  0.37140873  0.24766833  0.51830042  1
  H  H187  1  0.46986734  0.08699896  0.49273783  1
  H  H188  1  0.57973659  0.75060718  0.50276813  1
  H  H189  1  0.83326400  0.91873255  0.50608592  1
  H  H190  1  0.42541016  0.08524091  0.99682471  1
  H  H191  1  0.94519883  0.41784713  0.49778290  1
  Pb  Pb192  1  0.25286450  0.04994163  0.74462835  1
  Pb  Pb193  1  0.26201876  0.38368077  0.75408238  1
  Pb  Pb194  1  0.25505278  0.71432300  0.74847799  1
  Pb  Pb195  1  0.76087160  0.04942906  0.75175062  1
  Pb  Pb196  1  0.75892468  0.38146302  0.74851694  1
  Pb  Pb197  1  0.75243549  0.71428168  0.75042573  1
  Pb  Pb198  1  0.24638214  0.28569506  0.24706310  1
  Pb  Pb199  1  0.24388720  0.61941236  0.25223574  1
  Pb  Pb200  1  0.24878058  0.95296483  0.25071746  1
  Pb  Pb201  1  0.74276597  0.28422013  0.25430508  1
  Pb  Pb202  1  0.74381846  0.62030787  0.25194990  1
  Pb  Pb203  1  0.75168370  0.94904930  0.25347025  1
  Pb  Pb204  1  0.01083935  0.21698975  0.74029930  1
  Pb  Pb205  1  0.00623371  0.54890711  0.74291570  1
  Pb  Pb206  1  0.00298907  0.88011759  0.75648812  1
  Pb  Pb207  1  0.50903772  0.21452345  0.75255383  1
  Pb  Pb208  1  0.50832330  0.54788761  0.75226718  1
  Pb  Pb209  1  0.50321125  0.88503376  0.74771263  1
  Pb  Pb210  1  -0.00501208  0.11842217  0.25115804  1
  Pb  Pb211  1  -0.00763411  0.45195829  0.24891299  1
  Pb  Pb212  1  0.00090745  0.78457171  0.25666130  1
  Pb  Pb213  1  0.49329723  0.11751814  0.25351206  1
  Pb  Pb214  1  0.49199488  0.45244311  0.25198079  1
  Pb  Pb215  1  0.49644967  0.78559356  0.25061970  1
  C  C216  1  0.00746083  0.04445360  0.63042306  1
  C  C217  1  0.00586226  0.37965709  0.63566923  1
  C  C218  1  -0.00028408  0.71308482  0.63322935  1
  C  C219  1  0.50435340  0.04569829  0.63082561  1
  C  C220  1  0.49923425  0.37891856  0.62910233  1
  C  C221  1  0.50485279  0.71121394  0.63003510  1
  C  C222  1  0.00001816  0.28776046  0.13454932  1
  C  C223  1  -0.00407151  0.62141772  0.12807251  1
  C  C224  1  0.00041482  0.95545700  0.12737447  1
  C  C225  1  0.49912695  0.28867440  0.13310849  1
  C  C226  1  0.49678404  0.62357115  0.13005738  1
  C  C227  1  0.50423306  0.95237339  0.12960771  1
  C  C228  1  0.00223016  0.04485119  0.86803697  1
  C  C229  1  0.00655952  0.37424525  0.87041264  1
  C  C230  1  0.00031725  0.71256038  0.86736074  1
  C  C231  1  0.49916226  0.04524307  0.86943271  1
  C  C232  1  0.51029865  0.37850477  0.86873195  1
  C  C233  1  0.49771627  0.70881027  0.86787957  1
  C  C234  1  -0.00013566  0.28918862  0.36361292  1
  C  C235  1  -0.00211207  0.62405383  0.36903213  1
  C  C236  1  -0.00335055  0.95236618  0.36604586  1
  C  C237  1  0.50600586  0.28803604  0.37334051  1
  C  C238  1  0.49677034  0.62307122  0.37223837  1
  C  C239  1  0.50596186  0.95521078  0.36707960  1
  C  C240  1  0.25082136  0.21484990  0.63154091  1
  C  C241  1  0.25292364  0.54391797  0.63452394  1
  C  C242  1  0.25252419  0.87756573  0.63403362  1
  C  C243  1  0.76172675  0.20989522  0.63035015  1
  C  C244  1  0.75955789  0.54598653  0.62982553  1
  C  C245  1  0.74455061  0.87509477  0.63249683  1
  C  C246  1  0.24607663  0.12259901  0.13205649  1
  C  C247  1  0.24327499  0.45699254  0.13131656  1
  C  C248  1  0.25244058  0.78871479  0.13405883  1
  C  C249  1  0.75258319  0.12353167  0.13345954  1
  C  C250  1  0.74060676  0.45554582  0.13099842  1
  C  C251  1  0.75193524  0.78907940  0.12952306  1
  C  C252  1  0.25516813  0.21258649  0.87146529  1
  C  C253  1  0.25585727  0.54664699  0.86849493  1
  C  C254  1  0.24834845  0.87795160  0.86930546  1
  C  C255  1  0.75136928  0.21085598  0.86983858  1
  C  C256  1  0.75113360  0.54636012  0.86993512  1
  C  C257  1  0.75146534  0.87736533  0.86943180  1
  C  C258  1  0.24308463  0.12057166  0.37044415  1
  C  C259  1  0.24802381  0.45477896  0.36467013  1
  C  C260  1  0.24354283  0.78597467  0.37424140  1
  C  C261  1  0.74048460  0.11911200  0.37100973  1
  C  C262  1  0.75140788  0.45508818  0.36433072  1
  C  C263  1  0.75495721  0.78455114  0.37103928  1
  C  C264  1  0.69842034  0.76198782  0.45991438  1
  C  C265  1  0.77922274  0.75986944  0.46744669  1
  C  C266  1  0.68161612  0.42900660  0.04284335  1
  C  C267  1  0.27002102  0.42616929  0.03675315  1
  C  C268  1  0.20577746  0.57541228  0.95701612  1
  C  C269  1  0.81325560  0.57310005  0.95463470  1
  C  C270  1  0.98057934  0.92433126  0.46196310  1
  C  C271  1  0.23172344  0.57178951  0.53758002  1
  C  C272  1  0.55471883  0.40772301  0.54046737  1
  C  C273  1  0.23767877  0.75613915  0.47159380  1
  C  C274  1  0.76310608  0.42540078  0.03520235  1
  C  C275  1  0.28547155  0.90761067  0.96184982  1
  C  C276  1  0.21620057  0.09559070  0.03779108  1
  C  C277  1  0.04312182  0.07797712  0.95798715  1
  C  C278  1  0.68818109  0.09507320  0.46246321  1
  C  C279  1  0.57305727  0.40444514  0.95570819  1
  C  C280  1  0.77614011  0.09392659  0.03713287  1
  C  C281  1  0.97873607  0.40653106  0.53930936  1
  C  C282  1  0.04089387  0.74146585  0.95846338  1
  C  C283  1  0.23629070  0.24213297  0.96776620  1
  C  C284  1  0.97487541  0.07449897  0.53682203  1
  C  C285  1  0.45771354  0.92449686  0.45622602  1
  C  C286  1  0.31693921  0.23919721  0.95850051  1
  C  C287  1  0.17328243  0.09233915  0.45257814  1
  C  C288  1  0.31953233  0.23860180  0.54760210  1
  C  C289  1  0.81282831  0.23609443  0.95729584  1
  C  C290  1  0.69525931  0.09737979  0.04545827  1
  C  C291  1  0.95852371  0.74109184  0.54209753  1
  C  C292  1  0.79284196  0.90463181  0.54288166  1
  C  C293  1  0.95850713  0.25919223  0.45503799  1
  C  C294  1  0.31658850  0.76028795  0.45602660  1
  C  C295  1  0.76807066  0.42629552  0.46005291  1
  C  C296  1  0.70449561  0.75946121  0.03837217  1
  C  C297  1  0.57139915  0.07606364  0.54804818  1
  C  C298  1  0.31292523  0.56756798  0.54627660  1
  C  C299  1  0.23971943  0.24217960  0.53326309  1
  C  C300  1  0.76946633  0.09239867  0.46666412  1
  C  C301  1  0.73228913  0.23922589  0.96641744  1
  C  C302  1  0.97371317  0.92252927  0.03241984  1
  C  C303  1  0.06042407  0.40502268  0.54612336  1
  C  C304  1  0.49224802  0.40761359  0.96545256  1
  C  C305  1  0.78602096  0.75906380  0.03584534  1
  C  C306  1  0.54348237  0.07674074  0.96000787  1
  C  C307  1  0.45088490  0.26083953  0.04365589  1
  C  C308  1  0.02784077  0.59326620  0.03342446  1
  C  C309  1  0.44623571  0.58904242  0.46041609  1
  C  C310  1  0.26809287  0.90464290  0.53767488  1
  C  C311  1  0.47361633  0.41070263  0.53447254  1
  N  N312  1  0.53535060  0.59092349  0.03861245  1
  N  N313  1  0.98944602  0.40996643  0.96205948  1
  N  N314  1  0.45912749  0.59065298  0.03845425  1
  N  N315  1  0.00860972  0.59151989  0.46246055  1
  N  N316  1  0.46360175  0.07747616  0.96043266  1
  N  N317  1  0.45593516  0.93190296  0.03892398  1
  N  N318  1  0.27786572  0.42624914  0.45953934  1
  N  N319  1  0.53493609  0.93314720  0.03389396  1
  N  N320  1  0.46938464  0.74286420  0.96098954  1
  N  N321  1  0.71198493  0.57595444  0.53964395  1
  N  N322  1  0.06669326  0.40695691  0.95437280  1
  N  N323  1  0.20442570  0.75942425  0.04402221  1
  N  N324  1  0.71318813  0.90169674  0.53823319  1
  N  N325  1  0.79025748  0.57785704  0.53899901  1
  N  N326  1  0.05207001  0.92585631  0.04004003  1
  N  N327  1  0.20733178  0.90886106  0.96197148  1
  N  N328  1  0.20186039  0.42742332  0.45586429  1
  N  N329  1  0.93171184  0.59581655  0.45238169  1
  N  N330  1  0.76630843  0.24137669  0.53619107  1
  N  N331  1  0.54052948  0.74163066  0.53947525  1
  N  N332  1  0.53729167  0.92735539  0.46090140  1
  N  N333  1  0.28060615  0.75847913  0.03955638  1
  N  N334  1  0.95018951  0.26006355  0.04503451  1
  N  N335  1  0.18999933  0.90330313  0.54720948  1
  N  N336  1  0.46222498  0.74447314  0.53981896  1
  N  N337  1  0.05435162  0.07391889  0.54119633  1
  N  N338  1  0.69780538  0.90347346  0.95876300  1
  N  N339  1  0.52548278  0.25809069  0.46699455  1
  N  N340  1  0.02593886  0.25855852  0.03937356  1
  N  N341  1  0.96154037  0.74239526  0.96090174  1
  N  N342  1  0.44834199  0.26307727  0.46091914  1
  N  N343  1  0.77379968  0.90623378  0.96543571  1
  N  N344  1  0.52512490  0.58875379  0.46374890  1
  N  N345  1  0.52780846  0.25793828  0.03744553  1
  N  N346  1  0.73751403  0.57598572  0.96792749  1
  N  N347  1  0.25050222  0.08911618  0.46554681  1
  N  N348  1  0.69026231  0.23854158  0.54982944  1
  N  N349  1  0.03780230  0.74120953  0.53904998  1
  N  N350  1  0.05877932  0.92617043  0.45291953  1
  N  N351  1  0.54544496  0.74096310  0.95693425  1
  N  N352  1  0.68986968  0.42827632  0.45091927  1
  N  N353  1  0.29566827  0.09548491  0.04058507  1
  N  N354  1  0.28275355  0.57594953  0.96471275  1
  N  N355  1  0.03814026  0.25955299  0.45478646  1
  N  N356  1  0.94834721  0.59512410  0.03805329  1
  N  N357  1  0.49383825  0.07989635  0.53689384  1
  N  N358  1  0.19111478  0.42573834  0.04486385  1
  N  N359  1  0.96557575  0.07763981  0.96116932  1
  N  N360  1  0.07395631  0.05410455  0.59856283  1
  N  N361  1  0.07561111  0.38845530  0.60606055  1
  N  N362  1  0.06179365  0.72388727  0.59627307  1
  N  N363  1  0.57826776  0.05629427  0.60676816  1
  N  N364  1  0.56922377  0.38817599  0.60052288  1
  N  N365  1  0.56717760  0.72034644  0.59344938  1
  N  N366  1  0.43041801  0.27891676  0.10175751  1
  N  N367  1  0.43360616  0.61099276  0.09502694  1
  N  N368  1  0.43715884  0.94420843  0.09774332  1
  N  N369  1  0.93234131  0.27824557  0.10373044  1
  N  N370  1  0.92919961  0.61294546  0.09621054  1
  N  N371  1  0.94135949  0.94065739  0.08650832  1
  N  N372  1  0.43642761  0.05644394  0.90512388  1
  N  N373  1  0.45414451  0.39108993  0.91060841  1
  N  N374  1  0.43825215  0.72299502  0.90602229  1
  N  N375  1  0.93992312  0.05667106  0.90391894  1
  N  N376  1  0.95142342  0.38732658  0.91235948  1
  N  N377  1  0.93814663  0.72463983  0.90369347  1
  N  N378  1  0.06347698  0.28104349  0.39937141  1
  N  N379  1  0.05022570  0.61146733  0.41317122  1
  N  N380  1  0.06701179  0.94324214  0.39323340  1
  N  N381  1  0.56236340  0.27478686  0.41446675  1
  N  N382  1  0.55717706  0.61162732  0.40997110  1
  N  N383  1  0.56667458  0.94992095  0.40637851  1
  N  N384  1  0.32479600  0.22166664  0.60820101  1
  N  N385  1  0.32428880  0.55073000  0.60670213  1
  N  N386  1  0.30833536  0.88957829  0.59080911  1
  N  N387  1  0.81130220  0.22104919  0.58379270  1
  N  N388  1  0.82072658  0.55832829  0.59284304  1
  N  N389  1  0.81215999  0.88971703  0.60145214  1
  N  N390  1  0.18457664  0.11174430  0.09363419  1
  N  N391  1  0.17482383  0.44619270  0.10255632  1
  N  N392  1  0.18554579  0.77791857  0.10270245  1
  N  N393  1  0.68158233  0.11461049  0.10397386  1
  N  N394  1  0.66959631  0.44750105  0.10270064  1
  N  N395  1  0.68463433  0.77824917  0.09793614  1
  N  N396  1  0.19905674  0.22602804  0.91548884  1
  N  N397  1  0.18663162  0.55771584  0.89884232  1
  N  N398  1  0.18444691  0.89010685  0.90312723  1
  N  N399  1  0.69531954  0.22419447  0.91378532  1
  N  N400  1  0.69856351  0.55871795  0.91383447  1
  N  N401  1  0.68281996  0.88570513  0.89910023  1
  N  N402  1  0.29406524  0.10930606  0.41573860  1
  N  N403  1  0.30803173  0.44299468  0.40330312  1
  N  N404  1  0.31837842  0.77854298  0.39459901  1
  N  N405  1  0.80070148  0.10688652  0.41161512  1
  N  N406  1  0.80739474  0.44242500  0.40713303  1
  N  N407  1  0.81352680  0.77375488  0.41300707  1
  N  N408  1  0.43635146  0.28007668  0.40235526  1
  N  N409  1  0.42829555  0.60934182  0.40339230  1
  N  N410  1  0.43829782  0.94030244  0.39793814  1
  N  N411  1  0.93445718  0.27596558  0.39797639  1
  N  N412  1  0.92592065  0.61388030  0.39343872  1
  N  N413  1  0.94060182  0.94060398  0.40915791  1
  N  N414  1  0.06804606  0.05832722  0.90170247  1
  N  N415  1  0.07681667  0.38680687  0.89653266  1
  N  N416  1  0.06615873  0.72356155  0.90129032  1
  N  N417  1  0.56538931  0.05764560  0.90303659  1
  N  N418  1  0.58295503  0.38675813  0.89605108  1
  N  N419  1  0.56451227  0.71995225  0.89917286  1
  N  N420  1  0.05845637  0.27554810  0.09475087  1
  N  N421  1  0.05768943  0.60899966  0.08958357  1
  N  N422  1  0.06917827  0.94695141  0.09832092  1
  N  N423  1  0.55810789  0.27595333  0.09442424  1
  N  N424  1  0.56030456  0.61134131  0.09526204  1
  N  N425  1  0.56464963  0.94235256  0.09098823  1
  N  N426  1  0.45169754  0.05794027  0.58687401  1
  N  N427  1  0.44027451  0.39342543  0.58786341  1
  N  N428  1  0.44077485  0.72643417  0.59659138  1
  N  N429  1  0.94530622  0.05703138  0.59229095  1
  N  N430  1  0.94614672  0.39066546  0.59551014  1
  N  N431  1  0.93364306  0.72410565  0.59959974  1
  N  N432  1  0.16832884  0.11063716  0.39308169  1
  N  N433  1  0.18183173  0.44499128  0.39709328  1
  N  N434  1  0.19356102  0.77167948  0.42233542  1
  N  N435  1  0.67151831  0.11137488  0.40140548  1
  N  N436  1  0.68111662  0.44602186  0.39128563  1
  N  N437  1  0.68450911  0.77687057  0.40066724  1
  N  N438  1  0.32692799  0.22089159  0.89732760  1
  N  N439  1  0.31437584  0.55751958  0.90832436  1
  N  N440  1  0.31239633  0.88943971  0.90561317  1
  N  N441  1  0.82320158  0.21856970  0.89603696  1
  N  N442  1  0.82419786  0.55543350  0.89471351  1
  N  N443  1  0.80830726  0.88990539  0.91047206  1
  N  N444  1  0.31226662  0.11259333  0.09970188  1
  N  N445  1  0.30271178  0.44460609  0.09064696  1
  N  N446  1  0.31183685  0.77649292  0.09513281  1
  N  N447  1  0.81080276  0.11050584  0.09318899  1
  N  N448  1  0.79851166  0.44202719  0.09047292  1
  N  N449  1  0.81463665  0.77674646  0.09070557  1
  N  N450  1  0.19784089  0.22702759  0.58626792  1
  N  N451  1  0.19571542  0.55692925  0.59291468  1
  N  N452  1  0.18200550  0.88642429  0.60699215  1
  N  N453  1  0.68847913  0.22118732  0.60882245  1
  N  N454  1  0.69376575  0.55711026  0.59676347  1
  N  N455  1  0.68391872  0.87980503  0.59309538  1
  Cl  Cl456  1  0.26609126  0.06166041  0.60231590  1
  Cl  Cl457  1  0.25907312  0.38707685  0.62427914  1
  Cl  Cl458  1  0.25154497  0.72499191  0.61375492  1
  Cl  Cl459  1  0.76213751  0.04995950  0.61860192  1
  Cl  Cl460  1  0.76190350  0.38822184  0.61372838  1
  Cl  Cl461  1  0.74867349  0.72047387  0.61591603  1
  Cl  Cl462  1  0.24396981  0.28111691  0.11342830  1
  Cl  Cl463  1  0.24487557  0.60981363  0.12078382  1
  Cl  Cl464  1  0.25403249  0.94641754  0.11853868  1
  Cl  Cl465  1  0.74449259  0.27484829  0.12293889  1
  Cl  Cl466  1  0.74588162  0.61554086  0.12131896  1
  Cl  Cl467  1  0.74889225  0.94404520  0.12164628  1
  Cl  Cl468  1  0.25227027  0.05598411  0.87717219  1
  Cl  Cl469  1  0.26502887  0.38854106  0.89040754  1
  Cl  Cl470  1  0.25283439  0.71836798  0.87997142  1
  Cl  Cl471  1  0.75195625  0.05522383  0.88488559  1
  Cl  Cl472  1  0.77094316  0.38917245  0.88299495  1
  Cl  Cl473  1  0.75059875  0.71963090  0.88333136  1
  Cl  Cl474  1  0.24767122  0.27793350  0.38228202  1
  Cl  Cl475  1  0.23457323  0.60984454  0.38817386  1
  Cl  Cl476  1  0.25620467  0.94887209  0.38509524  1
  Cl  Cl477  1  0.74895483  0.27055869  0.39690863  1
  Cl  Cl478  1  0.74174348  0.61431311  0.38673803  1
  Cl  Cl479  1  0.75170150  0.93676604  0.39633190  1
  Cl  Cl480  1  0.00537077  0.22656545  0.59530650  1
  Cl  Cl481  1  0.00763491  0.56141933  0.60230817  1
  Cl  Cl482  1  -0.00569111  0.88936986  0.62294274  1
  Cl  Cl483  1  0.50861470  0.22613382  0.61623784  1
  Cl  Cl484  1  0.51284169  0.55647472  0.61414797  1
  Cl  Cl485  1  0.49935004  0.89626765  0.60375688  1
  Cl  Cl486  1  -0.00001714  0.10939197  0.12067749  1
  Cl  Cl487  1  -0.01352284  0.44151511  0.10511711  1
  Cl  Cl488  1  0.00107257  0.78407038  0.12187071  1
  Cl  Cl489  1  0.49625528  0.10920920  0.11926790  1
  Cl  Cl490  1  0.48420809  0.44319109  0.11846889  1
  Cl  Cl491  1  0.49577212  0.78956598  0.11948789  1
  Cl  Cl492  1  0.01830314  0.21924279  0.87105715  1
  Cl  Cl493  1  0.00531578  0.55381534  0.87632116  1
  Cl  Cl494  1  -0.00270513  0.89368375  0.89227320  1
  Cl  Cl495  1  0.51402677  0.21871831  0.88031510  1
  Cl  Cl496  1  0.50545656  0.55420650  0.88289951  1
  Cl  Cl497  1  0.49809160  0.89327603  0.88864900  1
  Cl  Cl498  1  -0.01605510  0.11098895  0.38760633  1
  Cl  Cl499  1  -0.00647229  0.44540724  0.38338697  1
  Cl  Cl500  1  0.00259741  0.77428165  0.39003720  1
  Cl  Cl501  1  0.47679208  0.10570715  0.39812083  1
  Cl  Cl502  1  0.49302768  0.44836665  0.38529750  1
  Cl  Cl503  1  0.50388803  0.77767569  0.38410477  1
  Cl  Cl504  1  0.37077076  0.14752460  0.74793328  1
  Cl  Cl505  1  0.35967399  0.48322328  0.74893637  1
  Cl  Cl506  1  0.36512490  0.81600893  0.75054236  1
  Cl  Cl507  1  0.86069089  0.15002711  0.75540651  1
  Cl  Cl508  1  0.86971348  0.48257413  0.74798034  1
  Cl  Cl509  1  0.86061204  0.81742211  0.74840600  1
  Cl  Cl510  1  0.13040073  0.18796643  0.26001102  1
  Cl  Cl511  1  0.12683920  0.52047777  0.24423554  1
  Cl  Cl512  1  0.14057511  0.85004823  0.25494413  1
  Cl  Cl513  1  0.63111676  0.18376339  0.25396791  1
  Cl  Cl514  1  0.63377285  0.51764208  0.25232603  1
  Cl  Cl515  1  0.62920063  0.85556968  0.25839681  1
  Cl  Cl516  1  0.14958370  0.14719373  0.74270712  1
  Cl  Cl517  1  0.13811230  0.47712101  0.75432429  1
  Cl  Cl518  1  0.14094063  0.81439033  0.74933182  1
  Cl  Cl519  1  0.63981326  0.14344175  0.74001762  1
  Cl  Cl520  1  0.64815572  0.48291372  0.74932278  1
  Cl  Cl521  1  0.63851957  0.81409368  0.75213658  1
  Cl  Cl522  1  0.35172812  0.18134818  0.24700548  1
  Cl  Cl523  1  0.35190327  0.51647369  0.25033791  1
  Cl  Cl524  1  0.36227113  0.85388925  0.26188000  1
  Cl  Cl525  1  0.85456195  0.18386741  0.25823922  1
  Cl  Cl526  1  0.85759930  0.52062070  0.24728080  1
  Cl  Cl527  1  0.85118313  0.85126743  0.25023373  1
  Cl  Cl528  1  0.11634308  0.31150688  0.74637917  1
  Cl  Cl529  1  0.11398576  0.64991747  0.74603512  1
  Cl  Cl530  1  0.11792442  0.98016268  0.74306160  1
  Cl  Cl531  1  0.61923022  0.31595149  0.74376360  1
  Cl  Cl532  1  0.61172717  0.65052149  0.74696150  1
  Cl  Cl533  1  0.61421282  0.97861895  0.74637422  1
  Cl  Cl534  1  0.38881103  0.01548330  0.24328231  1
  Cl  Cl535  1  0.38858674  0.34658701  0.25748397  1
  Cl  Cl536  1  0.38574694  0.68388733  0.25759473  1
  Cl  Cl537  1  0.89057729  0.01377543  0.24698201  1
  Cl  Cl538  1  0.88145454  0.35058441  0.24919977  1
  Cl  Cl539  1  0.88444701  0.68547519  0.25348727  1
  Cl  Cl540  1  0.39647450  0.31429308  0.75030566  1
  Cl  Cl541  1  0.39215876  0.64642047  0.73859580  1
  Cl  Cl542  1  0.39738737  0.98154485  0.75052112  1
  Cl  Cl543  1  0.89613491  0.31394678  0.74971932  1
  Cl  Cl544  1  0.89301751  0.64825131  0.75047237  1
  Cl  Cl545  1  0.89842026  0.98482292  0.75007160  1
  Cl  Cl546  1  0.11266703  0.02152166  0.25837211  1
  Cl  Cl547  1  0.10740552  0.35399021  0.25014015  1
  Cl  Cl548  1  0.10277402  0.68454681  0.24525617  1
  Cl  Cl549  1  0.60607602  0.02136351  0.25125429  1
  Cl  Cl550  1  0.60690146  0.35303828  0.25602053  1
  Cl  Cl551  1  0.60592039  0.68536975  0.25122296  1
