# generated using pymatgen
data_H8PbC4(N3Cl2)2
_symmetry_space_group_name_H-M   'P 1'
_cell_length_a   16.62296587
_cell_length_b   22.50210619
_cell_length_c   21.58862501
_cell_angle_alpha   89.99987926
_cell_angle_beta   90.00090626
_cell_angle_gamma   90.00023645
_symmetry_Int_Tables_number   1
_chemical_formula_structural   H8PbC4(N3Cl2)2
_chemical_formula_sum   'H192 Pb24 C96 N144 Cl96'
_cell_volume   8075.26281900
_cell_formula_units_Z   24
loop_
 _symmetry_equiv_pos_site_id
 _symmetry_equiv_pos_as_xyz
  1  'x, y, z'
loop_
 _atom_site_type_symbol
 _atom_site_label
 _atom_site_symmetry_multiplicity
 _atom_site_fract_x
 _atom_site_fract_y
 _atom_site_fract_z
 _atom_site_occupancy
  H  H0  1  -0.00089541  0.03164155  0.68003043  1
  H  H1  1  0.00028903  0.36414324  0.68011510  1
  H  H2  1  -0.00456399  0.69791324  0.67932133  1
  H  H3  1  0.50682835  0.03186090  0.68036128  1
  H  H4  1  0.50205250  0.36472305  0.68039747  1
  H  H5  1  0.50569679  0.69954711  0.67982348  1
  H  H6  1  -0.00015393  0.29879187  0.18049490  1
  H  H7  1  -0.00185521  0.63651445  0.18155019  1
  H  H8  1  -0.00693116  0.96790370  0.18319068  1
  H  H9  1  0.49984552  0.29982152  0.17999552  1
  H  H10  1  0.49725697  0.63398028  0.18020855  1
  H  H11  1  0.50543511  0.96989095  0.18200100  1
  H  H12  1  0.00226137  0.03207960  0.81868760  1
  H  H13  1  -0.01191664  0.36664874  0.81869567  1
  H  H14  1  0.00179961  0.69835162  0.82007335  1
  H  H15  1  0.50135327  0.03279261  0.82033295  1
  H  H16  1  0.50925200  0.36622163  0.82014005  1
  H  H17  1  0.50045043  0.69093609  0.82248522  1
  H  H18  1  -0.00366535  0.30098874  0.31962487  1
  H  H19  1  0.00245484  0.63417215  0.31938231  1
  H  H20  1  0.00606175  0.96719674  0.32206070  1
  H  H21  1  0.49696081  0.30052341  0.32252278  1
  H  H22  1  0.50308731  0.63661552  0.31894258  1
  H  H23  1  0.49577369  0.96680374  0.31940436  1
  H  H24  1  0.24044104  0.19868014  0.68100475  1
  H  H25  1  0.24455508  0.53205466  0.68299246  1
  H  H26  1  0.25618750  0.86473239  0.68212208  1
  H  H27  1  0.75753086  0.20052571  0.67964643  1
  H  H28  1  0.74893830  0.53329999  0.68116221  1
  H  H29  1  0.73977369  0.86527350  0.67649826  1
  H  H30  1  0.24403733  0.13536862  0.18072347  1
  H  H31  1  0.25479578  0.46865294  0.18056910  1
  H  H32  1  0.25862858  0.80072693  0.17949435  1
  H  H33  1  0.74219290  0.13332148  0.17786232  1
  H  H34  1  0.75016888  0.46797585  0.18055788  1
  H  H35  1  0.74098936  0.80038749  0.18231592  1
  H  H36  1  0.24744750  0.19787503  0.82145098  1
  H  H37  1  0.25378845  0.53134936  0.82243627  1
  H  H38  1  0.25987103  0.86557704  0.81724931  1
  H  H39  1  0.74885409  0.19796960  0.82175864  1
  H  H40  1  0.74929645  0.53303742  0.81863970  1
  H  H41  1  0.74631575  0.86400670  0.81780999  1
  H  H42  1  0.24950942  0.13550476  0.31948757  1
  H  H43  1  0.25313235  0.46787719  0.31931111  1
  H  H44  1  0.24017059  0.80194490  0.31921236  1
  H  H45  1  0.74605956  0.13312712  0.32052741  1
  H  H46  1  0.75366219  0.46808792  0.31959283  1
  H  H47  1  0.75513138  0.80347012  0.32077264  1
  H  H48  1  0.12014111  0.05461190  0.60511109  1
  H  H49  1  0.12600134  0.38724703  0.60971230  1
  H  H50  1  0.12936473  0.72006819  0.61930216  1
  H  H51  1  0.62128971  0.05536389  0.59963827  1
  H  H52  1  0.62734751  0.38788407  0.61030594  1
  H  H53  1  0.62711025  0.72198112  0.60637379  1
  H  H54  1  0.36804817  0.28080641  0.11612445  1
  H  H55  1  0.37893265  0.61122707  0.10285073  1
  H  H56  1  0.37550713  0.94483552  0.11649657  1
  H  H57  1  0.86763752  0.27997192  0.11697101  1
  H  H58  1  0.87800673  0.61283316  0.10755638  1
  H  H59  1  0.87910295  0.94686040  0.10456447  1
  H  H60  1  0.37359887  0.05552465  0.88912773  1
  H  H61  1  0.37334539  0.38346183  0.88090582  1
  H  H62  1  0.37706909  0.71946216  0.89202016  1
  H  H63  1  0.87327618  0.05379029  0.88540283  1
  H  H64  1  0.88134712  0.38876059  0.90201905  1
  H  H65  1  0.87584029  0.72009676  0.89022486  1
  H  H66  1  0.12844492  0.28110574  0.38399453  1
  H  H67  1  0.11890677  0.61052838  0.39805317  1
  H  H68  1  0.12264102  0.94495541  0.39753133  1
  H  H69  1  0.62927072  0.28260060  0.38664055  1
  H  H70  1  0.62043959  0.61124274  0.39574427  1
  H  H71  1  0.62898189  0.94856623  0.38142269  1
  H  H72  1  0.37053729  0.22113792  0.61399512  1
  H  H73  1  0.37922243  0.55235786  0.62021355  1
  H  H74  1  0.36976428  0.88729681  0.60363594  1
  H  H75  1  0.86265867  0.22395220  0.59578657  1
  H  H76  1  0.88121483  0.55211345  0.61789275  1
  H  H77  1  0.87585986  0.88448453  0.61783419  1
  H  H78  1  0.12794977  0.11065650  0.10199645  1
  H  H79  1  0.12437281  0.44637794  0.11649317  1
  H  H80  1  0.12253276  0.78130505  0.12110304  1
  H  H81  1  0.62927237  0.11066636  0.09964131  1
  H  H82  1  0.62746712  0.44728531  0.10747577  1
  H  H83  1  0.62794671  0.77505855  0.10251824  1
  H  H84  1  0.13161181  0.22358009  0.89874577  1
  H  H85  1  0.12331718  0.55343537  0.88696656  1
  H  H86  1  0.12307115  0.88340312  0.87778674  1
  H  H87  1  0.63212036  0.22148000  0.89915911  1
  H  H88  1  0.62498424  0.55371143  0.88719935  1
  H  H89  1  0.62437267  0.88844936  0.88952846  1
  H  H90  1  0.37686721  0.11332292  0.38837843  1
  H  H91  1  0.37337358  0.44343323  0.39239542  1
  H  H92  1  0.37280912  0.78134083  0.38316788  1
  H  H93  1  0.87688112  0.11222133  0.38703062  1
  H  H94  1  0.87329079  0.44598126  0.39405082  1
  H  H95  1  0.86806473  0.77686084  0.40178829  1
  H  H96  1  0.38152607  0.27465487  0.39970927  1
  H  H97  1  0.37161111  0.61485665  0.38152632  1
  H  H98  1  0.38048556  0.94529898  0.39550329  1
  H  H99  1  0.88048255  0.27689137  0.39877652  1
  H  H100  1  0.87094654  0.61284641  0.38456344  1
  H  H101  1  0.87453628  0.94829968  0.38427581  1
  H  H102  1  0.12214678  0.05576161  0.89435288  1
  H  H103  1  0.12760454  0.38302134  0.87308734  1
  H  H104  1  0.12459331  0.72146304  0.89211557  1
  H  H105  1  0.62231534  0.05523063  0.89500822  1
  H  H106  1  0.62022042  0.39115305  0.90349095  1
  H  H107  1  0.62567103  0.72069780  0.88898930  1
  H  H108  1  0.11652764  0.27834125  0.10459975  1
  H  H109  1  0.12699794  0.61448888  0.11339559  1
  H  H110  1  0.12717965  0.94801513  0.12399305  1
  H  H111  1  0.61700855  0.27702013  0.10539201  1
  H  H112  1  0.62735390  0.61223369  0.11553694  1
  H  H113  1  0.62528350  0.94766509  0.10769854  1
  H  H114  1  0.37375467  0.05310894  0.61521746  1
  H  H115  1  0.37738556  0.38743492  0.61044302  1
  H  H116  1  0.37813375  0.71970774  0.61462072  1
  H  H117  1  0.87141120  0.05171589  0.61219666  1
  H  H118  1  0.87618640  0.38824474  0.61074022  1
  H  H119  1  0.88131969  0.72339379  0.59996178  1
  H  H120  1  0.12699802  0.11261261  0.39118547  1
  H  H121  1  0.12481514  0.44622434  0.38728080  1
  H  H122  1  0.12452673  0.77773484  0.39738031  1
  H  H123  1  0.62853212  0.11067739  0.39776550  1
  H  H124  1  0.62473181  0.44608311  0.38710315  1
  H  H125  1  0.62069402  0.78283976  0.38245608  1
  H  H126  1  0.37967185  0.21948846  0.88324504  1
  H  H127  1  0.37205972  0.55581746  0.89714493  1
  H  H128  1  0.37032430  0.89092086  0.89831905  1
  H  H129  1  0.88083083  0.21999734  0.88469615  1
  H  H130  1  0.87431341  0.55394481  0.88831181  1
  H  H131  1  0.87427736  0.88663129  0.88646426  1
  H  H132  1  0.37625479  0.11522423  0.11406649  1
  H  H133  1  0.37241440  0.44479704  0.10260560  1
  H  H134  1  0.36978776  0.77353524  0.09827197  1
  H  H135  1  0.87657180  0.11665965  0.11837754  1
  H  H136  1  0.87602074  0.44429625  0.11207029  1
  H  H137  1  0.87598175  0.78086501  0.11987041  1
  H  H138  1  0.12248149  0.22216418  0.60227042  1
  H  H139  1  0.13131122  0.55619811  0.60353048  1
  H  H140  1  0.12162449  0.88356365  0.62310623  1
  H  H141  1  0.61709817  0.21546584  0.62700494  1
  H  H142  1  0.63243321  0.55516253  0.60576320  1
  H  H143  1  0.62894767  0.89104549  0.59632284  1
  H  H144  1  0.85054778  0.91655880  0.51022233  1
  H  H145  1  0.44565351  0.25554384  0.50330412  1
  H  H146  1  0.42132177  0.41567714  0.50058173  1
  H  H147  1  0.10030411  0.92013289  0.01046148  1
  H  H148  1  0.43933921  0.91867727  0.50630437  1
  H  H149  1  0.95141697  0.41284362  1.00878514  1
  H  H150  1  0.59845404  0.24808960  0.49345283  1
  H  H151  1  0.91122834  0.08424552  0.99534046  1
  H  H152  1  0.67680243  0.91284193  1.00149032  1
  H  H153  1  0.56866166  0.92866423  -0.00462006  1
  H  H154  1  0.30028558  0.91620478  1.00478699  1
  H  H155  1  0.14536660  0.91260611  0.51052605  1
  H  H156  1  0.15852060  0.41639878  0.00467327  1
  H  H157  1  0.16217000  0.58370431  0.99332068  1
  H  H158  1  0.68999833  0.58099492  0.49450117  1
  H  H159  1  0.79104370  0.24992863  0.49016355  1
  H  H160  1  0.66666303  0.58228724  0.99926652  1
  H  H161  1  0.41623324  0.75044655  0.50175018  1
  H  H162  1  0.93137941  0.58557671  -0.00040383  1
  H  H163  1  0.69541760  0.24426519  1.00445751  1
  H  H164  1  0.54680231  0.41850561  1.00351114  1
  H  H165  1  0.41828919  0.92823834  0.00724033  1
  H  H166  1  0.05368613  0.58496010  0.50111993  1
  H  H167  1  0.17522252  0.08370614  0.50056699  1
  H  H168  1  0.79810590  0.74938718  0.50253180  1
  H  H169  1  0.82732592  0.90568010  0.99462447  1
  H  H170  1  0.40507021  0.58526567  0.49353653  1
  H  H171  1  0.56045095  0.24886618  -0.00536939  1
  H  H172  1  0.19641659  0.58339736  0.49712061  1
  H  H173  1  0.30018455  0.74830720  -0.00347350  1
  H  H174  1  0.94780396  0.75049289  0.49736177  1
  H  H175  1  0.83676971  0.08412814  0.49272314  1
  H  H176  1  0.92085269  0.41855326  0.50095034  1
  H  H177  1  0.94092637  0.92191310  -0.00500892  1
  H  H178  1  0.69435496  0.74891077  -0.00380299  1
  H  H179  1  0.05952574  0.25229093  -0.00623837  1
  H  H180  1  0.08003506  0.41329073  0.50474022  1
  H  H181  1  0.33342257  0.08495681  0.49357536  1
  H  H182  1  0.94670158  0.24851241  0.50062643  1
  H  H183  1  0.58131420  0.41525610  0.50522739  1
  H  H184  1  0.82562695  0.43593830  0.00406112  1
  H  H185  1  0.68370714  0.40733252  0.00853300  1
  H  H186  1  0.30853124  0.91173781  0.49461889  1
  H  H187  1  0.19586665  0.24921482  1.00300792  1
  H  H188  1  0.55990627  0.59115034  0.50071385  1
  H  H189  1  0.43856144  0.73243962  0.99801035  1
  H  H190  1  0.56846855  0.73512847  0.99617741  1
  H  H191  1  0.42041055  0.08604065  0.99364544  1
  Pb  Pb192  1  0.24923608  0.04528517  0.74675366  1
  Pb  Pb193  1  0.25397179  0.37947552  0.74634911  1
  Pb  Pb194  1  0.25433641  0.71447768  0.75678537  1
  Pb  Pb195  1  0.75389905  0.04875454  0.74744705  1
  Pb  Pb196  1  0.75183635  0.38100867  0.75748459  1
  Pb  Pb197  1  0.75128927  0.71217999  0.74656250  1
  Pb  Pb198  1  0.24985912  0.28897515  0.24687874  1
  Pb  Pb199  1  0.24463553  0.61836615  0.24822570  1
  Pb  Pb200  1  0.24874134  0.95208993  0.25288221  1
  Pb  Pb201  1  0.74579382  0.28361682  0.24867850  1
  Pb  Pb202  1  0.74919738  0.62066074  0.24975032  1
  Pb  Pb203  1  0.75009552  0.95455984  0.24384392  1
  Pb  Pb204  1  0.00477610  0.21503284  0.74451153  1
  Pb  Pb205  1  0.00593406  0.54785975  0.74727765  1
  Pb  Pb206  1  -0.00131338  0.87802655  0.75257307  1
  Pb  Pb207  1  0.50011006  0.21244792  0.74900350  1
  Pb  Pb208  1  0.50141540  0.54632497  0.74562601  1
  Pb  Pb209  1  0.50360566  0.88268842  0.75077974  1
  Pb  Pb210  1  0.00192669  0.12089204  0.24916019  1
  Pb  Pb211  1  -0.00475047  0.45134942  0.25311113  1
  Pb  Pb212  1  -0.00208094  0.78784411  0.25992782  1
  Pb  Pb213  1  0.49591288  0.11880165  0.24772292  1
  Pb  Pb214  1  0.49960397  0.45386783  0.24887530  1
  Pb  Pb215  1  0.49737077  0.78479764  0.24237502  1
  C  C216  1  -0.00282615  0.04572477  0.63219183  1
  C  C217  1  0.00123580  0.37955684  0.63241014  1
  C  C218  1  0.00174205  0.71278364  0.63191787  1
  C  C219  1  0.50054965  0.04637643  0.63262713  1
  C  C220  1  0.50262746  0.38014314  0.63262594  1
  C  C221  1  0.50302860  0.71376388  0.63194604  1
  C  C222  1  -0.00524212  0.28584555  0.13231437  1
  C  C223  1  0.00132713  0.62110759  0.13399345  1
  C  C224  1  0.00014645  0.95404946  0.13529609  1
  C  C225  1  0.49512596  0.28605588  0.13207877  1
  C  C226  1  0.50095047  0.61931353  0.13263659  1
  C  C227  1  0.50148692  0.95418548  0.13445749  1
  C  C228  1  -0.00071789  0.04712120  0.86628615  1
  C  C229  1  -0.00118349  0.37998471  0.86626906  1
  C  C230  1  0.00052758  0.71316208  0.86765101  1
  C  C231  1  0.49874158  0.04805692  0.86796471  1
  C  C232  1  0.50143340  0.38026833  0.86783329  1
  C  C233  1  0.50109011  0.70912565  0.86909917  1
  C  C234  1  0.00145614  0.28642407  0.36732170  1
  C  C235  1  -0.00236392  0.61935912  0.36703966  1
  C  C236  1  0.00092144  0.95328405  0.36986195  1
  C  C237  1  0.50276788  0.28588216  0.37034964  1
  C  C238  1  0.49860818  0.62128556  0.36661201  1
  C  C239  1  0.50155719  0.95354009  0.36735845  1
  C  C240  1  0.24431440  0.21328919  0.63319031  1
  C  C241  1  0.25207480  0.54649842  0.63535905  1
  C  C242  1  0.24890944  0.87917086  0.63442783  1
  C  C243  1  0.74574188  0.21310805  0.63200674  1
  C  C244  1  0.75403433  0.54681854  0.63321577  1
  C  C245  1  0.74859668  0.88053021  0.62930239  1
  C  C246  1  0.24958672  0.12071080  0.13300018  1
  C  C247  1  0.25062750  0.45352765  0.13302975  1
  C  C248  1  0.25066690  0.78628706  0.13208843  1
  C  C249  1  0.74957519  0.11983941  0.13002755  1
  C  C250  1  0.75124711  0.45315718  0.13260638  1
  C  C251  1  0.74846589  0.78599941  0.13470078  1
  C  C252  1  0.25275070  0.21266763  0.86899002  1
  C  C253  1  0.24932125  0.54683342  0.86983378  1
  C  C254  1  0.25074302  0.87985696  0.86475178  1
  C  C255  1  0.75373312  0.21231087  0.86954376  1
  C  C256  1  0.74904363  0.54693452  0.86665326  1
  C  C257  1  0.74888782  0.87917635  0.86560809  1
  C  C258  1  0.25147922  0.12010944  0.36720592  1
  C  C259  1  0.25014588  0.45290193  0.36672444  1
  C  C260  1  0.24609582  0.78722886  0.36666784  1
  C  C261  1  0.75090911  0.11865231  0.36831887  1
  C  C262  1  0.75020907  0.45367011  0.36719639  1
  C  C263  1  0.74838428  0.78828450  0.36818761  1
  C  C264  1  0.97318230  0.93010140  0.03807746  1
  C  C265  1  0.54682649  0.59299745  0.04146033  1
  C  C266  1  0.72450466  0.57107353  0.53612376  1
  C  C267  1  0.06230093  0.40239137  0.95351568  1
  C  C268  1  0.94295301  0.26319911  0.04088455  1
  C  C269  1  0.70901492  0.57235976  0.96128026  1
  C  C270  1  0.28369379  0.42480575  0.46053945  1
  C  C271  1  0.55437029  0.93018518  0.45768933  1
  C  C272  1  0.53660913  0.93040881  0.03928572  1
  C  C273  1  0.80417344  0.09601319  0.04070100  1
  C  C274  1  0.96061198  0.40738689  0.53960832  1
  C  C275  1  0.72341610  0.09374793  0.03424207  1
  C  C276  1  0.45859180  0.73982833  0.53870077  1
  C  C277  1  0.20468889  0.42702724  0.04213829  1
  C  C278  1  0.80619008  0.23899407  0.96029870  1
  C  C279  1  0.94971273  0.92896642  0.46064187  1
  C  C280  1  0.22824214  0.57262074  0.53980396  1
  C  C281  1  0.28343722  0.57629160  0.96454989  1
  C  C282  1  0.80563198  0.56962326  0.54229633  1
  C  C283  1  0.76105285  0.23827265  0.53336292  1
  C  C284  1  0.68093828  0.23424216  0.54542383  1
  C  C285  1  0.47327993  0.92872131  0.46449554  1
  C  C286  1  0.96900458  0.59526846  0.03984037  1
  C  C287  1  0.21318791  0.09391483  0.46105136  1
  C  C288  1  0.21857883  0.75866524  0.46134456  1
  C  C289  1  0.71103741  0.90619511  0.95918407  1
  C  C290  1  0.95623130  0.07363174  0.95775768  1
  C  C291  1  0.30617065  0.24105134  0.95869670  1
  C  C292  1  0.78321340  0.42755728  0.46178648  1
  C  C293  1  0.52531562  0.25979583  0.03570704  1
  C  C294  1  0.03196015  0.92764223  0.46511929  1
  C  C295  1  0.72542346  0.76008463  0.03894306  1
  C  C296  1  0.27108738  0.90610520  0.96083330  1
  C  C297  1  0.03614798  0.74139843  0.96045218  1
  C  C298  1  0.19359638  0.90300644  0.54441928  1
  C  C299  1  0.54013822  0.73995047  0.53772189  1
  C  C300  1  0.05691571  0.74211773  0.54326299  1
  C  C301  1  0.98185852  0.40425898  0.96513122  1
  C  C302  1  0.79083417  0.57196839  0.96022723  1
  C  C303  1  0.44796371  0.59470468  0.45671399  1
  C  C304  1  0.44380613  0.26136196  0.04114218  1
  C  C305  1  0.95426048  0.07109529  0.53975819  1
  C  C306  1  0.27517061  0.90344090  0.53701118  1
  C  C307  1  0.46172996  0.40607047  0.53938241  1
  C  C308  1  0.02435277  0.26213382  0.03506903  1
  C  C309  1  0.05473507  0.93008937  0.04522390  1
  C  C310  1  0.19234448  0.75956850  0.04361839  1
  C  C311  1  0.72388229  0.91104337  0.53306198  1
  N  N312  1  0.21386833  0.24028028  0.53786958  1
  N  N313  1  0.02357709  0.59394845  0.46084438  1
  N  N314  1  0.79055007  0.90685661  0.95674730  1
  N  N315  1  0.55290183  0.26442819  0.46031108  1
  N  N316  1  0.04844796  0.59489490  0.04149098  1
  N  N317  1  0.76990725  0.75965059  0.46166742  1
  N  N318  1  0.22733684  0.24151310  0.96294508  1
  N  N319  1  0.95875370  0.74080427  0.96136066  1
  N  N320  1  0.97830971  0.74221114  0.53784629  1
  N  N321  1  0.47532176  0.25116851  0.46172141  1
  N  N322  1  0.80210869  0.90808821  0.54168393  1
  N  N323  1  0.71407084  0.43480836  0.03832994  1
  N  N324  1  0.29019175  0.23987162  0.54148165  1
  N  N325  1  0.20573188  0.42599097  0.46001798  1
  N  N326  1  0.46098985  0.74835604  0.95660336  1
  N  N327  1  0.27079967  0.75817124  0.03701750  1
  N  N328  1  0.97641566  0.25986028  0.46079677  1
  N  N329  1  0.46936269  0.59295896  0.03598071  1
  N  N330  1  0.29288694  0.09409071  0.45889582  1
  N  N331  1  0.22084827  0.09343561  0.03745119  1
  N  N332  1  0.52746354  0.59297859  0.46036270  1
  N  N333  1  0.45725285  0.92690127  0.04387823  1
  N  N334  1  0.79495321  0.09487372  0.45860851  1
  N  N335  1  0.71695996  0.09350605  0.46366969  1
  N  N336  1  0.30711852  0.57156064  0.54535671  1
  N  N337  1  0.69245114  0.76210477  0.45656620  1
  N  N338  1  0.94584923  0.59512157  0.45754339  1
  N  N339  1  0.54327499  0.74993249  0.95529237  1
  N  N340  1  0.54154400  0.40590393  0.54025480  1
  N  N341  1  0.79323353  0.42401678  0.04241003  1
  N  N342  1  0.04038632  0.40728612  0.54064347  1
  N  N343  1  0.05425535  0.26128119  0.45732826  1
  N  N344  1  0.19254332  0.90403988  0.95368662  1
  N  N345  1  0.72719586  0.23903266  0.96410946  1
  N  N346  1  0.03540431  0.07441274  0.96149280  1
  N  N347  1  0.52045878  0.40467482  0.96286254  1
  N  N348  1  0.45883939  0.07261140  0.95909276  1
  N  N349  1  0.70518228  0.42762358  0.46052898  1
  N  N350  1  0.29591337  0.76005760  0.45820640  1
  N  N351  1  0.80419124  0.76204685  0.04450688  1
  N  N352  1  0.53701828  0.07291536  0.96244416  1
  N  N353  1  0.45123970  0.07123276  0.54130169  1
  N  N354  1  0.29730262  0.09525906  0.04150565  1
  N  N355  1  0.20450571  0.57487592  0.95994538  1
  N  N356  1  0.03201364  0.07227126  0.53626502  1
  N  N357  1  0.52744565  0.07239453  0.53627153  1
  N  N358  1  0.44305425  0.40275971  0.95651592  1
  N  N359  1  0.28373962  0.42636150  0.03715699  1
  N  N360  1  0.05878729  0.05589214  0.59517947  1
  N  N361  1  0.06520917  0.38888962  0.59744510  1
  N  N362  1  0.07158489  0.72440070  0.60163836  1
  N  N363  1  0.55935543  0.05705767  0.59258451  1
  N  N364  1  0.56659290  0.38985081  0.59773601  1
  N  N365  1  0.56685537  0.72441112  0.59396001  1
  N  N366  1  0.42636101  0.27718154  0.09944498  1
  N  N367  1  0.44062492  0.60927410  0.09425103  1
  N  N368  1  0.43565796  0.94478459  0.10182920  1
  N  N369  1  0.92581733  0.27728451  0.09984064  1
  N  N370  1  0.93882599  0.61062955  0.09631375  1
  N  N371  1  0.94029592  0.94497838  0.09468078  1
  N  N372  1  0.43400960  0.05877648  0.90171600  1
  N  N373  1  0.43172351  0.38744581  0.89731663  1
  N  N374  1  0.43773380  0.72020688  0.90424588  1
  N  N375  1  0.93271649  0.05716024  0.89961771  1
  N  N376  1  0.94302690  0.39031353  0.90928836  1
  N  N377  1  0.93630187  0.72280441  0.90223291  1
  N  N378  1  0.06941344  0.27745549  0.39868359  1
  N  N379  1  0.05702634  0.60960537  0.40650610  1
  N  N380  1  0.06200718  0.94246555  0.40933284  1
  N  N381  1  0.57049988  0.27664543  0.40122164  1
  N  N382  1  0.55863646  0.61198124  0.40558661  1
  N  N383  1  0.57087866  0.94495741  0.39907282  1
  N  N384  1  0.31032261  0.22288685  0.60045461  1
  N  N385  1  0.32023921  0.55520432  0.60514594  1
  N  N386  1  0.30847819  0.88877682  0.59368661  1
  N  N387  1  0.80057332  0.22458002  0.58868043  1
  N  N388  1  0.82305888  0.55531070  0.60091095  1
  N  N389  1  0.81767266  0.88982321  0.60099947  1
  N  N390  1  0.19000304  0.10908979  0.09395712  1
  N  N391  1  0.18310264  0.44339758  0.10083710  1
  N  N392  1  0.17972618  0.77674406  0.10248722  1
  N  N393  1  0.69031110  0.10836293  0.08890200  1
  N  N394  1  0.68826662  0.44076638  0.09736313  1
  N  N395  1  0.68934956  0.77493638  0.09385795  1
  N  N396  1  0.19322073  0.22244596  0.90827008  1
  N  N397  1  0.18280589  0.55664517  0.90154088  1
  N  N398  1  0.18156848  0.88766459  0.89379922  1
  N  N399  1  0.69380198  0.22077022  0.90881215  1
  N  N400  1  0.68439810  0.55655443  0.90172970  1
  N  N401  1  0.68465305  0.89051032  0.90230179  1
  N  N402  1  0.31636510  0.11021489  0.40107343  1
  N  N403  1  0.31300107  0.44120563  0.40434471  1
  N  N404  1  0.31321053  0.77800212  0.39784265  1
  N  N405  1  0.81697952  0.10946025  0.40088843  1
  N  N406  1  0.81275858  0.44311334  0.40544281  1
  N  N407  1  0.80599636  0.77691403  0.40872919  1
  N  N408  1  0.44315187  0.27512960  0.40955679  1
  N  N409  1  0.42987467  0.61074992  0.39804325  1
  N  N410  1  0.44121250  0.94336600  0.40683998  1
  N  N411  1  0.94237386  0.27547183  0.40668987  1
  N  N412  1  0.93013870  0.60988988  0.39877854  1
  N  N413  1  0.93265965  0.94433191  0.40184059  1
  N  N414  1  0.06067656  0.05786431  0.90384521  1
  N  N415  1  0.07146809  0.38787303  0.89362332  1
  N  N416  1  0.06464327  0.72457849  0.90409706  1
  N  N417  1  0.56119741  0.05728801  0.90546504  1
  N  N418  1  0.55800004  0.39171309  0.90916092  1
  N  N419  1  0.56545437  0.72139893  0.90270647  1
  N  N420  1  0.05558410  0.27655301  0.09313497  1
  N  N421  1  0.06672422  0.61111686  0.10072869  1
  N  N422  1  0.06985683  0.94489142  0.10555299  1
  N  N423  1  0.55622081  0.27532618  0.09352711  1
  N  N424  1  0.56855711  0.60889649  0.09986779  1
  N  N425  1  0.56458959  0.94491114  0.09600634  1
  N  N426  1  0.43341757  0.05538903  0.60115437  1
  N  N427  1  0.43741327  0.39033325  0.59694246  1
  N  N428  1  0.43682333  0.72333235  0.59859036  1
  N  N429  1  0.93080532  0.05526481  0.59789057  1
  N  N430  1  0.93619851  0.39094314  0.59691672  1
  N  N431  1  0.94318298  0.72226569  0.59163804  1
  N  N432  1  0.18727068  0.10966989  0.40398145  1
  N  N433  1  0.18496446  0.44373091  0.40033172  1
  N  N434  1  0.18549477  0.77522568  0.40646970  1
  N  N435  1  0.68991595  0.10866870  0.40713903  1
  N  N436  1  0.68483898  0.44418102  0.40043989  1
  N  N437  1  0.67944625  0.77897709  0.39809846  1
  N  N438  1  0.32203630  0.22368405  0.90036997  1
  N  N439  1  0.31150424  0.55892104  0.90888213  1
  N  N440  1  0.30848286  0.89132338  0.90656187  1
  N  N441  1  0.82266135  0.22330364  0.90145124  1
  N  N442  1  0.81453370  0.55674892  0.90297161  1
  N  N443  1  0.81374674  0.88726596  0.89983930  1
  N  N444  1  0.31617638  0.11200587  0.10078311  1
  N  N445  1  0.31079343  0.44293105  0.09433340  1
  N  N446  1  0.30800697  0.77583665  0.09099146  1
  N  N447  1  0.81954703  0.11171406  0.09955645  1
  N  N448  1  0.81607688  0.44661700  0.09767537  1
  N  N449  1  0.81667607  0.77778158  0.10423238  1
  N  N450  1  0.18399537  0.22377425  0.59450806  1
  N  N451  1  0.19308206  0.55747205  0.59464268  1
  N  N452  1  0.17913753  0.88824468  0.60510707  1
  N  N453  1  0.67242320  0.21938714  0.60535819  1
  N  N454  1  0.69325306  0.55678149  0.59416607  1
  N  N455  1  0.69022127  0.89356012  0.58726846  1
  Cl  Cl456  1  0.24804827  0.05630139  0.60990707  1
  Cl  Cl457  1  0.25025843  0.38801321  0.61482532  1
  Cl  Cl458  1  0.25225657  0.71778054  0.62724075  1
  Cl  Cl459  1  0.74744110  0.05224631  0.61196918  1
  Cl  Cl460  1  0.75061385  0.38638247  0.62556219  1
  Cl  Cl461  1  0.75887101  0.72448430  0.60704366  1
  Cl  Cl462  1  0.23995201  0.27602956  0.10973745  1
  Cl  Cl463  1  0.25196690  0.61451972  0.11210833  1
  Cl  Cl464  1  0.25588953  0.94224374  0.11697887  1
  Cl  Cl465  1  0.74011531  0.27807270  0.11066733  1
  Cl  Cl466  1  0.75192168  0.61153140  0.11775056  1
  Cl  Cl467  1  0.75172566  0.94421933  0.10746029  1
  Cl  Cl468  1  0.25048039  0.05246097  0.87823254  1
  Cl  Cl469  1  0.25113882  0.38174287  0.87805235  1
  Cl  Cl470  1  0.25545819  0.72146953  0.89548102  1
  Cl  Cl471  1  0.74579096  0.05167627  0.87970107  1
  Cl  Cl472  1  0.74540398  0.39050644  0.90160789  1
  Cl  Cl473  1  0.74753184  0.72121177  0.88107685  1
  Cl  Cl474  1  0.25862468  0.28196111  0.37834001  1
  Cl  Cl475  1  0.24054357  0.61248173  0.38407455  1
  Cl  Cl476  1  0.25166758  0.94645007  0.38503253  1
  Cl  Cl477  1  0.75766596  0.28029170  0.38414703  1
  Cl  Cl478  1  0.74319464  0.61242319  0.38540591  1
  Cl  Cl479  1  0.75223123  0.94757707  0.37658818  1
  Cl  Cl480  1  -0.00993595  0.22358929  0.60653966  1
  Cl  Cl481  1  0.00999214  0.55640788  0.60860777  1
  Cl  Cl482  1  -0.00279317  0.88030761  0.62191516  1
  Cl  Cl483  1  0.49101528  0.22714704  0.61108539  1
  Cl  Cl484  1  0.50767142  0.55738162  0.60723012  1
  Cl  Cl485  1  0.49884059  0.88654750  0.61771831  1
  Cl  Cl486  1  0.00521092  0.11457459  0.11720252  1
  Cl  Cl487  1  -0.00357820  0.44444363  0.11949953  1
  Cl  Cl488  1  -0.00099630  0.78184452  0.13060960  1
  Cl  Cl489  1  0.50015791  0.11278511  0.11281576  1
  Cl  Cl490  1  0.50549257  0.44450760  0.10813774  1
  Cl  Cl491  1  0.49717948  0.76918173  0.09867300  1
  Cl  Cl492  1  0.00885283  0.22248576  0.87926759  1
  Cl  Cl493  1  -0.00102934  0.55281125  0.87971681  1
  Cl  Cl494  1  -0.00456001  0.88695255  0.88663829  1
  Cl  Cl495  1  0.50986568  0.22045744  0.88256904  1
  Cl  Cl496  1  0.49733398  0.55257000  0.87629264  1
  Cl  Cl497  1  0.49655117  0.89263297  0.89189533  1
  Cl  Cl498  1  -0.00040778  0.11434624  0.38156732  1
  Cl  Cl499  1  -0.00065804  0.44478173  0.38989979  1
  Cl  Cl500  1  -0.00887474  0.77497082  0.39835456  1
  Cl  Cl501  1  0.50178982  0.11576301  0.38040114  1
  Cl  Cl502  1  0.49961539  0.44334355  0.38639525  1
  Cl  Cl503  1  0.49671045  0.78157541  0.37462830  1
  Cl  Cl504  1  0.36307252  0.14471089  0.75112916  1
  Cl  Cl505  1  0.36257395  0.47828018  0.74766340  1
  Cl  Cl506  1  0.35784970  0.80997192  0.75377506  1
  Cl  Cl507  1  0.85688708  0.14445661  0.75029558  1
  Cl  Cl508  1  0.85991274  0.47742327  0.74994262  1
  Cl  Cl509  1  0.86188535  0.81150108  0.74863173  1
  Cl  Cl510  1  0.13870628  0.18853572  0.25366470  1
  Cl  Cl511  1  0.14024265  0.52366641  0.24898657  1
  Cl  Cl512  1  0.13947514  0.85529798  0.24757829  1
  Cl  Cl513  1  0.64376732  0.18880663  0.25192868  1
  Cl  Cl514  1  0.63698334  0.52120966  0.25051789  1
  Cl  Cl515  1  0.63830516  0.85484691  0.25103020  1
  Cl  Cl516  1  0.13755253  0.14478087  0.74926246  1
  Cl  Cl517  1  0.13792938  0.47682156  0.75441135  1
  Cl  Cl518  1  0.13509896  0.81040143  0.75222390  1
  Cl  Cl519  1  0.63551641  0.14499173  0.74592977  1
  Cl  Cl520  1  0.63641528  0.47761638  0.75038688  1
  Cl  Cl521  1  0.63887526  0.81264036  0.75145058  1
  Cl  Cl522  1  0.36347893  0.18921005  0.24934802  1
  Cl  Cl523  1  0.36398340  0.52208386  0.24996043  1
  Cl  Cl524  1  0.36400641  0.85470456  0.24833703  1
  Cl  Cl525  1  0.86445690  0.18923641  0.24730446  1
  Cl  Cl526  1  0.86243889  0.52193945  0.25148988  1
  Cl  Cl527  1  0.86186554  0.85410540  0.24796875  1
  Cl  Cl528  1  0.11083526  0.31050386  0.75000415  1
  Cl  Cl529  1  0.10946613  0.64267858  0.74896722  1
  Cl  Cl530  1  0.11197056  0.97712272  0.74934047  1
  Cl  Cl531  1  0.61281843  0.31193698  0.74639125  1
  Cl  Cl532  1  0.61124498  0.64640847  0.74950913  1
  Cl  Cl533  1  0.60815908  0.97661906  0.75409411  1
  Cl  Cl534  1  0.38947895  0.02325843  0.24828186  1
  Cl  Cl535  1  0.38925269  0.35515442  0.24747317  1
  Cl  Cl536  1  0.39171201  0.68962187  0.25037895  1
  Cl  Cl537  1  0.88886080  0.02141713  0.25175025  1
  Cl  Cl538  1  0.88958413  0.35781744  0.24633935  1
  Cl  Cl539  1  0.88810200  0.68802099  0.25448793  1
  Cl  Cl540  1  0.38963659  0.31318420  0.75181433  1
  Cl  Cl541  1  0.38709303  0.64477747  0.74938052  1
  Cl  Cl542  1  0.38661948  0.97794453  0.74978787  1
  Cl  Cl543  1  0.88784371  0.31274889  0.75087909  1
  Cl  Cl544  1  0.88662808  0.64373858  0.75082520  1
  Cl  Cl545  1  0.88633485  0.97768174  0.75071777  1
  Cl  Cl546  1  0.11439722  0.02118923  0.24971979  1
  Cl  Cl547  1  0.11188404  0.35506227  0.25434837  1
  Cl  Cl548  1  0.11188223  0.68899116  0.24941983  1
  Cl  Cl549  1  0.61235256  0.02066634  0.25173853  1
  Cl  Cl550  1  0.61267743  0.35443752  0.25278242  1
  Cl  Cl551  1  0.61301257  0.68853303  0.24792355  1
