# generated using pymatgen
data_H8PbC4(N3Cl2)2
_symmetry_space_group_name_H-M   'P 1'
_cell_length_a   16.62190641
_cell_length_b   22.49856126
_cell_length_c   21.58705289
_cell_angle_alpha   89.99892917
_cell_angle_beta   90.01130113
_cell_angle_gamma   89.99957110
_symmetry_Int_Tables_number   1
_chemical_formula_structural   H8PbC4(N3Cl2)2
_chemical_formula_sum   'H192 Pb24 C96 N144 Cl96'
_cell_volume   8072.88798156
_cell_formula_units_Z   24
loop_
 _symmetry_equiv_pos_site_id
 _symmetry_equiv_pos_as_xyz
  1  'x, y, z'
loop_
 _atom_site_type_symbol
 _atom_site_label
 _atom_site_symmetry_multiplicity
 _atom_site_fract_x
 _atom_site_fract_y
 _atom_site_fract_z
 _atom_site_occupancy
  H  H0  1  0.00131205  0.03274024  0.68083327  1
  H  H1  1  -0.00418533  0.36638767  0.67917596  1
  H  H2  1  -0.00464224  0.70122564  0.68079142  1
  H  H3  1  0.50180055  0.03232835  0.68037331  1
  H  H4  1  0.49790351  0.36668000  0.68168680  1
  H  H5  1  0.50534967  0.69981528  0.67919152  1
  H  H6  1  -0.00194649  0.30160991  0.18380480  1
  H  H7  1  0.00679511  0.63371635  0.17948403  1
  H  H8  1  -0.00013592  0.96759656  0.18202643  1
  H  H9  1  0.50536678  0.30076960  0.18095110  1
  H  H10  1  0.50058176  0.63408940  0.17970545  1
  H  H11  1  0.49991814  0.96784036  0.18123776  1
  H  H12  1  0.00186488  0.03295558  0.81706154  1
  H  H13  1  0.00143315  0.36716853  0.81821159  1
  H  H14  1  -0.00399887  0.69925121  0.82208782  1
  H  H15  1  0.50026923  0.03080957  0.82062188  1
  H  H16  1  0.49568735  0.36731350  0.81857889  1
  H  H17  1  0.49392229  0.69865990  0.81948063  1
  H  H18  1  -0.00571995  0.30198782  0.31798360  1
  H  H19  1  -0.00556184  0.63274156  0.31935787  1
  H  H20  1  -0.00299751  0.96751658  0.31747252  1
  H  H21  1  0.50208313  0.30245239  0.31739832  1
  H  H22  1  0.49964159  0.63389064  0.31979532  1
  H  H23  1  0.50205044  0.96654174  0.32068884  1
  H  H24  1  0.25773033  0.19895866  0.68229847  1
  H  H25  1  0.25034211  0.53307439  0.68052967  1
  H  H26  1  0.24706071  0.86576492  0.68236337  1
  H  H27  1  0.74851264  0.19924603  0.68421406  1
  H  H28  1  0.75313304  0.53296692  0.67911388  1
  H  H29  1  0.74375506  0.86635772  0.68038159  1
  H  H30  1  0.24749472  0.13383354  0.18198603  1
  H  H31  1  0.25054604  0.46667517  0.18148482  1
  H  H32  1  0.25498334  0.79890627  0.18049838  1
  H  H33  1  0.74585451  0.13364070  0.18114044  1
  H  H34  1  0.75423970  0.46813971  0.18061895  1
  H  H35  1  0.74927376  0.80005739  0.17910219  1
  H  H36  1  0.24348365  0.19933244  0.81888685  1
  H  H37  1  0.24925649  0.53344353  0.82007747  1
  H  H38  1  0.24505038  0.86763728  0.81826665  1
  H  H39  1  0.75302820  0.19685980  0.81738025  1
  H  H40  1  0.74858050  0.53244603  0.82075336  1
  H  H41  1  0.75587906  0.86641253  0.81756315  1
  H  H42  1  0.24738313  0.13338861  0.31879008  1
  H  H43  1  0.24904646  0.46766552  0.31949013  1
  H  H44  1  0.24428758  0.79944688  0.32143428  1
  H  H45  1  0.74673168  0.13248751  0.31939177  1
  H  H46  1  0.75024330  0.46742713  0.31735602  1
  H  H47  1  0.75157886  0.79915499  0.31889973  1
  H  H48  1  0.11821139  0.05649390  0.60324706  1
  H  H49  1  0.12673335  0.38635913  0.61424959  1
  H  H50  1  0.12690048  0.71917600  0.61595710  1
  H  H51  1  0.61894104  0.05488686  0.60250371  1
  H  H52  1  0.62216924  0.38802625  0.60993153  1
  H  H53  1  0.62073827  0.72397196  0.60032044  1
  H  H54  1  0.37100672  0.28198042  0.12074986  1
  H  H55  1  0.37433571  0.61257575  0.10947835  1
  H  H56  1  0.37542196  0.94505075  0.10856111  1
  H  H57  1  0.87560821  0.27980250  0.11228383  1
  H  H58  1  0.87372012  0.61523125  0.11566930  1
  H  H59  1  0.87446484  0.94689422  0.11212827  1
  H  H60  1  0.37131324  0.05242418  0.88675919  1
  H  H61  1  0.38040534  0.38952204  0.89614030  1
  H  H62  1  0.38148708  0.72316325  0.90089489  1
  H  H63  1  0.87084874  0.05209134  0.88039859  1
  H  H64  1  0.87679871  0.38764807  0.89130004  1
  H  H65  1  0.88204160  0.72350079  0.90047884  1
  H  H66  1  0.12732624  0.28233704  0.37978550  1
  H  H67  1  0.13224279  0.61648202  0.37605467  1
  H  H68  1  0.12343602  0.94584766  0.38761384  1
  H  H69  1  0.62489555  0.27728367  0.38977116  1
  H  H70  1  0.62833654  0.61372276  0.38841992  1
  H  H71  1  0.62277384  0.94410330  0.39435269  1
  H  H72  1  0.37058743  0.22309386  0.60071360  1
  H  H73  1  0.37086339  0.55467080  0.60653080  1
  H  H74  1  0.37575265  0.88684972  0.61379096  1
  H  H75  1  0.87447709  0.21941023  0.61600152  1
  H  H76  1  0.86837184  0.55739942  0.60152730  1
  H  H77  1  0.87508926  0.88609737  0.61442599  1
  H  H78  1  0.13133686  0.11173858  0.10564728  1
  H  H79  1  0.11964193  0.44859513  0.11625300  1
  H  H80  1  0.11703325  0.78160067  0.12420633  1
  H  H81  1  0.62757451  0.11022906  0.10581215  1
  H  H82  1  0.62274931  0.44791659  0.11415543  1
  H  H83  1  0.62181966  0.77822927  0.11047090  1
  H  H84  1  0.13189755  0.22469542  0.90019499  1
  H  H85  1  0.12592479  0.55423877  0.89200367  1
  H  H86  1  0.12973462  0.88726695  0.89550076  1
  H  H87  1  0.62574381  0.22019947  0.88595351  1
  H  H88  1  0.62814928  0.55505872  0.89578090  1
  H  H89  1  0.62300380  0.88606494  0.88159030  1
  H  H90  1  0.37903685  0.11307915  0.38361821  1
  H  H91  1  0.37255893  0.44602697  0.39203511  1
  H  H92  1  0.37614374  0.78060353  0.38530842  1
  H  H93  1  0.87979494  0.11356077  0.38260970  1
  H  H94  1  0.87458539  0.44593417  0.39033833  1
  H  H95  1  0.87018360  0.77892439  0.39297148  1
  H  H96  1  0.37531837  0.28079912  0.38483399  1
  H  H97  1  0.37957890  0.61146657  0.39359318  1
  H  H98  1  0.37364399  0.94604945  0.38847784  1
  H  H99  1  0.87884574  0.27616186  0.39584487  1
  H  H100  1  0.88513548  0.61044570  0.40044113  1
  H  H101  1  0.87419785  0.94620570  0.39021872  1
  H  H102  1  0.12008032  0.05434902  0.89192940  1
  H  H103  1  0.12547776  0.38844891  0.89192522  1
  H  H104  1  0.12968001  0.71839946  0.88436312  1
  H  H105  1  0.62007407  0.05553681  0.89553990  1
  H  H106  1  0.62947283  0.38601806  0.88194263  1
  H  H107  1  0.62822446  0.71802086  0.88109397  1
  H  H108  1  0.12508081  0.28200640  0.11694674  1
  H  H109  1  0.12195957  0.60921048  0.10184563  1
  H  H110  1  0.12477285  0.94400109  0.11111367  1
  H  H111  1  0.61920368  0.27493641  0.10126677  1
  H  H112  1  0.62346457  0.61202181  0.10783270  1
  H  H113  1  0.62408974  0.94616064  0.10776288  1
  H  H114  1  0.37035406  0.05417577  0.61696834  1
  H  H115  1  0.37359232  0.38801869  0.60914148  1
  H  H116  1  0.37312462  0.71869245  0.61618784  1
  H  H117  1  0.86950885  0.05256034  0.61663955  1
  H  H118  1  0.87805353  0.39030257  0.60327713  1
  H  H119  1  0.87789913  0.72293544  0.60305984  1
  H  H120  1  0.13146559  0.10997093  0.39832734  1
  H  H121  1  0.12360846  0.44541006  0.38891175  1
  H  H122  1  0.12783023  0.77612863  0.39868005  1
  H  H123  1  0.63123984  0.10885059  0.39821945  1
  H  H124  1  0.62531501  0.44647406  0.38824437  1
  H  H125  1  0.62095213  0.78125974  0.38417788  1
  H  H126  1  0.37955897  0.21790957  0.87817380  1
  H  H127  1  0.37494951  0.55390442  0.89163033  1
  H  H128  1  0.37838899  0.88521471  0.88017808  1
  H  H129  1  0.87561646  0.22073150  0.88871589  1
  H  H130  1  0.87695994  0.55427628  0.88952169  1
  H  H131  1  0.87163636  0.88803945  0.89636878  1
  H  H132  1  0.38017944  0.11490090  0.12080252  1
  H  H133  1  0.36884610  0.44725839  0.10706137  1
  H  H134  1  0.36436971  0.77693315  0.09911250  1
  H  H135  1  0.87627428  0.11361942  0.11467768  1
  H  H136  1  0.87079109  0.44445670  0.10211021  1
  H  H137  1  0.87066353  0.77717762  0.10659162  1
  H  H138  1  0.12365213  0.21866342  0.62050320  1
  H  H139  1  0.12166031  0.55342121  0.61242182  1
  H  H140  1  0.12686372  0.88748484  0.60820594  1
  H  H141  1  0.62457117  0.21949500  0.61402199  1
  H  H142  1  0.62056894  0.55099314  0.61519282  1
  H  H143  1  0.62628022  0.88789221  0.60314013  1
  H  H144  1  0.41915023  0.25439112  0.49775955  1
  H  H145  1  0.31413096  0.42226037  -0.00492440  1
  H  H146  1  0.67282039  0.23990972  0.49974753  1
  H  H147  1  0.41635604  0.91656072  0.49413059  1
  H  H148  1  0.15731888  0.58324743  0.50612031  1
  H  H149  1  0.92166614  0.92091656  -0.00014527  1
  H  H150  1  0.83256303  0.58108384  0.99480041  1
  H  H151  1  0.09570734  0.25292789  0.49223594  1
  H  H152  1  0.19782467  0.08611273  0.50148896  1
  H  H153  1  0.80334336  0.57071773  0.49745372  1
  H  H154  1  0.29888559  0.75059385  -0.00782827  1
  H  H155  1  0.42546148  0.41840468  0.50583181  1
  H  H156  1  0.56823036  0.26615474  0.49814494  1
  H  H157  1  0.32026615  0.58307562  0.49799786  1
  H  H158  1  0.35179600  0.08516736  0.00760734  1
  H  H159  1  0.44016593  0.41771964  1.00458490  1
  H  H160  1  0.94044710  0.74862893  0.49842854  1
  H  H161  1  0.39761345  0.25151998  0.00809811  1
  H  H162  1  0.67374737  0.41895632  0.49769607  1
  H  H163  1  0.59553452  0.41745963  0.98800583  1
  H  H164  1  0.67368111  0.23787807  0.99457349  1
  H  H165  1  0.08951461  0.41577970  0.50747774  1
  H  H166  1  0.92540018  0.91805253  0.49870590  1
  H  H167  1  0.19000062  0.91218012  1.00654399  1
  H  H168  1  0.90365103  0.08039803  0.99285479  1
  H  H169  1  0.82274633  0.24181069  1.00186945  1
  H  H170  1  0.80725273  0.91446097  1.00407990  1
  H  H171  1  0.81572725  0.75423592  0.50516490  1
  H  H172  1  0.66577485  0.75076680  0.00453838  1
  H  H173  1  0.82975870  0.24326758  0.50196886  1
  H  H174  1  0.06527401  0.08038577  1.00249254  1
  H  H175  1  0.69603854  0.08095360  0.50128629  1
  H  H176  1  0.18080424  0.91497227  0.49988393  1
  H  H177  1  0.94226443  0.25656884  0.50082035  1
  H  H178  1  0.55354654  0.25100998  -0.00203697  1
  H  H179  1  0.65525625  0.58713317  0.51174440  1
  H  H180  1  0.95086135  0.58408665  0.50754455  1
  H  H181  1  0.18902686  0.08599542  -0.00426495  1
  H  H182  1  0.20191977  0.25033279  1.00265837  1
  H  H183  1  0.55610457  0.08083334  0.49844567  1
  H  H184  1  0.34146544  0.75155415  0.49287883  1
  H  H185  1  0.92598483  0.26036359  -0.00144396  1
  H  H186  1  0.05537477  0.08065555  0.49862413  1
  H  H187  1  0.45068799  0.74722464  1.00257032  1
  H  H188  1  0.10048438  0.74808054  0.99304813  1
  H  H189  1  0.30062040  0.24527564  0.49810780  1
  H  H190  1  0.07424563  0.92221026  0.00405859  1
  H  H191  1  0.08356150  0.25863868  0.00248997  1
  Pb  Pb192  1  0.24884707  0.04580621  0.74813573  1
  Pb  Pb193  1  0.24912301  0.38311453  0.75181688  1
  Pb  Pb194  1  0.25349686  0.71361254  0.75060589  1
  Pb  Pb195  1  0.74765579  0.04545506  0.74543992  1
  Pb  Pb196  1  0.75282876  0.38195689  0.74689372  1
  Pb  Pb197  1  0.75008922  0.71405667  0.74987205  1
  Pb  Pb198  1  0.25017281  0.28709525  0.25010755  1
  Pb  Pb199  1  0.25229890  0.61977862  0.24994325  1
  Pb  Pb200  1  0.25231524  0.95077875  0.24973531  1
  Pb  Pb201  1  0.75127799  0.28508019  0.24870773  1
  Pb  Pb202  1  0.74876272  0.62015828  0.25440442  1
  Pb  Pb203  1  0.74831583  0.95091610  0.24994059  1
  Pb  Pb204  1  0.00067889  0.21458385  0.75093753  1
  Pb  Pb205  1  -0.00100262  0.55013300  0.74898149  1
  Pb  Pb206  1  -0.00038060  0.87914811  0.75323600  1
  Pb  Pb207  1  0.50006624  0.21523723  0.74814102  1
  Pb  Pb208  1  0.50155481  0.54703099  0.75110297  1
  Pb  Pb209  1  0.50132418  0.87886745  0.74312215  1
  Pb  Pb210  1  0.00210098  0.11702658  0.25102674  1
  Pb  Pb211  1  -0.00092239  0.45516985  0.25429176  1
  Pb  Pb212  1  -0.00202546  0.78466550  0.25391805  1
  Pb  Pb213  1  0.50387309  0.11854215  0.25557169  1
  Pb  Pb214  1  0.50025242  0.45434891  0.24981645  1
  Pb  Pb215  1  0.49832993  0.78556030  0.24412313  1
  C  C216  1  -0.00348943  0.04667231  0.63303029  1
  C  C217  1  0.00061542  0.38095705  0.63152415  1
  C  C218  1  -0.00023069  0.71437857  0.63268908  1
  C  C219  1  0.49724569  0.04658259  0.63264296  1
  C  C220  1  0.49753195  0.38132664  0.63382288  1
  C  C221  1  0.49990506  0.71419764  0.63158989  1
  C  C222  1  -0.00043977  0.28721847  0.13584700  1
  C  C223  1  0.00047223  0.61939095  0.13196784  1
  C  C224  1  0.00019385  0.95282263  0.13407037  1
  C  C225  1  0.49872637  0.28644020  0.13310440  1
  C  C226  1  0.49920537  0.61959050  0.13202171  1
  C  C227  1  0.49980283  0.95315428  0.13341942  1
  C  C228  1  -0.00263042  0.04684814  0.86512540  1
  C  C229  1  0.00131542  0.38131482  0.86630251  1
  C  C230  1  0.00311288  0.71373859  0.86964469  1
  C  C231  1  0.49735728  0.04627417  0.86792921  1
  C  C232  1  0.50247741  0.38178300  0.86637008  1
  C  C233  1  0.50085490  0.71275881  0.86721564  1
  C  C234  1  -0.00008730  0.28715035  0.36572988  1
  C  C235  1  0.00387742  0.61968769  0.36713508  1
  C  C236  1  -0.00170870  0.95266290  0.36521728  1
  C  C237  1  0.50152472  0.28758979  0.36532054  1
  C  C238  1  0.50292478  0.61971276  0.36749526  1
  C  C239  1  0.49901058  0.95226198  0.36850538  1
  C  C240  1  0.25097915  0.21324453  0.63458926  1
  C  C241  1  0.24704103  0.54765635  0.63253679  1
  C  C242  1  0.25016271  0.88037729  0.63456100  1
  C  C243  1  0.74913688  0.21366192  0.63620446  1
  C  C244  1  0.74722595  0.54715436  0.63115590  1
  C  C245  1  0.74867756  0.88015745  0.63258142  1
  C  C246  1  0.25331309  0.11961819  0.13409796  1
  C  C247  1  0.24665071  0.45363807  0.13334529  1
  C  C248  1  0.24560999  0.78578217  0.13272661  1
  C  C249  1  0.75027887  0.11937605  0.13349257  1
  C  C250  1  0.74928203  0.45360519  0.13287142  1
  C  C251  1  0.74674924  0.78545803  0.13134588  1
  C  C252  1  0.25118402  0.21358663  0.86652838  1
  C  C253  1  0.25029275  0.54732760  0.86801781  1
  C  C254  1  0.25082838  0.88058345  0.86635222  1
  C  C255  1  0.75103405  0.21229749  0.86504372  1
  C  C256  1  0.75166395  0.54715595  0.86848921  1
  C  C257  1  0.75013698  0.88058662  0.86533805  1
  C  C258  1  0.25246921  0.11911776  0.36660225  1
  C  C259  1  0.24859017  0.45295946  0.36711350  1
  C  C260  1  0.24982200  0.78520019  0.36918144  1
  C  C261  1  0.75240344  0.11855693  0.36715170  1
  C  C262  1  0.75016284  0.45304605  0.36527881  1
  C  C263  1  0.74784650  0.78601482  0.36703618  1
  C  C264  1  0.46948116  0.59294319  0.46167285  1
  C  C265  1  0.44531162  0.07477372  0.54232028  1
  C  C266  1  0.71275520  0.42852768  0.45856793  1
  C  C267  1  0.53490259  0.59191342  0.03923718  1
  C  C268  1  0.02972412  0.07099948  0.96138222  1
  C  C269  1  0.22361392  0.09492265  0.03742764  1
  C  C270  1  0.96358622  0.92794744  0.45908516  1
  C  C271  1  0.30549882  0.09522261  0.04307820  1
  C  C272  1  0.98355440  0.59470432  0.46530025  1
  C  C273  1  0.77543029  0.90506627  0.96113423  1
  C  C274  1  0.80614998  0.09374564  0.45799330  1
  C  C275  1  0.22325996  0.90367886  0.96403578  1
  C  C276  1  0.96723022  0.40956522  0.53616071  1
  C  C277  1  0.96199773  0.26518249  0.04023594  1
  C  C278  1  0.02729686  0.59094153  0.03720031  1
  C  C279  1  0.06435621  0.59713262  0.45530382  1
  C  C280  1  0.30423005  0.90281502  0.95692692  1
  C  C281  1  0.44355516  0.26102443  0.04403596  1
  C  C282  1  0.45688787  0.26057008  0.45699640  1
  C  C283  1  0.94440027  0.07270770  0.54202743  1
  C  C284  1  0.94781626  0.07047489  0.95701931  1
  C  C285  1  0.18569202  0.76250173  0.04477371  1
  C  C286  1  0.27859269  0.43060023  0.03645630  1
  C  C287  1  0.21386457  0.57200180  0.96171464  1
  C  C288  1  0.70937186  0.23579098  0.54125575  1
  C  C289  1  0.26624362  0.76082120  0.03455811  1
  C  C290  1  0.45345305  0.07414159  0.95911621  1
  C  C291  1  0.05248854  0.26134002  0.45534571  1
  C  C292  1  0.69881489  0.76331323  0.45877040  1
  C  C293  1  0.78005127  0.76265439  0.46381739  1
  C  C294  1  0.45111923  0.73964687  0.54109337  1
  C  C295  1  0.30957117  0.23833359  0.95540742  1
  C  C296  1  0.28209216  0.57336067  0.53786647  1
  C  C297  1  0.71909652  0.90575441  0.53756309  1
  C  C298  1  0.53628546  0.92392204  0.46295998  1
  C  C299  1  0.21787974  0.90521355  0.54011861  1
  C  C300  1  0.78519824  0.75773312  0.03702486  1
  C  C301  1  0.95851819  0.92772571  0.04091499  1
  C  C302  1  0.97459647  0.74172807  0.96599983  1
  C  C303  1  0.47288096  0.40712138  0.96234070  1
  C  C304  1  0.05147956  0.73803370  0.54084467  1
  C  C305  1  0.71953846  0.09162553  0.03923030  1
  C  C306  1  0.04402793  0.26538100  0.04201545  1
  C  C307  1  0.78933314  0.23841951  0.95877493  1
  C  C308  1  0.21825623  0.75824010  0.46536826  1
  C  C309  1  0.79156148  0.23629626  0.54215788  1
  C  C310  1  0.19744307  0.43115573  0.04162735  1
  C  C311  1  0.20870130  0.42601171  0.45985840  1
  N  N312  1  0.79663330  0.90543651  0.53985742  1
  N  N313  1  0.29735476  0.90496880  0.54152576  1
  N  N314  1  0.29707044  0.75995430  0.45959745  1
  N  N315  1  0.46181142  0.40370471  0.54102911  1
  N  N316  1  0.02321927  0.07309455  0.53839719  1
  N  N317  1  0.53750583  0.92744819  0.03925723  1
  N  N318  1  0.94979442  0.59318211  0.04028136  1
  N  N319  1  0.55214917  0.40479179  0.95645987  1
  N  N320  1  0.55721575  0.73779564  0.95590168  1
  N  N321  1  0.52404745  0.07392080  0.53840233  1
  N  N322  1  0.72737512  0.09272013  0.46224400  1
  N  N323  1  0.23111844  0.24037295  0.96219537  1
  N  N324  1  0.71442729  0.57331890  0.96282873  1
  N  N325  1  0.97262063  0.73871690  0.53749874  1
  N  N326  1  0.70977182  0.23998303  0.95631220  1
  N  N327  1  0.53097910  0.07600735  0.96302273  1
  N  N328  1  0.52287653  0.25865766  0.03839347  1
  N  N329  1  0.30526608  0.09648376  0.45743905  1
  N  N330  1  0.05297393  0.73931365  0.95923279  1
  N  N331  1  0.46136395  0.92703009  0.03954810  1
  N  N332  1  0.79216165  0.42851675  0.45965289  1
  N  N333  1  0.28670367  0.42631382  0.46222267  1
  N  N334  1  0.77824590  0.42680039  0.03735111  1
  N  N335  1  0.54737283  0.59415686  0.46116561  1
  N  N336  1  0.04304041  0.92807333  0.45888031  1
  N  N337  1  0.54026318  0.40473937  0.54002330  1
  N  N338  1  0.47941610  0.74093255  0.96101161  1
  N  N339  1  0.04616502  0.40744270  0.54095780  1
  N  N340  1  0.70607854  0.75911657  0.03945419  1
  N  N341  1  0.52843640  0.74174171  0.53482464  1
  N  N342  1  0.45729605  0.92544708  0.45988976  1
  N  N343  1  0.22740314  0.09507298  0.46091306  1
  N  N344  1  0.69660768  0.90464806  0.95623898  1
  N  N345  1  0.29110156  0.57215155  0.96283476  1
  N  N346  1  0.45737999  0.59218175  0.03842262  1
  N  N347  1  0.77564019  0.57950365  0.53897018  1
  N  N348  1  0.20240892  0.57333101  0.54104994  1
  N  N349  1  0.19513807  0.23680108  0.54540278  1
  N  N350  1  0.79711039  0.09345991  0.04073905  1
  N  N351  1  0.03799580  0.92529497  0.04206298  1
  N  N352  1  0.96287213  0.40442752  0.96102536  1
  N  N353  1  0.27288453  0.23967667  0.54026631  1
  N  N354  1  0.03896739  0.40476635  0.96109727  1
  N  N355  1  0.53696980  0.25831273  0.45810064  1
  N  N356  1  0.70184762  0.42867893  0.04125330  1
  N  N357  1  0.69698041  0.56812211  0.54122754  1
  N  N358  1  0.97310384  0.25802975  0.45972869  1
  N  N359  1  0.79273862  0.57298305  0.95911129  1
  N  N360  1  0.05653090  0.05583848  0.59397986  1
  N  N361  1  0.06727830  0.38971765  0.59973681  1
  N  N362  1  0.06839403  0.72296478  0.59974377  1
  N  N363  1  0.55719333  0.05532338  0.59349490  1
  N  N364  1  0.56160373  0.38991417  0.59795116  1
  N  N365  1  0.55893581  0.72553045  0.59247319  1
  N  N366  1  0.42873553  0.27755647  0.10310916  1
  N  N367  1  0.43497914  0.60949109  0.09755445  1
  N  N368  1  0.43631890  0.94287102  0.09784147  1
  N  N369  1  0.93548738  0.27839401  0.09903229  1
  N  N370  1  0.93310040  0.61123408  0.10086112  1
  N  N371  1  0.93454011  0.94335458  0.09843583  1
  N  N372  1  0.43037485  0.05652619  0.90136753  1
  N  N373  1  0.44165750  0.39214693  0.90659964  1
  N  N374  1  0.44349514  0.72312264  0.90816288  1
  N  N375  1  0.92928029  0.05554443  0.89705881  1
  N  N376  1  0.93783867  0.39037923  0.90215180  1
  N  N377  1  0.94320534  0.72582175  0.91056683  1
  N  N378  1  0.06926267  0.27761455  0.39661940  1
  N  N379  1  0.07568721  0.61199217  0.39570281  1
  N  N380  1  0.06275838  0.94325517  0.39991367  1
  N  N381  1  0.56423916  0.27993510  0.40205550  1
  N  N382  1  0.56819682  0.61103386  0.40104382  1
  N  N383  1  0.56237858  0.94069142  0.40652475  1
  N  N384  1  0.30857111  0.22275223  0.59352167  1
  N  N385  1  0.31008867  0.55770808  0.59465897  1
  N  N386  1  0.31545228  0.88954859  0.60092459  1
  N  N387  1  0.81490017  0.22272847  0.60141733  1
  N  N388  1  0.80689648  0.55570643  0.59154568  1
  N  N389  1  0.81513640  0.88939287  0.60054740  1
  N  N390  1  0.19234911  0.11004626  0.09456857  1
  N  N391  1  0.17848319  0.44475869  0.10013070  1
  N  N392  1  0.17382258  0.77748019  0.10441038  1
  N  N393  1  0.68850415  0.10744698  0.09483743  1
  N  N394  1  0.68260076  0.44505858  0.10054686  1
  N  N395  1  0.68173431  0.77666926  0.09752634  1
  N  N396  1  0.19392635  0.22406144  0.90750545  1
  N  N397  1  0.18589598  0.55715713  0.90467258  1
  N  N398  1  0.19059380  0.88974073  0.90617287  1
  N  N399  1  0.68629357  0.22018961  0.89936448  1
  N  N400  1  0.68934625  0.55789225  0.90577207  1
  N  N401  1  0.68255422  0.88969000  0.89653188  1
  N  N402  1  0.32031952  0.11050217  0.39813306  1
  N  N403  1  0.31146327  0.44340323  0.40309857  1
  N  N404  1  0.31694356  0.77623725  0.40029614  1
  N  N405  1  0.82185115  0.10982315  0.39916327  1
  N  N406  1  0.81355646  0.44349987  0.40117156  1
  N  N407  1  0.80974999  0.77676706  0.40526431  1
  N  N408  1  0.43493747  0.27643610  0.39934014  1
  N  N409  1  0.44021757  0.60844889  0.40534420  1
  N  N410  1  0.43361316  0.94324894  0.40177936  1
  N  N411  1  0.94056773  0.27713657  0.40516240  1
  N  N412  1  0.94683888  0.60913341  0.40905461  1
  N  N413  1  0.93469882  0.94267087  0.40189969  1
  N  N414  1  0.05931687  0.05632770  0.90366393  1
  N  N415  1  0.06451491  0.39065997  0.90247065  1
  N  N416  1  0.07103812  0.72209845  0.89992182  1
  N  N417  1  0.55843639  0.05812870  0.90490944  1
  N  N418  1  0.57011671  0.39073684  0.89693545  1
  N  N419  1  0.56977794  0.72205930  0.89687830  1
  N  N420  1  0.06588213  0.27884492  0.10168807  1
  N  N421  1  0.06071698  0.60692689  0.09207966  1
  N  N422  1  0.06383990  0.94314470  0.09881145  1
  N  N423  1  0.55706168  0.27622840  0.09281794  1
  N  N424  1  0.56341234  0.60853065  0.09547641  1
  N  N425  1  0.56302970  0.94348004  0.09746726  1
  N  N426  1  0.42841313  0.05810176  0.60067901  1
  N  N427  1  0.43446529  0.39134501  0.59811331  1
  N  N428  1  0.43142691  0.72307399  0.59993586  1
  N  N429  1  0.92770748  0.05673442  0.60071874  1
  N  N430  1  0.93870691  0.39293913  0.59213889  1
  N  N431  1  0.93952589  0.72384875  0.59389807  1
  N  N432  1  0.19347102  0.10966011  0.40637367  1
  N  N433  1  0.18338368  0.44212005  0.40233548  1
  N  N434  1  0.18866070  0.77385703  0.40930977  1
  N  N435  1  0.69315631  0.10803796  0.40648891  1
  N  N436  1  0.68538468  0.44329559  0.40092644  1
  N  N437  1  0.67978064  0.77718379  0.40038090  1
  N  N438  1  0.32225411  0.22222079  0.89613127  1
  N  N439  1  0.31419389  0.55663761  0.90303958  1
  N  N440  1  0.32034304  0.88911108  0.89802305  1
  N  N441  1  0.81548366  0.22330874  0.90170185  1
  N  N442  1  0.81671363  0.55638772  0.90233594  1
  N  N443  1  0.81025245  0.89054854  0.90553639  1
  N  N444  1  0.32216892  0.11057765  0.10345501  1
  N  N445  1  0.30843454  0.44455332  0.09497358  1
  N  N446  1  0.30265443  0.77572203  0.09068793  1
  N  N447  1  0.81646958  0.11091658  0.10086430  1
  N  N448  1  0.80899884  0.44217827  0.09394712  1
  N  N449  1  0.81047482  0.77411418  0.09370422  1
  N  N450  1  0.18215410  0.22252151  0.60474028  1
  N  N451  1  0.18154775  0.55753445  0.59943767  1
  N  N452  1  0.18757885  0.89051857  0.59682901  1
  N  N453  1  0.68420474  0.22194000  0.60014710  1
  N  N454  1  0.67960830  0.55761419  0.60081484  1
  N  N455  1  0.68726913  0.89056586  0.59313978  1
  Cl  Cl456  1  0.24014221  0.05827725  0.60868938  1
  Cl  Cl457  1  0.25085086  0.38513633  0.61815537  1
  Cl  Cl458  1  0.25042795  0.71900953  0.61672179  1
  Cl  Cl459  1  0.74020659  0.05589320  0.60612856  1
  Cl  Cl460  1  0.74765886  0.38819340  0.61430150  1
  Cl  Cl461  1  0.75245861  0.72011038  0.61481086  1
  Cl  Cl462  1  0.24645916  0.27862978  0.11339748  1
  Cl  Cl463  1  0.24761965  0.61435775  0.11980360  1
  Cl  Cl464  1  0.24831528  0.94496258  0.11549985  1
  Cl  Cl465  1  0.74284974  0.27323362  0.10845305  1
  Cl  Cl466  1  0.74968196  0.61684337  0.12133948  1
  Cl  Cl467  1  0.75048863  0.94649801  0.11433634  1
  Cl  Cl468  1  0.24502083  0.05387835  0.88045599  1
  Cl  Cl469  1  0.25382742  0.38467091  0.88581687  1
  Cl  Cl470  1  0.25824648  0.72065439  0.88537787  1
  Cl  Cl471  1  0.74365990  0.05287166  0.87614711  1
  Cl  Cl472  1  0.75308609  0.38264443  0.87979216  1
  Cl  Cl473  1  0.75458476  0.72106392  0.88497198  1
  Cl  Cl474  1  0.25438859  0.27842168  0.38796733  1
  Cl  Cl475  1  0.25793541  0.61433242  0.38624716  1
  Cl  Cl476  1  0.24824458  0.94622926  0.38383079  1
  Cl  Cl477  1  0.75209501  0.27603841  0.38485844  1
  Cl  Cl478  1  0.75697337  0.60902701  0.39382563  1
  Cl  Cl479  1  0.74765570  0.95053505  0.38144422  1
  Cl  Cl480  1  -0.00224750  0.22188353  0.61027375  1
  Cl  Cl481  1  -0.00750122  0.55327931  0.61227038  1
  Cl  Cl482  1  0.00001003  0.88428401  0.62010279  1
  Cl  Cl483  1  0.49495526  0.22308743  0.60713907  1
  Cl  Cl484  1  0.49696635  0.55067562  0.61769461  1
  Cl  Cl485  1  0.50025874  0.88970671  0.60766947  1
  Cl  Cl486  1  0.00540483  0.11162245  0.11850696  1
  Cl  Cl487  1  -0.00618538  0.45030287  0.12353181  1
  Cl  Cl488  1  -0.00703782  0.78129628  0.12056068  1
  Cl  Cl489  1  0.50522876  0.11889492  0.12532611  1
  Cl  Cl490  1  0.49759874  0.44450977  0.11348521  1
  Cl  Cl491  1  0.49178330  0.77399364  0.10707879  1
  Cl  Cl492  1  0.00535790  0.22230717  0.88449892  1
  Cl  Cl493  1  -0.00013286  0.55540875  0.88065936  1
  Cl  Cl494  1  0.00028812  0.88803172  0.89254519  1
  Cl  Cl495  1  0.50564256  0.22479725  0.89138901  1
  Cl  Cl496  1  0.50316723  0.55064557  0.88347302  1
  Cl  Cl497  1  0.50021797  0.88146607  0.87256720  1
  Cl  Cl498  1  0.01054856  0.11011834  0.39331821  1
  Cl  Cl499  1  0.00032294  0.44461503  0.39011879  1
  Cl  Cl500  1  -0.00242194  0.77603746  0.39031382  1
  Cl  Cl501  1  0.50948598  0.10924756  0.39537248  1
  Cl  Cl502  1  0.49672942  0.44641886  0.38372711  1
  Cl  Cl503  1  0.49767119  0.78529874  0.37559003  1
  Cl  Cl504  1  0.36241384  0.14409901  0.75099536  1
  Cl  Cl505  1  0.36182442  0.47599548  0.75007757  1
  Cl  Cl506  1  0.36170532  0.81028078  0.74923723  1
  Cl  Cl507  1  0.86233628  0.14326633  0.74879313  1
  Cl  Cl508  1  0.85945086  0.47625205  0.74907427  1
  Cl  Cl509  1  0.86471571  0.81019628  0.74783163  1
  Cl  Cl510  1  0.13931059  0.19087146  0.25000964  1
  Cl  Cl511  1  0.13610174  0.52357186  0.25178305  1
  Cl  Cl512  1  0.13604618  0.85686029  0.24828780  1
  Cl  Cl513  1  0.63707742  0.19071709  0.25226478  1
  Cl  Cl514  1  0.63713576  0.52399578  0.25039822  1
  Cl  Cl515  1  0.63897928  0.85734065  0.25054781  1
  Cl  Cl516  1  0.13720626  0.14426193  0.74694136  1
  Cl  Cl517  1  0.14023857  0.47533390  0.74698580  1
  Cl  Cl518  1  0.13545532  0.81009063  0.75047118  1
  Cl  Cl519  1  0.63684139  0.14459088  0.74758373  1
  Cl  Cl520  1  0.63700602  0.47634049  0.74935370  1
  Cl  Cl521  1  0.63693007  0.80997332  0.75190331  1
  Cl  Cl522  1  0.36222910  0.19049382  0.25189545  1
  Cl  Cl523  1  0.36237272  0.52341491  0.25147298  1
  Cl  Cl524  1  0.36054883  0.85681376  0.25218984  1
  Cl  Cl525  1  0.86249226  0.19071722  0.25097541  1
  Cl  Cl526  1  0.86252502  0.52319818  0.25263123  1
  Cl  Cl527  1  0.86267962  0.85718527  0.24834069  1
  Cl  Cl528  1  0.11187139  0.30886572  0.74627537  1
  Cl  Cl529  1  0.11219237  0.64276815  0.74772785  1
  Cl  Cl530  1  0.11245097  0.97775390  0.75015365  1
  Cl  Cl531  1  0.60942996  0.30860486  0.75008745  1
  Cl  Cl532  1  0.61292745  0.64360377  0.75011384  1
  Cl  Cl533  1  0.61250261  0.97650844  0.74994340  1
  Cl  Cl534  1  0.38696896  0.02405972  0.25191462  1
  Cl  Cl535  1  0.38761836  0.35544562  0.24907913  1
  Cl  Cl536  1  0.38712090  0.69035951  0.24991288  1
  Cl  Cl537  1  0.88962917  0.02551730  0.24982486  1
  Cl  Cl538  1  0.88755738  0.35541568  0.25198118  1
  Cl  Cl539  1  0.88794377  0.68977693  0.24962639  1
  Cl  Cl540  1  0.39084628  0.30855829  0.75068096  1
  Cl  Cl541  1  0.38627053  0.64356364  0.74787879  1
  Cl  Cl542  1  0.38556962  0.97692628  0.74739153  1
  Cl  Cl543  1  0.88827139  0.30924059  0.74789898  1
  Cl  Cl544  1  0.88916633  0.64285533  0.75019955  1
  Cl  Cl545  1  0.88606656  0.97748533  0.74880854  1
  Cl  Cl546  1  0.11006196  0.02431144  0.25060715  1
  Cl  Cl547  1  0.11362350  0.35620756  0.25128217  1
  Cl  Cl548  1  0.11335515  0.69111594  0.25191719  1
  Cl  Cl549  1  0.61158818  0.02423679  0.25221674  1
  Cl  Cl550  1  0.61161023  0.35598419  0.25073017  1
  Cl  Cl551  1  0.61357222  0.69062754  0.25151956  1
