# generated using pymatgen
data_H8PbC4(N3Cl2)2
_symmetry_space_group_name_H-M   'P 1'
_cell_length_a   16.62177013
_cell_length_b   22.50103450
_cell_length_c   21.58806391
_cell_angle_alpha   89.99853169
_cell_angle_beta   89.99969425
_cell_angle_gamma   89.99947783
_symmetry_Int_Tables_number   1
_chemical_formula_structural   H8PbC4(N3Cl2)2
_chemical_formula_sum   'H192 Pb24 C96 N144 Cl96'
_cell_volume   8074.08751283
_cell_formula_units_Z   24
loop_
 _symmetry_equiv_pos_site_id
 _symmetry_equiv_pos_as_xyz
  1  'x, y, z'
loop_
 _atom_site_type_symbol
 _atom_site_label
 _atom_site_symmetry_multiplicity
 _atom_site_fract_x
 _atom_site_fract_y
 _atom_site_fract_z
 _atom_site_occupancy
  H  H0  1  -0.00525283  0.03296136  0.68013231  1
  H  H1  1  0.01048549  0.36515950  0.68130622  1
  H  H2  1  0.00538382  0.69787524  0.68301700  1
  H  H3  1  0.50154765  0.03281137  0.68146222  1
  H  H4  1  0.49216634  0.36571304  0.68122731  1
  H  H5  1  0.50303267  0.69936781  0.68315672  1
  H  H6  1  0.00772717  0.30079071  0.17811410  1
  H  H7  1  0.00053072  0.63179452  0.17792410  1
  H  H8  1  -0.00646355  0.96971370  0.18129797  1
  H  H9  1  0.49906807  0.30124606  0.18050400  1
  H  H10  1  0.50338694  0.63413410  0.18020402  1
  H  H11  1  0.50017784  0.96795857  0.18183861  1
  H  H12  1  0.00483620  0.03294135  0.82095892  1
  H  H13  1  0.00351317  0.36474836  0.81932131  1
  H  H14  1  -0.00722458  0.69824533  0.81799218  1
  H  H15  1  0.49761283  0.03226048  0.82138863  1
  H  H16  1  0.50201225  0.36529308  0.81991306  1
  H  H17  1  0.50502607  0.69982812  0.81869835  1
  H  H18  1  0.00036472  0.29846920  0.32231669  1
  H  H19  1  -0.00248100  0.63378726  0.31677709  1
  H  H20  1  0.00858952  0.96733601  0.31914022  1
  H  H21  1  0.49543305  0.30028744  0.31796118  1
  H  H22  1  0.49237475  0.63365736  0.32128827  1
  H  H23  1  0.49878605  0.96930637  0.32026804  1
  H  H24  1  0.24306664  0.19857748  0.67947857  1
  H  H25  1  0.25383028  0.53331026  0.68225915  1
  H  H26  1  0.24490769  0.86576961  0.68083583  1
  H  H27  1  0.75364452  0.19944530  0.67828702  1
  H  H28  1  0.75239049  0.53324343  0.67885494  1
  H  H29  1  0.75537642  0.86493124  0.68022427  1
  H  H30  1  0.24428286  0.13508594  0.18089809  1
  H  H31  1  0.25085542  0.46723204  0.17642874  1
  H  H32  1  0.25385439  0.80157112  0.18171680  1
  H  H33  1  0.74949562  0.13471918  0.17784287  1
  H  H34  1  0.74460075  0.46681513  0.18180315  1
  H  H35  1  0.74988641  0.80151122  0.18248125  1
  H  H36  1  0.24655500  0.19814798  0.82089286  1
  H  H37  1  0.25351420  0.53176961  0.82162703  1
  H  H38  1  0.24494698  0.86483696  0.81832068  1
  H  H39  1  0.75128404  0.19898306  0.82218754  1
  H  H40  1  0.74766572  0.53335830  0.82055965  1
  H  H41  1  0.75408006  0.86591366  0.81737806  1
  H  H42  1  0.25785235  0.13340447  0.32216638  1
  H  H43  1  0.25060980  0.46534611  0.31708286  1
  H  H44  1  0.24479475  0.80116934  0.31625291  1
  H  H45  1  0.75697461  0.13575002  0.31873197  1
  H  H46  1  0.75294944  0.46829985  0.32067675  1
  H  H47  1  0.74636890  0.80243187  0.31887633  1
  H  H48  1  0.13069966  0.05180708  0.62229860  1
  H  H49  1  0.11898347  0.38840661  0.59784177  1
  H  H50  1  0.11995447  0.72103128  0.60445253  1
  H  H51  1  0.62596440  0.05556708  0.61007664  1
  H  H52  1  0.62770889  0.38482381  0.62057191  1
  H  H53  1  0.62095866  0.72129537  0.60813219  1
  H  H54  1  0.37274131  0.28199107  0.11204538  1
  H  H55  1  0.37005796  0.61410759  0.11658746  1
  H  H56  1  0.37906439  0.94585018  0.11072908  1
  H  H57  1  0.87219861  0.28116592  0.11795382  1
  H  H58  1  0.87379884  0.61205601  0.11132418  1
  H  H59  1  0.88020862  0.94478259  0.10059733  1
  H  H60  1  0.37542220  0.05118602  0.89588347  1
  H  H61  1  0.37075830  0.38664400  0.88549160  1
  H  H62  1  0.37137607  0.71728415  0.88019592  1
  H  H63  1  0.87181928  0.05439131  0.88176079  1
  H  H64  1  0.87403548  0.38587800  0.88564219  1
  H  H65  1  0.87867329  0.71997615  0.89637500  1
  H  H66  1  0.12454409  0.27835304  0.39136012  1
  H  H67  1  0.12695055  0.61298325  0.38647602  1
  H  H68  1  0.11698914  0.94343756  0.40420750  1
  H  H69  1  0.62454269  0.27964959  0.38547585  1
  H  H70  1  0.63167039  0.61510162  0.37479924  1
  H  H71  1  0.62246354  0.94513583  0.39169140  1
  H  H72  1  0.37443616  0.21894393  0.61374829  1
  H  H73  1  0.36987848  0.55653263  0.60339635  1
  H  H74  1  0.37913311  0.88529560  0.61985046  1
  H  H75  1  0.87386337  0.22301987  0.60464474  1
  H  H76  1  0.86887125  0.55586842  0.60052685  1
  H  H77  1  0.87791718  0.88915364  0.60677184  1
  H  H78  1  0.12663282  0.11223709  0.10278603  1
  H  H79  1  0.12689786  0.44767407  0.10728484  1
  H  H80  1  0.12529528  0.77934742  0.11256799  1
  H  H81  1  0.62730282  0.11056202  0.10612544  1
  H  H82  1  0.63296208  0.44340900  0.10290518  1
  H  H83  1  0.62458783  0.78101824  0.11236909  1
  H  H84  1  0.12931263  0.22164433  0.89860245  1
  H  H85  1  0.12706065  0.55321008  0.89149659  1
  H  H86  1  0.12581949  0.88826706  0.89115351  1
  H  H87  1  0.62834255  0.22151419  0.89358216  1
  H  H88  1  0.63180377  0.55734135  0.89894213  1
  H  H89  1  0.62085467  0.88424587  0.87813818  1
  H  H90  1  0.36815357  0.10972336  0.40171578  1
  H  H91  1  0.37445460  0.44569789  0.38858151  1
  H  H92  1  0.37796621  0.78143070  0.38109662  1
  H  H93  1  0.86828406  0.11139366  0.40130493  1
  H  H94  1  0.87482226  0.44341282  0.39449298  1
  H  H95  1  0.87797281  0.78109697  0.38100334  1
  H  H96  1  0.37539310  0.27720805  0.39236214  1
  H  H97  1  0.38609350  0.60759878  0.40577148  1
  H  H98  1  0.37331443  0.94756383  0.38977018  1
  H  H99  1  0.87566792  0.27911923  0.39090069  1
  H  H100  1  0.87882558  0.61059808  0.39396475  1
  H  H101  1  0.87131305  0.94831964  0.37660976  1
  H  H102  1  0.11927596  0.05646469  0.90090024  1
  H  H103  1  0.12260211  0.38760999  0.89553716  1
  H  H104  1  0.12693702  0.71618744  0.87736275  1
  H  H105  1  0.62374653  0.05802545  0.88884084  1
  H  H106  1  0.61930354  0.38936388  0.89813426  1
  H  H107  1  0.61970442  0.72147134  0.89571300  1
  H  H108  1  0.11973733  0.27681584  0.09747746  1
  H  H109  1  0.12237087  0.61172498  0.10708416  1
  H  H110  1  0.12761690  0.94849742  0.11947622  1
  H  H111  1  0.62233028  0.27868878  0.11044306  1
  H  H112  1  0.61837457  0.60965433  0.09991406  1
  H  H113  1  0.62829847  0.94750379  0.11444441  1
  H  H114  1  0.37671105  0.05398432  0.60934456  1
  H  H115  1  0.37961204  0.38791048  0.60115606  1
  H  H116  1  0.37187198  0.71889730  0.62005853  1
  H  H117  1  0.88303612  0.05925440  0.59865025  1
  H  H118  1  0.87255621  0.38312639  0.62317812  1
  H  H119  1  0.87139706  0.71936139  0.61966447  1
  H  H120  1  0.12182152  0.11798682  0.37975891  1
  H  H121  1  0.12437689  0.44516384  0.38817456  1
  H  H122  1  0.12941874  0.77758122  0.39384169  1
  H  H123  1  0.62128772  0.11372725  0.37867357  1
  H  H124  1  0.62699117  0.44625277  0.39002817  1
  H  H125  1  0.62928613  0.77707334  0.39577706  1
  H  H126  1  0.37759408  0.21947457  0.88462911  1
  H  H127  1  0.37617326  0.55425807  0.89434398  1
  H  H128  1  0.37494883  0.88435640  0.88370479  1
  H  H129  1  0.87777622  0.22069432  0.89154108  1
  H  H130  1  0.88076467  0.55222358  0.88421527  1
  H  H131  1  0.86950630  0.88982518  0.89392964  1
  H  H132  1  0.37474576  0.11267365  0.11339631  1
  H  H133  1  0.37601912  0.44649749  0.10842969  1
  H  H134  1  0.37340532  0.77893987  0.10487038  1
  H  H135  1  0.87651928  0.11329708  0.10932099  1
  H  H136  1  0.88101470  0.45120832  0.12276868  1
  H  H137  1  0.87482981  0.77690955  0.11185123  1
  H  H138  1  0.12574339  0.22098575  0.60266208  1
  H  H139  1  0.12078917  0.55193641  0.61992233  1
  H  H140  1  0.13062267  0.89097182  0.60127532  1
  H  H141  1  0.62480844  0.22086413  0.61154182  1
  H  H142  1  0.62086512  0.55430649  0.61327723  1
  H  H143  1  0.62963653  0.88797497  0.61056275  1
  H  H144  1  0.42592581  0.91617372  0.00009246  1
  H  H145  1  0.66680474  0.24886002  0.50492553  1
  H  H146  1  0.94053490  0.74156975  1.00672131  1
  H  H147  1  0.82499962  0.91664791  0.50349489  1
  H  H148  1  0.30825085  0.58406669  0.50075130  1
  H  H149  1  0.58149523  0.07328359  0.99493367  1
  H  H150  1  0.56569084  0.74705223  0.49763370  1
  H  H151  1  0.84518815  0.74991939  0.49281188  1
  H  H152  1  0.10964439  0.08425418  0.50976234  1
  H  H153  1  0.91152330  0.41699779  0.99586781  1
  H  H154  1  0.83404052  0.08440915  0.00348431  1
  H  H155  1  0.95073245  0.08552885  0.49746968  1
  H  H156  1  0.17234490  0.41288910  0.49188800  1
  H  H157  1  0.55040435  0.58522631  -0.00257164  1
  H  H158  1  0.65755488  0.58070268  0.50594336  1
  H  H159  1  0.69657421  0.41645184  -0.00566256  1
  H  H160  1  0.42978001  0.24728296  0.49935682  1
  H  H161  1  0.19158012  0.75017892  0.50142233  1
  H  H162  1  0.57868194  0.25125476  -0.00004920  1
  H  H163  1  0.55481038  0.41380692  1.00155625  1
  H  H164  1  0.10018446  0.74427220  0.99096561  1
  H  H165  1  0.81095745  0.91607755  1.00309774  1
  H  H166  1  0.45994666  0.58303190  0.50599147  1
  H  H167  1  0.55936881  0.74745220  1.00613726  1
  H  H168  1  0.67273286  0.75917638  -0.00097410  1
  H  H169  1  0.82493996  0.75423078  0.00502735  1
  H  H170  1  0.82215377  0.41619640  0.49744935  1
  H  H171  1  0.59771934  0.41343582  0.51324542  1
  H  H172  1  0.69028926  0.75675415  0.50077943  1
  H  H173  1  0.40454152  0.74767258  0.50773184  1
  H  H174  1  0.04209546  0.91660064  0.50327766  1
  H  H175  1  0.32617854  0.41882841  0.49988531  1
  H  H176  1  0.69610904  0.58172263  1.00330529  1
  H  H177  1  0.15271411  0.58172912  0.50793804  1
  H  H178  1  0.44332268  0.41237585  0.49288157  1
  H  H179  1  0.94925035  0.92118973  -0.00149517  1
  H  H180  1  0.57670750  0.08288699  0.50110934  1
  H  H181  1  0.42852896  0.08941096  0.99371665  1
  H  H182  1  0.04709439  0.41253806  0.49256224  1
  H  H183  1  0.79694775  0.08686975  0.50213919  1
  H  H184  1  0.41117369  0.25352099  0.00108324  1
  H  H185  1  0.57138388  0.91701157  0.49669246  1
  H  H186  1  0.83298259  0.24973881  0.99655526  1
  H  H187  1  0.35067947  0.91557798  0.50753684  1
  H  H188  1  0.05695648  0.74603791  0.49703383  1
  H  H189  1  0.64675713  0.91351150  0.99155128  1
  H  H190  1  0.17743107  0.91660819  1.00146667  1
  H  H191  1  0.19436449  0.91958695  0.49955780  1
  Pb  Pb192  1  0.25447536  0.04703628  0.75361915  1
  Pb  Pb193  1  0.24514614  0.38039621  0.74193898  1
  Pb  Pb194  1  0.24671438  0.71252345  0.74478541  1
  Pb  Pb195  1  0.74613608  0.04923232  0.74787639  1
  Pb  Pb196  1  0.74887542  0.37869305  0.75235095  1
  Pb  Pb197  1  0.75215687  0.71449009  0.75304360  1
  Pb  Pb198  1  0.24919681  0.28728332  0.24950602  1
  Pb  Pb199  1  0.25484899  0.61721451  0.25811525  1
  Pb  Pb200  1  0.24913031  0.95448703  0.25720142  1
  Pb  Pb201  1  0.75316003  0.28528102  0.24981603  1
  Pb  Pb202  1  0.75152354  0.61834424  0.24562591  1
  Pb  Pb203  1  0.75164164  0.95331841  0.24872034  1
  Pb  Pb204  1  -0.00026045  0.21134110  0.75190437  1
  Pb  Pb205  1  -0.00195418  0.54410737  0.74859582  1
  Pb  Pb206  1  0.00201747  0.88425002  0.75089240  1
  Pb  Pb207  1  0.49663783  0.21505423  0.74962739  1
  Pb  Pb208  1  0.49912649  0.54733820  0.75265670  1
  Pb  Pb209  1  0.49987860  0.87858682  0.74594503  1
  Pb  Pb210  1  0.00017165  0.12137845  0.25316295  1
  Pb  Pb211  1  0.00387057  0.45248741  0.25366008  1
  Pb  Pb212  1  0.00427509  0.78431481  0.25009607  1
  Pb  Pb213  1  0.49950749  0.12039846  0.24655958  1
  Pb  Pb214  1  0.50304809  0.45044114  0.24911433  1
  Pb  Pb215  1  0.50102290  0.78642174  0.25099680  1
  C  C216  1  0.00254334  0.04736926  0.63245250  1
  C  C217  1  0.00037729  0.37914404  0.63378814  1
  C  C218  1  -0.00140156  0.71291752  0.63555898  1
  C  C219  1  0.50147300  0.04742735  0.63361291  1
  C  C220  1  0.50033683  0.38044955  0.63363143  1
  C  C221  1  0.49827387  0.71352080  0.63519569  1
  C  C222  1  -0.00047418  0.28628982  0.13080602  1
  C  C223  1  -0.00125634  0.61837983  0.12956634  1
  C  C224  1  0.00004536  0.95470339  0.13380395  1
  C  C225  1  0.49797306  0.28675009  0.13252227  1
  C  C226  1  0.49764686  0.61976575  0.13240590  1
  C  C227  1  0.50210094  0.95361325  0.13399637  1
  C  C228  1  -0.00121017  0.04752966  0.86841964  1
  C  C229  1  -0.00004456  0.37944239  0.86702186  1
  C  C230  1  -0.00023558  0.71240826  0.86577641  1
  C  C231  1  0.49886758  0.04715405  0.86934028  1
  C  C232  1  0.49779261  0.38042284  0.86755507  1
  C  C233  1  0.49891772  0.71320968  0.86661144  1
  C  C234  1  0.00015793  0.28498621  0.37052530  1
  C  C235  1  0.00139642  0.61967787  0.36478397  1
  C  C236  1  -0.00076310  0.95307548  0.36661127  1
  C  C237  1  0.49867564  0.28569181  0.36577112  1
  C  C238  1  0.50320364  0.61939698  0.36860370  1
  C  C239  1  0.49863620  0.95390265  0.36780613  1
  C  C240  1  0.24806977  0.21281110  0.63179527  1
  C  C241  1  0.24837681  0.54734170  0.63422512  1
  C  C242  1  0.25147216  0.88032562  0.63302926  1
  C  C243  1  0.75037174  0.21421375  0.63061453  1
  C  C244  1  0.74677597  0.54769894  0.63116341  1
  C  C245  1  0.75462442  0.88066635  0.63275224  1
  C  C246  1  0.24872408  0.12058144  0.13310676  1
  C  C247  1  0.25137155  0.45320825  0.12820393  1
  C  C248  1  0.25080175  0.78711592  0.13385008  1
  C  C249  1  0.75148748  0.11963289  0.13021935  1
  C  C250  1  0.75272605  0.45356942  0.13396700  1
  C  C251  1  0.75020024  0.78629953  0.13461846  1
  C  C252  1  0.25102728  0.21291525  0.86835710  1
  C  C253  1  0.25215575  0.54615283  0.86932985  1
  C  C254  1  0.24815998  0.87915055  0.86612652  1
  C  C255  1  0.75286703  0.21395680  0.86984983  1
  C  C256  1  0.75309958  0.54700880  0.86847507  1
  C  C257  1  0.74780642  0.87998046  0.86528073  1
  C  C258  1  0.24895711  0.12000429  0.36974863  1
  C  C259  1  0.24930406  0.45184304  0.36548316  1
  C  C260  1  0.25115507  0.78646394  0.36388735  1
  C  C261  1  0.74897278  0.12104913  0.36620265  1
  C  C262  1  0.75188626  0.45289219  0.36828754  1
  C  C263  1  0.75095642  0.78728098  0.36654437  1
  C  C264  1  0.71253610  0.09068626  0.03612604  1
  C  C265  1  0.06027359  0.07417170  0.54492223  1
  C  C266  1  0.52604134  0.73768079  0.96398054  1
  C  C267  1  0.29640792  0.90411252  0.95775775  1
  C  C268  1  0.81060562  0.43071097  0.04485146  1
  C  C269  1  0.95933184  0.26077402  0.46308818  1
  C  C270  1  0.21498772  0.90564202  0.96189190  1
  C  C271  1  0.04007016  0.26040560  0.46320277  1
  C  C272  1  0.56638833  0.59393199  0.45512038  1
  C  C273  1  0.29779365  0.24173392  0.95819633  1
  C  C274  1  0.28934888  0.42864931  0.45962313  1
  C  C275  1  0.22472067  0.76079741  0.45921247  1
  C  C276  1  0.53790731  0.07287770  0.54026220  1
  C  C277  1  0.95516744  0.59464919  0.03777615  1
  C  C278  1  0.53037771  0.73777356  0.53894373  1
  C  C279  1  0.01812860  0.40350000  0.53686025  1
  C  C280  1  0.46711738  0.25908311  0.45976011  1
  C  C281  1  0.94872235  0.07408010  0.95800099  1
  C  C282  1  0.70885323  0.76283787  0.04090309  1
  C  C283  1  0.47413517  0.40484108  0.53667838  1
  C  C284  1  0.72942546  0.42761252  0.03646786  1
  C  C285  1  0.44520464  0.73605889  0.95682595  1
  C  C286  1  0.28720002  0.57231232  0.96286305  1
  C  C287  1  0.29226013  0.42841899  0.03631883  1
  C  C288  1  0.46641780  0.92707565  0.03881760  1
  C  C289  1  0.02404239  0.73777252  0.53983464  1
  C  C290  1  0.19183516  0.09697030  0.45842560  1
  C  C291  1  0.95622406  0.40601829  0.95835922  1
  C  C292  1  0.78693868  0.24290871  0.53616737  1
  C  C293  1  0.71280909  0.24156485  0.96405441  1
  C  C294  1  0.80216937  0.75987762  0.45623224  1
  C  C295  1  0.54838375  0.92803265  0.04157332  1
  C  C296  1  0.21216306  0.42874156  0.03587569  1
  C  C297  1  0.19624089  0.57174239  0.54407475  1
  C  C298  1  0.05435263  0.73527160  0.95614230  1
  C  C299  1  0.03559045  0.59456549  0.03622541  1
  C  C300  1  0.53716958  0.26135078  0.03797615  1
  C  C301  1  0.77646778  0.90528414  0.96179743  1
  C  C302  1  0.69454630  0.90377317  0.95615893  1
  C  C303  1  0.30549389  0.90561271  0.54358752  1
  C  C304  1  0.44839984  0.73754807  0.54353442  1
  C  C305  1  0.80638946  0.57174343  0.95944705  1
  C  C306  1  0.45479798  0.26250805  0.03856342  1
  C  C307  1  0.97275807  0.73563665  0.96326242  1
  C  C308  1  0.45444620  0.92657415  0.46089407  1
  C  C309  1  0.27189128  0.09404181  0.46606087  1
  C  C310  1  0.21869352  0.23937348  0.53698851  1
  C  C311  1  0.02217623  0.25708273  0.03570521  1
  N  N312  1  0.93818311  0.92990702  0.45412175  1
  N  N313  1  0.52428819  0.40664521  0.96107634  1
  N  N314  1  0.79186629  0.09239309  0.03836827  1
  N  N315  1  0.55302752  0.40494803  0.54500159  1
  N  N316  1  0.97786143  0.92674690  0.04014307  1
  N  N317  1  0.46340316  0.06422864  0.96446154  1
  N  N318  1  0.52137416  0.59542139  0.03795681  1
  N  N319  1  0.78817280  0.75906818  0.04252337  1
  N  N320  1  0.78837398  0.90596889  0.54028613  1
  N  N321  1  0.79209140  0.24083631  0.96193077  1
  N  N322  1  0.21796710  0.09357246  0.03785480  1
  N  N323  1  0.94506202  0.73796366  0.54489893  1
  N  N324  1  0.94495936  0.25890041  0.04105668  1
  N  N325  1  0.76924656  0.09312297  0.46015397  1
  N  N326  1  0.44656446  0.40538555  0.95799593  1
  N  N327  1  0.22616885  0.90681125  0.53811969  1
  N  N328  1  0.70090648  0.57210351  0.54129404  1
  N  N329  1  0.72256584  0.75820669  0.46034286  1
  N  N330  1  0.28358634  0.76182146  0.03844446  1
  N  N331  1  0.30376862  0.76232811  0.45492588  1
  N  N332  1  0.22043241  0.24282897  0.96389570  1
  N  N333  1  0.69159712  0.09457215  0.45408984  1
  N  N334  1  0.70984869  0.90581253  0.54000749  1
  N  N335  1  0.27561560  0.57203769  0.53916038  1
  N  N336  1  0.77884184  0.57287304  0.53546823  1
  N  N337  1  0.78509999  0.42653711  0.46065248  1
  N  N338  1  0.70643852  0.42780449  0.46090093  1
  N  N339  1  0.29619266  0.23911417  0.53937235  1
  N  N340  1  0.54667759  0.26060035  0.45841379  1
  N  N341  1  0.53371359  0.92593459  0.46044680  1
  N  N342  1  0.01570815  0.92830597  0.46190576  1
  N  N343  1  0.48815798  0.59163463  0.46453728  1
  N  N344  1  0.20768793  0.76209733  0.04085240  1
  N  N345  1  0.02599315  0.07496202  0.96544220  1
  N  N346  1  0.20972478  0.43019613  0.45887006  1
  N  N347  1  0.20993265  0.57250678  0.96308854  1
  N  N348  1  0.98115758  0.07622143  0.53784607  1
  N  N349  1  0.54135421  0.07828310  0.95868904  1
  N  N350  1  0.44375247  0.59660763  0.04229410  1
  N  N351  1  0.93957137  0.40244277  0.54526724  1
  N  N352  1  0.72757102  0.57289855  0.96343115  1
  N  N353  1  0.45861578  0.07254717  0.53964102  1
  N  N354  1  0.05564219  0.92896926  0.04504835  1
  N  N355  1  0.70783154  0.24105965  0.53945936  1
  N  N356  1  0.04538553  0.59515604  0.45785623  1
  N  N357  1  0.96910800  0.59393326  0.46017800  1
  N  N358  1  0.03540332  0.40660113  0.96233227  1
  N  N359  1  0.29442689  0.09400561  0.04130610  1
  N  N360  1  0.07330686  0.05680186  0.60383876  1
  N  N361  1  0.05695326  0.38959988  0.59083050  1
  N  N362  1  0.05831130  0.72330946  0.59526128  1
  N  N363  1  0.56586168  0.05761222  0.59773375  1
  N  N364  1  0.56888453  0.39076460  0.60482384  1
  N  N365  1  0.56004604  0.72281659  0.59652810  1
  N  N366  1  0.43225909  0.27820482  0.09779076  1
  N  N367  1  0.42931014  0.61149522  0.10133506  1
  N  N368  1  0.43909378  0.94322362  0.09746770  1
  N  N369  1  0.93086111  0.27733526  0.10171189  1
  N  N370  1  0.93209723  0.60898988  0.09493998  1
  N  N371  1  0.94225956  0.94451842  0.09311146  1
  N  N372  1  0.43633388  0.05694217  0.90579689  1
  N  N373  1  0.43050752  0.39019053  0.89945491  1
  N  N374  1  0.42930723  0.72155904  0.89816606  1
  N  N375  1  0.92962941  0.05762484  0.89909699  1
  N  N376  1  0.93316629  0.38952124  0.90004480  1
  N  N377  1  0.93992345  0.72173895  0.90632581  1
  N  N378  1  0.06524954  0.27489107  0.40665092  1
  N  N379  1  0.06681635  0.61129149  0.39864097  1
  N  N380  1  0.05447051  0.94242159  0.40918529  1
  N  N381  1  0.56436212  0.27703299  0.39911148  1
  N  N382  1  0.57577113  0.61038536  0.39549226  1
  N  N383  1  0.56161555  0.94313178  0.40313683  1
  N  N384  1  0.31457587  0.22213156  0.59987642  1
  N  N385  1  0.30783904  0.55731226  0.59487636  1
  N  N386  1  0.32126621  0.88898613  0.60252425  1
  N  N387  1  0.81346582  0.22628937  0.59246145  1
  N  N388  1  0.80713897  0.55805648  0.59187300  1
  N  N389  1  0.81701273  0.89115912  0.59632892  1
  N  N390  1  0.18825221  0.11021037  0.09446660  1
  N  N391  1  0.18621676  0.44375026  0.09188336  1
  N  N392  1  0.18564594  0.77761992  0.10009639  1
  N  N393  1  0.68752960  0.10767259  0.09311315  1
  N  N394  1  0.69453508  0.44215925  0.09315360  1
  N  N395  1  0.68464732  0.77807386  0.09851078  1
  N  N396  1  0.19115508  0.22417865  0.90674892  1
  N  N397  1  0.18776376  0.55577049  0.90375566  1
  N  N398  1  0.18599787  0.88992928  0.90361167  1
  N  N399  1  0.68840999  0.22500679  0.90694124  1
  N  N400  1  0.69356243  0.55657512  0.90789662  1
  N  N401  1  0.67873968  0.88810359  0.89585389  1
  N  N402  1  0.30695985  0.10805635  0.41175797  1
  N  N403  1  0.31429976  0.44336185  0.40207659  1
  N  N404  1  0.31847895  0.77800997  0.39529309  1
  N  N405  1  0.80574779  0.11169295  0.40795651  1
  N  N406  1  0.81389647  0.44244355  0.40496983  1
  N  N407  1  0.81981681  0.77643630  0.39770904  1
  N  N408  1  0.43642901  0.27456278  0.40343997  1
  N  N409  1  0.44849571  0.60896645  0.41152184  1
  N  N410  1  0.43256800  0.94363723  0.40345328  1
  N  N411  1  0.93478464  0.27554571  0.40644675  1
  N  N412  1  0.94046533  0.60888543  0.40285923  1
  N  N413  1  0.92879956  0.94489869  0.39451198  1
  N  N414  1  0.05730846  0.05808504  0.90827363  1
  N  N415  1  0.06097306  0.38993340  0.90495894  1
  N  N416  1  0.06947859  0.72109992  0.89559121  1
  N  N417  1  0.56402394  0.05640640  0.90327888  1
  N  N418  1  0.55749216  0.39028713  0.90676709  1
  N  N419  1  0.55891586  0.72335536  0.90640871  1
  N  N420  1  0.05810562  0.27400035  0.08929274  1
  N  N421  1  0.06277640  0.60882764  0.09216209  1
  N  N422  1  0.06868645  0.94461717  0.10399120  1
  N  N423  1  0.56231791  0.27631764  0.09686502  1
  N  N424  1  0.55615911  0.60969259  0.09226145  1
  N  N425  1  0.56915844  0.94393001  0.09944162  1
  N  N426  1  0.43781166  0.05687568  0.59801473  1
  N  N427  1  0.44091361  0.39015753  0.59196592  1
  N  N428  1  0.43002410  0.72258785  0.60343458  1
  N  N429  1  0.94537016  0.05791269  0.59130516  1
  N  N430  1  0.93057439  0.38719735  0.60570483  1
  N  N431  1  0.93083264  0.72227203  0.60495971  1
  N  N432  1  0.17804156  0.11261528  0.39916935  1
  N  N433  1  0.18515223  0.44221050  0.40011557  1
  N  N434  1  0.19095971  0.77546221  0.40365745  1
  N  N435  1  0.67974844  0.11008822  0.39489004  1
  N  N436  1  0.68695476  0.44341657  0.40282996  1
  N  N437  1  0.69109088  0.77807042  0.40563857  1
  N  N438  1  0.31912469  0.22370127  0.90034737  1
  N  N439  1  0.31612966  0.55665958  0.90631974  1
  N  N440  1  0.31602132  0.88817652  0.89989381  1
  N  N441  1  0.81729082  0.22369258  0.90398097  1
  N  N442  1  0.82227483  0.55615789  0.90057181  1
  N  N443  1  0.80828715  0.89048960  0.90485711  1
  N  N444  1  0.31464858  0.11060739  0.10048468  1
  N  N445  1  0.31723183  0.44310983  0.09276291  1
  N  N446  1  0.31205743  0.77742193  0.09577910  1
  N  N447  1  0.81627198  0.11047856  0.09624508  1
  N  N448  1  0.82378347  0.44625956  0.10389936  1
  N  N449  1  0.81385659  0.77548343  0.09973256  1
  N  N450  1  0.18671539  0.22378839  0.59243759  1
  N  N451  1  0.17904060  0.55609413  0.60300943  1
  N  N452  1  0.19276739  0.89115709  0.59319821  1
  N  N453  1  0.68462595  0.22288775  0.59755395  1
  N  N454  1  0.68019291  0.55683880  0.59920213  1
  N  N455  1  0.68992339  0.89036053  0.59796996  1
  Cl  Cl456  1  0.25431183  0.04885238  0.62015180  1
  Cl  Cl457  1  0.24699440  0.39019233  0.60369884  1
  Cl  Cl458  1  0.24238499  0.71977277  0.60976347  1
  Cl  Cl459  1  0.75998482  0.05885563  0.60621353  1
  Cl  Cl460  1  0.74917748  0.38414284  0.61697742  1
  Cl  Cl461  1  0.74400869  0.72452516  0.61242910  1
  Cl  Cl462  1  0.24527314  0.28364350  0.11903389  1
  Cl  Cl463  1  0.24753273  0.61384917  0.12756724  1
  Cl  Cl464  1  0.25161223  0.94758425  0.12518177  1
  Cl  Cl465  1  0.74767188  0.27826540  0.11614419  1
  Cl  Cl466  1  0.73830486  0.60969561  0.10553977  1
  Cl  Cl467  1  0.75787399  0.94747589  0.11384470  1
  Cl  Cl468  1  0.25088145  0.05113963  0.88485027  1
  Cl  Cl469  1  0.24775329  0.38377097  0.87426011  1
  Cl  Cl470  1  0.25016275  0.71498746  0.87227847  1
  Cl  Cl471  1  0.74649647  0.05824513  0.88310448  1
  Cl  Cl472  1  0.74178135  0.38624654  0.88674951  1
  Cl  Cl473  1  0.75148333  0.72112249  0.89050592  1
  Cl  Cl474  1  0.25121511  0.28336235  0.38217915  1
  Cl  Cl475  1  0.26039086  0.60709942  0.39937826  1
  Cl  Cl476  1  0.24015955  0.94315571  0.39771393  1
  Cl  Cl477  1  0.74861981  0.27873267  0.38489362  1
  Cl  Cl478  1  0.75634412  0.61458837  0.37868248  1
  Cl  Cl479  1  0.74652333  0.94569486  0.38423835  1
  Cl  Cl480  1  -0.00025279  0.21662776  0.61962051  1
  Cl  Cl481  1  -0.00691274  0.55062138  0.61747218  1
  Cl  Cl482  1  0.00695677  0.89222253  0.60504351  1
  Cl  Cl483  1  0.50008008  0.22106040  0.61667375  1
  Cl  Cl484  1  0.49295543  0.55605804  0.60638737  1
  Cl  Cl485  1  0.50694957  0.88957419  0.61026893  1
  Cl  Cl486  1  0.00030120  0.11513715  0.12124281  1
  Cl  Cl487  1  0.00435156  0.44976502  0.12407504  1
  Cl  Cl488  1  -0.00189044  0.77889334  0.11416067  1
  Cl  Cl489  1  0.50139258  0.10868336  0.10867230  1
  Cl  Cl490  1  0.50945260  0.44444155  0.11304178  1
  Cl  Cl491  1  0.50014338  0.77970643  0.11782382  1
  Cl  Cl492  1  0.00206719  0.21897664  0.88546263  1
  Cl  Cl493  1  0.00383019  0.55230284  0.88000424  1
  Cl  Cl494  1  -0.00690173  0.89229492  0.88670912  1
  Cl  Cl495  1  0.50416103  0.21824137  0.88384671  1
  Cl  Cl496  1  0.50938243  0.55723279  0.89129560  1
  Cl  Cl497  1  0.49702108  0.88509511  0.87720095  1
  Cl  Cl498  1  -0.01303950  0.10902779  0.39394812  1
  Cl  Cl499  1  0.00010459  0.44230991  0.39001587  1
  Cl  Cl500  1  0.00683326  0.78159191  0.38416996  1
  Cl  Cl501  1  0.49621173  0.11251090  0.37846364  1
  Cl  Cl502  1  0.50007462  0.44655367  0.38828019  1
  Cl  Cl503  1  0.50652817  0.78009697  0.38662539  1
  Cl  Cl504  1  0.36383788  0.14376748  0.74982476  1
  Cl  Cl505  1  0.36443959  0.47727261  0.74860982  1
  Cl  Cl506  1  0.36359027  0.81053209  0.74682660  1
  Cl  Cl507  1  0.86223482  0.14387190  0.75027729  1
  Cl  Cl508  1  0.86028440  0.47885109  0.74965708  1
  Cl  Cl509  1  0.85895106  0.80929321  0.74758087  1
  Cl  Cl510  1  0.13688649  0.18783053  0.25543263  1
  Cl  Cl511  1  0.13852563  0.52167374  0.25451685  1
  Cl  Cl512  1  0.13763529  0.85642560  0.24866571  1
  Cl  Cl513  1  0.63575070  0.18802972  0.25023175  1
  Cl  Cl514  1  0.63838180  0.52289884  0.25451310  1
  Cl  Cl515  1  0.63853273  0.85506392  0.24760106  1
  Cl  Cl516  1  0.13688757  0.14389596  0.74949913  1
  Cl  Cl517  1  0.13951654  0.47770419  0.74679910  1
  Cl  Cl518  1  0.13792433  0.81137917  0.74842463  1
  Cl  Cl519  1  0.64133063  0.14287104  0.74992618  1
  Cl  Cl520  1  0.63525384  0.47871847  0.74612933  1
  Cl  Cl521  1  0.63765394  0.81209895  0.74895538  1
  Cl  Cl522  1  0.36412781  0.18973647  0.24808992  1
  Cl  Cl523  1  0.36095978  0.52348984  0.25116661  1
  Cl  Cl524  1  0.36328693  0.85599139  0.25548117  1
  Cl  Cl525  1  0.85811650  0.18933086  0.24857220  1
  Cl  Cl526  1  0.86021836  0.52347036  0.24743532  1
  Cl  Cl527  1  0.86084987  0.85628921  0.25361234  1
  Cl  Cl528  1  0.11018645  0.31263199  0.74957900  1
  Cl  Cl529  1  0.11173785  0.64420308  0.74958996  1
  Cl  Cl530  1  0.10944158  0.97552830  0.74609308  1
  Cl  Cl531  1  0.61454232  0.31102313  0.74729876  1
  Cl  Cl532  1  0.61082562  0.64431801  0.74825097  1
  Cl  Cl533  1  0.61302974  0.97865760  0.75152665  1
  Cl  Cl534  1  0.38773370  0.02122371  0.25074429  1
  Cl  Cl535  1  0.38816330  0.35736567  0.25108922  1
  Cl  Cl536  1  0.39037574  0.68834756  0.25296031  1
  Cl  Cl537  1  0.88622451  0.02206250  0.25369157  1
  Cl  Cl538  1  0.88582379  0.35531261  0.24920901  1
  Cl  Cl539  1  0.88627845  0.69000164  0.24573756  1
  Cl  Cl540  1  0.39434706  0.31125481  0.74940360  1
  Cl  Cl541  1  0.38777354  0.64378358  0.74686136  1
  Cl  Cl542  1  0.38847723  0.97765266  0.75005393  1
  Cl  Cl543  1  0.88530019  0.31074485  0.74936550  1
  Cl  Cl544  1  0.88568126  0.64455177  0.74832712  1
  Cl  Cl545  1  0.88866480  0.97553437  0.74968393  1
  Cl  Cl546  1  0.10932923  0.02130522  0.25055604  1
  Cl  Cl547  1  0.11146474  0.35575857  0.25440963  1
  Cl  Cl548  1  0.11015678  0.69040899  0.25100385  1
  Cl  Cl549  1  0.61344441  0.02178799  0.24933105  1
  Cl  Cl550  1  0.60941561  0.35712034  0.25233926  1
  Cl  Cl551  1  0.61377634  0.68955721  0.25305319  1
