# generated using pymatgen
data_H8PbC4(N3Cl2)2
_symmetry_space_group_name_H-M   'P 1'
_cell_length_a   16.62249060
_cell_length_b   22.50294259
_cell_length_c   21.58865675
_cell_angle_alpha   89.99930750
_cell_angle_beta   90.00527953
_cell_angle_gamma   90.00168226
_symmetry_Int_Tables_number   1
_chemical_formula_structural   H8PbC4(N3Cl2)2
_chemical_formula_sum   'H192 Pb24 C96 N144 Cl96'
_cell_volume   8075.34391867
_cell_formula_units_Z   24
loop_
 _symmetry_equiv_pos_site_id
 _symmetry_equiv_pos_as_xyz
  1  'x, y, z'
loop_
 _atom_site_type_symbol
 _atom_site_label
 _atom_site_symmetry_multiplicity
 _atom_site_fract_x
 _atom_site_fract_y
 _atom_site_fract_z
 _atom_site_occupancy
  H  H0  1  0.00001628  0.03087818  0.67939000  1
  H  H1  1  0.00197889  0.36573788  0.67666864  1
  H  H2  1  -0.00556829  0.69897678  0.67843971  1
  H  H3  1  0.49769684  0.03164543  0.67824660  1
  H  H4  1  0.50179373  0.36604721  0.67831884  1
  H  H5  1  0.50213799  0.69717542  0.68207328  1
  H  H6  1  0.00306596  0.30021626  0.18132017  1
  H  H7  1  -0.00013140  0.63321603  0.17756099  1
  H  H8  1  0.00555990  0.96753552  0.18068175  1
  H  H9  1  0.49837927  0.30246234  0.18046237  1
  H  H10  1  0.50345711  0.63515479  0.17688327  1
  H  H11  1  0.49260011  0.96669703  0.17894940  1
  H  H12  1  -0.00091096  0.03344843  0.81918140  1
  H  H13  1  -0.00182949  0.36503835  0.81896444  1
  H  H14  1  -0.00686743  0.69832772  0.81814179  1
  H  H15  1  0.49159311  0.03245519  0.81724852  1
  H  H16  1  0.50151618  0.36679767  0.81980995  1
  H  H17  1  0.50070412  0.69749471  0.82057299  1
  H  H18  1  0.00948118  0.30311692  0.32086147  1
  H  H19  1  -0.00532206  0.63409981  0.31811876  1
  H  H20  1  -0.00996476  0.96902759  0.31893105  1
  H  H21  1  0.49106017  0.30109912  0.31893423  1
  H  H22  1  0.50283909  0.63594858  0.31801615  1
  H  H23  1  0.51070798  0.96714699  0.32104724  1
  H  H24  1  0.25061613  0.19557878  0.68117305  1
  H  H25  1  0.24375165  0.53194183  0.67783479  1
  H  H26  1  0.24237773  0.86578779  0.67600683  1
  H  H27  1  0.75509492  0.19831783  0.67885000  1
  H  H28  1  0.75550645  0.53237767  0.68139660  1
  H  H29  1  0.75250583  0.86316015  0.68126661  1
  H  H30  1  0.25466835  0.13622880  0.17911946  1
  H  H31  1  0.25803398  0.46926122  0.17958111  1
  H  H32  1  0.24584958  0.79966853  0.18105186  1
  H  H33  1  0.74421426  0.13563853  0.18231062  1
  H  H34  1  0.74218550  0.46988157  0.18236373  1
  H  H35  1  0.75815444  0.79927000  0.17917773  1
  H  H36  1  0.24481485  0.19880598  0.81824246  1
  H  H37  1  0.24225532  0.53176871  0.82295604  1
  H  H38  1  0.24412861  0.85774936  0.82149978  1
  H  H39  1  0.75528819  0.19931331  0.82020558  1
  H  H40  1  0.75180989  0.53136813  0.81992851  1
  H  H41  1  0.75973327  0.86578890  0.81962827  1
  H  H42  1  0.24368408  0.13399586  0.31892919  1
  H  H43  1  0.25186237  0.46646157  0.32401377  1
  H  H44  1  0.25253048  0.80231751  0.32269900  1
  H  H45  1  0.75630818  0.13552478  0.32309133  1
  H  H46  1  0.74214425  0.46754306  0.31925597  1
  H  H47  1  0.75320175  0.80036113  0.31924784  1
  H  H48  1  0.12623754  0.05300685  0.60970795  1
  H  H49  1  0.12095454  0.39069334  0.60238888  1
  H  H50  1  0.12867541  0.71869071  0.61830487  1
  H  H51  1  0.62649627  0.05443373  0.61257455  1
  H  H52  1  0.61844926  0.39023289  0.60122335  1
  H  H53  1  0.62632481  0.72030229  0.60928237  1
  H  H54  1  0.37489503  0.27990968  0.10804290  1
  H  H55  1  0.37215373  0.61343857  0.11297266  1
  H  H56  1  0.38296511  0.93893443  0.09753592  1
  H  H57  1  0.87107778  0.28088224  0.11770984  1
  H  H58  1  0.87513028  0.61402330  0.10913380  1
  H  H59  1  0.87685810  0.94777698  0.11431939  1
  H  H60  1  0.38023433  0.05743449  0.89795347  1
  H  H61  1  0.37010487  0.38582306  0.88390866  1
  H  H62  1  0.38235545  0.72173553  0.89550574  1
  H  H63  1  0.87755774  0.05617533  0.89355140  1
  H  H64  1  0.87472306  0.38649275  0.88956842  1
  H  H65  1  0.88416560  0.72092015  0.89918008  1
  H  H66  1  0.11984899  0.27687726  0.40400750  1
  H  H67  1  0.12802113  0.61229163  0.38214257  1
  H  H68  1  0.12482036  0.94713127  0.38072065  1
  H  H69  1  0.62694635  0.28147386  0.37517294  1
  H  H70  1  0.62484789  0.61265758  0.39335710  1
  H  H71  1  0.61367773  0.94252411  0.40589411  1
  H  H72  1  0.37476722  0.21918139  0.61175359  1
  H  H73  1  0.37481994  0.55134538  0.61298185  1
  H  H74  1  0.37863847  0.88615736  0.61819941  1
  H  H75  1  0.87110222  0.22284427  0.60020182  1
  H  H76  1  0.87106708  0.55610345  0.60248047  1
  H  H77  1  0.87659448  0.88604037  0.61099494  1
  H  H78  1  0.12165822  0.11678091  0.11635969  1
  H  H79  1  0.12643407  0.44906780  0.11434000  1
  H  H80  1  0.12072639  0.77861111  0.11327176  1
  H  H81  1  0.62491881  0.11159291  0.10764465  1
  H  H82  1  0.62905932  0.44541792  0.10330290  1
  H  H83  1  0.61708955  0.78309240  0.12716187  1
  H  H84  1  0.12922443  0.22198470  0.89461499  1
  H  H85  1  0.12973445  0.55849347  0.90220264  1
  H  H86  1  0.12245706  0.88753108  0.89248340  1
  H  H87  1  0.62506380  0.22076457  0.88715395  1
  H  H88  1  0.62747183  0.55413788  0.89294838  1
  H  H89  1  0.62132045  0.88493920  0.87734210  1
  H  H90  1  0.37492373  0.11188769  0.38466569  1
  H  H91  1  0.37691911  0.44508885  0.39162135  1
  H  H92  1  0.37070718  0.78104728  0.39904311  1
  H  H93  1  0.87101489  0.11068762  0.40087370  1
  H  H94  1  0.87970889  0.44804565  0.37793071  1
  H  H95  1  0.87516087  0.77906393  0.39208269  1
  H  H96  1  0.37985076  0.27905426  0.39924513  1
  H  H97  1  0.37645183  0.61161785  0.38855173  1
  H  H98  1  0.36869444  0.95027400  0.37086405  1
  H  H99  1  0.87328850  0.28074938  0.37897065  1
  H  H100  1  0.87973924  0.61311575  0.39755968  1
  H  H101  1  0.87674456  0.94477411  0.39897004  1
  H  H102  1  0.12557704  0.05468268  0.88875464  1
  H  H103  1  0.12416921  0.38688143  0.88649978  1
  H  H104  1  0.13140183  0.71550819  0.87478918  1
  H  H105  1  0.62757628  0.05212857  0.87770409  1
  H  H106  1  0.61911915  0.38791574  0.89435231  1
  H  H107  1  0.63176209  0.71930052  0.88593811  1
  H  H108  1  0.11986823  0.27976761  0.10601310  1
  H  H109  1  0.12396291  0.61377516  0.10842345  1
  H  H110  1  0.12442820  0.94300639  0.10598896  1
  H  H111  1  0.62377614  0.27946000  0.11122544  1
  H  H112  1  0.62074441  0.60947373  0.10227499  1
  H  H113  1  0.62921882  0.94916592  0.11967156  1
  H  H114  1  0.37725888  0.05465415  0.60387872  1
  H  H115  1  0.36941421  0.38751534  0.61450554  1
  H  H116  1  0.37784911  0.72085730  0.60940370  1
  H  H117  1  0.87713937  0.05631701  0.60816528  1
  H  H118  1  0.87215002  0.38619693  0.61031958  1
  H  H119  1  0.88184505  0.72429129  0.59769725  1
  H  H120  1  0.12708377  0.10997356  0.39800224  1
  H  H121  1  0.12835635  0.44602118  0.39324358  1
  H  H122  1  0.12270826  0.77757248  0.38651477  1
  H  H123  1  0.62303578  0.11297153  0.38444243  1
  H  H124  1  0.63254920  0.44166318  0.40060780  1
  H  H125  1  0.62595539  0.78075082  0.38554103  1
  H  H126  1  0.37768935  0.21945137  0.87856676  1
  H  H127  1  0.37709647  0.55078147  0.88412995  1
  H  H128  1  0.37082828  0.88650585  0.88691117  1
  H  H129  1  0.87341615  0.22272518  0.89677610  1
  H  H130  1  0.87629056  0.55591176  0.89207744  1
  H  H131  1  0.86757058  0.89097879  0.90268027  1
  H  H132  1  0.36924140  0.10914484  0.10185150  1
  H  H133  1  0.37513045  0.44379165  0.10341047  1
  H  H134  1  0.36990869  0.77938418  0.11022644  1
  H  H135  1  0.87360199  0.11486302  0.11496753  1
  H  H136  1  0.87723406  0.44933131  0.11997018  1
  H  H137  1  0.86281480  0.77503808  0.09533582  1
  H  H138  1  0.12496309  0.22152236  0.61138118  1
  H  H139  1  0.12614026  0.55442497  0.60115290  1
  H  H140  1  0.13227027  0.89372858  0.59610018  1
  H  H141  1  0.62301791  0.21997046  0.61560303  1
  H  H142  1  0.62193520  0.55078347  0.61962822  1
  H  H143  1  0.62667591  0.88898620  0.61212962  1
  H  H144  1  0.31015004  0.73955513  0.49550592  1
  H  H145  1  0.43702395  0.74981611  1.00409334  1
  H  H146  1  0.56328681  0.41591945  1.00547766  1
  H  H147  1  0.91942761  0.41614998  0.99941420  1
  H  H148  1  0.82805531  0.91174665  0.49919833  1
  H  H149  1  0.18752702  0.24945669  1.00400709  1
  H  H150  1  0.44381939  0.25362894  0.50724418  1
  H  H151  1  0.06399512  0.93908100  0.00013304  1
  H  H152  1  0.18760338  0.89663024  0.99774715  1
  H  H153  1  0.34937867  0.24987005  0.99058296  1
  H  H154  1  0.45478962  0.92630936  -0.00486104  1
  H  H155  1  0.95078071  0.74514057  1.00735730  1
  H  H156  1  0.06280190  0.25416156  -0.00558674  1
  H  H157  1  0.33593154  0.57873780  0.50550309  1
  H  H158  1  0.65281272  0.58182891  0.50779299  1
  H  H159  1  0.40977562  0.58250362  0.00664504  1
  H  H160  1  0.30314915  0.09760603  -0.00223741  1
  H  H161  1  0.68033545  0.08452683  -0.00023959  1
  H  H162  1  0.92481040  0.90390852  0.01579203  1
  H  H163  1  0.15583715  0.08000820  0.01312170  1
  H  H164  1  0.44810559  0.08489537  1.00349731  1
  H  H165  1  0.32695955  0.24693190  0.50020722  1
  H  H166  1  0.66559512  0.75069664  0.49806555  1
  H  H167  1  0.60176989  0.91626969  0.01296476  1
  H  H168  1  0.59901507  0.74777887  0.99364976  1
  H  H169  1  0.80873217  0.58543740  0.50052387  1
  H  H170  1  0.79566667  0.91584441  1.00792346  1
  H  H171  1  0.79073470  0.74614898  -0.00931910  1
  H  H172  1  0.31564728  0.89645921  0.99428132  1
  H  H173  1  0.69486800  0.41942670  -0.00387925  1
  H  H174  1  0.91230107  0.41549038  0.50364079  1
  H  H175  1  0.04480435  0.25123288  0.50427648  1
  H  H176  1  0.93254551  0.08572310  0.99631281  1
  H  H177  1  0.43162795  0.08287869  0.50020404  1
  H  H178  1  0.15881514  0.75511946  0.49486434  1
  H  H179  1  0.35455441  0.91687601  0.50770847  1
  H  H180  1  0.17508972  0.24185040  0.50384453  1
  H  H181  1  0.08439220  0.41634103  0.99721239  1
  H  H182  1  0.67496548  0.90872694  0.50431596  1
  H  H183  1  0.55556025  0.41691949  0.49694536  1
  H  H184  1  0.65569487  0.08539285  0.49249981  1
  H  H185  1  0.94381582  0.58789290  0.50500033  1
  H  H186  1  0.15925673  0.74686489  0.00173875  1
  H  H187  1  0.94342793  0.91799207  0.50533697  1
  H  H188  1  0.70207921  0.41353626  0.50542095  1
  H  H189  1  0.53898331  0.91497347  0.51060515  1
  H  H190  1  0.66731739  0.24860377  0.99294603  1
  H  H191  1  0.60617635  0.25372414  0.48985388  1
  Pb  Pb192  1  0.25091656  0.04803285  0.75472427  1
  Pb  Pb193  1  0.25137735  0.37963772  0.74889770  1
  Pb  Pb194  1  0.25323895  0.71224261  0.74495450  1
  Pb  Pb195  1  0.75540628  0.04757206  0.74775350  1
  Pb  Pb196  1  0.74958386  0.37855942  0.74808169  1
  Pb  Pb197  1  0.75078409  0.71267680  0.74750604  1
  Pb  Pb198  1  0.24731752  0.28633432  0.25371695  1
  Pb  Pb199  1  0.25314404  0.61915907  0.25279942  1
  Pb  Pb200  1  0.24664305  0.95237842  0.24074129  1
  Pb  Pb201  1  0.74981862  0.28746857  0.24608284  1
  Pb  Pb202  1  0.74663304  0.62039578  0.25541103  1
  Pb  Pb203  1  0.75368854  0.95147529  0.25864644  1
  Pb  Pb204  1  0.00204721  0.21544399  0.74746975  1
  Pb  Pb205  1  0.00128737  0.54582468  0.74760225  1
  Pb  Pb206  1  0.00193881  0.87894022  0.75298227  1
  Pb  Pb207  1  0.50260611  0.21308103  0.74847795  1
  Pb  Pb208  1  0.50045828  0.54436338  0.75493986  1
  Pb  Pb209  1  0.50079565  0.88151586  0.75394515  1
  Pb  Pb210  1  -0.00123024  0.12129648  0.25100396  1
  Pb  Pb211  1  0.00044655  0.45514480  0.25118394  1
  Pb  Pb212  1  -0.00060790  0.78179903  0.24655443  1
  Pb  Pb213  1  0.50013454  0.11914477  0.24827580  1
  Pb  Pb214  1  0.50065266  0.45236271  0.25245071  1
  Pb  Pb215  1  0.49715993  0.78822780  0.25138528  1
  C  C216  1  0.00132063  0.04671844  0.63219266  1
  C  C217  1  -0.00217192  0.38054049  0.62905823  1
  C  C218  1  0.00163094  0.71388496  0.63115789  1
  C  C219  1  0.50011045  0.04696538  0.63066916  1
  C  C220  1  0.49678580  0.38064655  0.63070012  1
  C  C221  1  0.50200048  0.71236774  0.63443320  1
  C  C222  1  -0.00178710  0.28681897  0.13328619  1
  C  C223  1  -0.00040404  0.61997987  0.12915071  1
  C  C224  1  0.00238006  0.95310174  0.13271647  1
  C  C225  1  0.49870337  0.28744283  0.13295337  1
  C  C226  1  0.49835875  0.61947500  0.12959287  1
  C  C227  1  0.50162468  0.95283512  0.13111875  1
  C  C228  1  0.00062791  0.04804128  0.86708481  1
  C  C229  1  -0.00102506  0.37972289  0.86690951  1
  C  C230  1  0.00266603  0.71186995  0.86577203  1
  C  C231  1  0.50009670  0.04685854  0.86475087  1
  C  C232  1  0.49713796  0.38033588  0.86781536  1
  C  C233  1  0.50546342  0.71293788  0.86819319  1
  C  C234  1  0.00126549  0.28779319  0.36805471  1
  C  C235  1  0.00107922  0.61983704  0.36589011  1
  C  C236  1  -0.00277757  0.95413042  0.36642693  1
  C  C237  1  0.49970789  0.28667506  0.36650449  1
  C  C238  1  0.50147567  0.62068796  0.36564234  1
  C  C239  1  0.49762514  0.95349293  0.36828364  1
  C  C240  1  0.24945928  0.21148964  0.63365499  1
  C  C241  1  0.24864545  0.54635725  0.63012065  1
  C  C242  1  0.25167519  0.88100979  0.62891646  1
  C  C243  1  0.74986506  0.21347501  0.63148155  1
  C  C244  1  0.74968093  0.54721934  0.63362531  1
  C  C245  1  0.75134240  0.87871436  0.63356562  1
  C  C246  1  0.24832382  0.12062082  0.13167107  1
  C  C247  1  0.25293167  0.45410028  0.13222693  1
  C  C248  1  0.24493642  0.78553459  0.13304592  1
  C  C249  1  0.74773053  0.12088662  0.13459879  1
  C  C250  1  0.74972487  0.45471894  0.13499190  1
  C  C251  1  0.74599524  0.78566161  0.13188508  1
  C  C252  1  0.25090031  0.21360168  0.86591683  1
  C  C253  1  0.25007342  0.54671137  0.87013980  1
  C  C254  1  0.24571323  0.87590232  0.86815474  1
  C  C255  1  0.75088676  0.21419796  0.86788940  1
  C  C256  1  0.75185627  0.54658034  0.86762895  1
  C  C257  1  0.74907368  0.87999176  0.86703665  1
  C  C258  1  0.24847538  0.11946411  0.36672990  1
  C  C259  1  0.25246998  0.45229998  0.37190280  1
  C  C260  1  0.24862832  0.78644287  0.37019610  1
  C  C261  1  0.74965442  0.12008946  0.37035510  1
  C  C262  1  0.75191932  0.45295267  0.36661712  1
  C  C263  1  0.75083240  0.78643554  0.36722649  1
  C  C264  1  0.52803091  0.40542417  0.96443541  1
  C  C265  1  0.43087925  0.93038116  0.45352309  1
  C  C266  1  0.47300064  0.73997369  0.96303075  1
  C  C267  1  0.20330551  0.75873053  0.03901546  1
  C  C268  1  0.97587054  0.59600950  0.46184235  1
  C  C269  1  0.04202414  0.40562197  0.96027108  1
  C  C270  1  0.47587708  0.26242918  0.46426423  1
  C  C271  1  0.29418747  0.42635843  0.46394468  1
  C  C272  1  0.70723722  0.76109475  0.46083878  1
  C  C273  1  0.05345275  0.74170427  0.54234024  1
  C  C274  1  0.94708911  0.26296244  0.04240227  1
  C  C275  1  0.53856020  0.26025954  0.04027363  1
  C  C276  1  0.28190008  0.42415553  0.03845023  1
  C  C277  1  0.70204739  0.24092918  0.54124534  1
  C  C278  1  0.30353224  0.23924937  0.95632493  1
  C  C279  1  0.22176317  0.23959413  0.96237744  1
  C  C280  1  0.95989550  0.40546416  0.96137076  1
  C  C281  1  0.95895291  0.59603944  0.03671776  1
  C  C282  1  0.96593595  0.07672905  0.54006320  1
  C  C283  1  0.22648020  0.57643446  0.96506724  1
  C  C284  1  0.51065201  0.92696928  0.46680509  1
  C  C285  1  0.68092877  0.76186286  0.04621890  1
  C  C286  1  0.76687476  0.90496862  0.96395126  1
  C  C287  1  0.47885225  0.07358776  0.96051520  1
  C  C288  1  0.98255822  0.73619567  0.96430819  1
  C  C289  1  0.21517678  0.57238143  0.53415235  1
  C  C290  1  0.97441628  0.92784832  0.46219682  1
  C  C291  1  0.54807201  0.07426714  0.53874405  1
  C  C292  1  0.22771611  0.91286180  0.53325595  1
  C  C293  1  0.28493575  0.75991696  0.03938655  1
  C  C294  1  0.21311762  0.42664379  0.46457617  1
  C  C295  1  0.72621760  0.42861881  0.03938271  1
  C  C296  1  0.06313763  0.73417631  0.95401667  1
  C  C297  1  0.44474524  0.40902388  0.54044507  1
  C  C298  1  0.55733827  0.26270874  0.45582666  1
  C  C299  1  0.79152579  0.90467717  0.54028840  1
  C  C300  1  0.71683064  0.09459603  0.04027310  1
  C  C301  1  0.03292919  0.41012713  0.53465606  1
  C  C302  1  0.73240218  0.42571500  0.46251001  1
  C  C303  1  0.53147687  0.58866505  0.03504050  1
  C  C304  1  0.44668322  0.40421307  0.95904582  1
  C  C305  1  0.02817885  0.26266406  0.03623473  1
  C  C306  1  0.03942008  0.59589540  0.03647230  1
  C  C307  1  0.78880967  0.76118991  0.46161081  1
  C  C308  1  0.29048170  0.23927682  0.54115981  1
  C  C309  1  0.76098390  0.75851543  0.03376054  1
  C  C310  1  0.77925136  0.09116629  0.46628077  1
  C  C311  1  0.69680622  0.57200165  0.54375732  1
  N  N312  1  0.20788664  0.91512330  0.95685218  1
  N  N313  1  0.95396564  0.40742954  0.53824033  1
  N  N314  1  0.81111100  0.42833389  0.45533473  1
  N  N315  1  0.05474499  0.59444597  0.45640164  1
  N  N316  1  0.55252615  0.73902265  0.95855848  1
  N  N317  1  0.29609250  0.09362875  0.45815457  1
  N  N318  1  0.29400869  0.57145445  0.53930669  1
  N  N319  1  0.96790907  0.07094817  0.96049288  1
  N  N320  1  0.21090063  0.24111153  0.54234906  1
  N  N321  1  0.46023171  0.59294896  0.45842395  1
  N  N322  1  0.45269015  0.59105847  0.03992060  1
  N  N323  1  0.71199437  0.90680346  0.54207104  1
  N  N324  1  0.04652834  0.07032884  0.96029627  1
  N  N325  1  0.79003163  0.57406370  0.96112295  1
  N  N326  1  0.05302934  0.92819695  0.45607655  1
  N  N327  1  0.78578874  0.23957862  0.96301411  1
  N  N328  1  0.03675702  0.92476652  0.04008569  1
  N  N329  1  0.70061952  0.09265513  0.45947825  1
  N  N330  1  0.29125243  0.91481719  0.95472089  1
  N  N331  1  0.04330633  0.07558628  0.53914922  1
  N  N332  1  0.01971702  0.25709263  0.46116068  1
  N  N333  1  0.97633375  0.74341266  0.53446574  1
  N  N334  1  0.80503831  0.42895293  0.04526255  1
  N  N335  1  0.21962735  0.09289561  0.46243682  1
  N  N336  1  0.30366595  0.57393413  0.96026568  1
  N  N337  1  0.55752559  0.93206844  0.04314989  1
  N  N338  1  0.27948110  0.76695079  0.46572739  1
  N  N339  1  0.46377907  0.73973514  0.54080316  1
  N  N340  1  0.68846146  0.90279426  0.95548956  1
  N  N341  1  0.79625253  0.09523996  0.04227148  1
  N  N342  1  0.30571762  0.90854307  0.54129821  1
  N  N343  1  0.53692999  0.59353478  0.46006277  1
  N  N344  1  0.52364116  0.40908263  0.53675612  1
  N  N345  1  0.19735651  0.09983370  0.04196940  1
  N  N346  1  0.46879535  0.07434100  0.53698217  1
  N  N347  1  0.71388117  0.57349101  0.96133219  1
  N  N348  1  0.46064699  0.26037915  0.03820348  1
  N  N349  1  0.20132996  0.75628017  0.45834014  1
  N  N350  1  0.55775262  0.07198755  0.95395150  1
  N  N351  1  0.47977369  0.91978456  0.03818579  1
  N  N352  1  0.95628930  0.93514842  0.04044393  1
  N  N353  1  0.94228176  0.25890017  0.45435597  1
  N  N354  1  0.54048526  0.73950653  0.54082100  1
  N  N355  1  0.77621072  0.57311586  0.53880017  1
  N  N356  1  0.70778586  0.23836624  0.95831988  1
  N  N357  1  0.77920161  0.24181071  0.53498241  1
  N  N358  1  0.20441482  0.42576920  0.04072658  1
  N  N359  1  0.27593972  0.08798684  0.03931894  1
  N  N360  1  0.06564351  0.05673270  0.59778178  1
  N  N361  1  0.06026164  0.39352153  0.59069673  1
  N  N362  1  0.07115322  0.72380952  0.60122944  1
  N  N363  1  0.56740425  0.05776748  0.59703276  1
  N  N364  1  0.55686424  0.38993080  0.59169626  1
  N  N365  1  0.56537981  0.72258692  0.59864983  1
  N  N366  1  0.43582090  0.27780511  0.09694729  1
  N  N367  1  0.43160136  0.61042055  0.09800652  1
  N  N368  1  0.44444918  0.94332404  0.08943813  1
  N  N369  1  0.92941062  0.27744477  0.10086843  1
  N  N370  1  0.93398906  0.61062063  0.09320342  1
  N  N371  1  0.93648275  0.94097981  0.10101988  1
  N  N372  1  0.44195415  0.05808844  0.90625834  1
  N  N373  1  0.42866587  0.38921038  0.90069042  1
  N  N374  1  0.44341912  0.72424154  0.90681602  1
  N  N375  1  0.93875891  0.05875987  0.90381733  1
  N  N376  1  0.93457632  0.38938503  0.90295268  1
  N  N377  1  0.94580470  0.72236046  0.90789386  1
  N  N378  1  0.05751914  0.27766002  0.41014477  1
  N  N379  1  0.06860352  0.60933237  0.39671485  1
  N  N380  1  0.06544708  0.94472952  0.39660853  1
  N  N381  1  0.57013342  0.27745455  0.39475902  1
  N  N382  1  0.56366900  0.61063845  0.40269826  1
  N  N383  1  0.55164658  0.94190307  0.41231597  1
  N  N384  1  0.31473168  0.22281620  0.59821946  1
  N  N385  1  0.31535407  0.55541657  0.59845529  1
  N  N386  1  0.32097114  0.88847413  0.60022031  1
  N  N387  1  0.80928773  0.22403290  0.59242548  1
  N  N388  1  0.80889389  0.55864322  0.59447263  1
  N  N389  1  0.81646291  0.88895146  0.59754289  1
  N  N390  1  0.18040444  0.10959720  0.10179338  1
  N  N391  1  0.18627962  0.44481681  0.10051706  1
  N  N392  1  0.17978126  0.77520769  0.09868378  1
  N  N393  1  0.68559442  0.10985407  0.09662878  1
  N  N394  1  0.69068303  0.44367242  0.09425520  1
  N  N395  1  0.67254111  0.77805337  0.10581455  1
  N  N396  1  0.19016771  0.22366711  0.90558192  1
  N  N397  1  0.19124388  0.56002482  0.91097539  1
  N  N398  1  0.18320135  0.88719124  0.90417532  1
  N  N399  1  0.68510520  0.22359258  0.90074805  1
  N  N400  1  0.68865754  0.55647615  0.90346916  1
  N  N401  1  0.67909383  0.88767274  0.89482057  1
  N  N402  1  0.31510868  0.11008487  0.39884469  1
  N  N403  1  0.31812136  0.44172582  0.40723609  1
  N  N404  1  0.30949599  0.77504494  0.40785224  1
  N  N405  1  0.80999482  0.10793858  0.41102333  1
  N  N406  1  0.82139320  0.44515563  0.39517716  1
  N  N407  1  0.81485753  0.77630166  0.40515612  1
  N  N408  1  0.44110326  0.27719765  0.40819899  1
  N  N409  1  0.43724453  0.60963629  0.40010050  1
  N  N410  1  0.42359161  0.94607783  0.39360646  1
  N  N411  1  0.93141635  0.27611635  0.39565182  1
  N  N412  1  0.94118377  0.61114655  0.40660514  1
  N  N413  1  0.93818522  0.94327945  0.40735273  1
  N  N414  1  0.06575178  0.05604871  0.90182342  1
  N  N415  1  0.06468216  0.38967279  0.90130930  1
  N  N416  1  0.07465263  0.71978623  0.89433568  1
  N  N417  1  0.56901850  0.05553853  0.89412452  1
  N  N418  1  0.55854635  0.39032480  0.90633624  1
  N  N419  1  0.57193944  0.72213451  0.90026889  1
  N  N420  1  0.05926351  0.27753942  0.09425368  1
  N  N421  1  0.06472157  0.61045584  0.09294559  1
  N  N422  1  0.06422240  0.94741903  0.09444073  1
  N  N423  1  0.56373520  0.27643134  0.09770266  1
  N  N424  1  0.56016219  0.60647040  0.09054237  1
  N  N425  1  0.57120871  0.94357253  0.10297591  1
  N  N426  1  0.43859900  0.05700546  0.59350992  1
  N  N427  1  0.42804924  0.39175448  0.59868109  1
  N  N428  1  0.43880198  0.72322741  0.59884613  1
  N  N429  1  0.93726832  0.05929100  0.59608200  1
  N  N430  1  0.93166463  0.38861110  0.59631783  1
  N  N431  1  0.94388694  0.72546492  0.59092669  1
  N  N432  1  0.18883436  0.10887764  0.40597582  1
  N  N433  1  0.18778403  0.44225627  0.40831310  1
  N  N434  1  0.18198958  0.77683203  0.40209980  1
  N  N435  1  0.68182229  0.11082150  0.40050072  1
  N  N436  1  0.69474855  0.44092266  0.40861560  1
  N  N437  1  0.68477614  0.77702005  0.40090361  1
  N  N438  1  0.31995309  0.22315823  0.89632321  1
  N  N439  1  0.31837804  0.55507529  0.89982350  1
  N  N440  1  0.31086939  0.88744135  0.90093219  1
  N  N441  1  0.81219994  0.22435241  0.90635781  1
  N  N442  1  0.81528828  0.55741398  0.90312688  1
  N  N443  1  0.80562538  0.89083844  0.91002146  1
  N  N444  1  0.30761193  0.11157234  0.09185797  1
  N  N445  1  0.31416735  0.44120367  0.09334102  1
  N  N446  1  0.30978775  0.77572610  0.09614846  1
  N  N447  1  0.81352833  0.11179207  0.10145889  1
  N  N448  1  0.81789094  0.44541919  0.10492310  1
  N  N449  1  0.80065963  0.77394587  0.08843719  1
  N  N450  1  0.18559888  0.22048477  0.59852189  1
  N  N451  1  0.18674614  0.55725598  0.59036960  1
  N  N452  1  0.19358946  0.89530905  0.58711206  1
  N  N453  1  0.68151867  0.22406963  0.59987157  1
  N  N454  1  0.68015319  0.55582866  0.60263160  1
  N  N455  1  0.68721298  0.88786835  0.59868861  1
  Cl  Cl456  1  0.25405092  0.04970251  0.62278648  1
  Cl  Cl457  1  0.24488842  0.38448206  0.61634627  1
  Cl  Cl458  1  0.25469447  0.72141592  0.60587499  1
  Cl  Cl459  1  0.75010691  0.05378390  0.61265103  1
  Cl  Cl460  1  0.74258582  0.38934901  0.61185900  1
  Cl  Cl461  1  0.75266130  0.72075644  0.61252196  1
  Cl  Cl462  1  0.24837477  0.27832327  0.11961521  1
  Cl  Cl463  1  0.24929595  0.61423865  0.12183776  1
  Cl  Cl464  1  0.25468559  0.93576674  0.09865794  1
  Cl  Cl465  1  0.74429230  0.27904374  0.11241646  1
  Cl  Cl466  1  0.74511141  0.61596298  0.12708872  1
  Cl  Cl467  1  0.75455591  0.94637327  0.11944209  1
  Cl  Cl468  1  0.25346320  0.06017502  0.89580550  1
  Cl  Cl469  1  0.24701699  0.38515548  0.87667834  1
  Cl  Cl470  1  0.25917505  0.71915669  0.87631393  1
  Cl  Cl471  1  0.75538681  0.05312073  0.88086490  1
  Cl  Cl472  1  0.74510933  0.38619697  0.88125771  1
  Cl  Cl473  1  0.75717217  0.72150043  0.88259951  1
  Cl  Cl474  1  0.24411632  0.27514008  0.39607427  1
  Cl  Cl475  1  0.25474217  0.61242931  0.38936442  1
  Cl  Cl476  1  0.24535316  0.94396682  0.37239388  1
  Cl  Cl477  1  0.75073389  0.28273910  0.37398646  1
  Cl  Cl478  1  0.75336486  0.61017613  0.39713466  1
  Cl  Cl479  1  0.74402107  0.94287034  0.39649318  1
  Cl  Cl480  1  0.00154483  0.22548373  0.60735363  1
  Cl  Cl481  1  -0.00524414  0.55292342  0.61096073  1
  Cl  Cl482  1  0.00329361  0.88809758  0.61974675  1
  Cl  Cl483  1  0.49775726  0.21784299  0.61436923  1
  Cl  Cl484  1  0.49757623  0.54616664  0.62325490  1
  Cl  Cl485  1  0.50513967  0.89037886  0.62004984  1
  Cl  Cl486  1  -0.00183717  0.11292203  0.11353787  1
  Cl  Cl487  1  0.00215633  0.44864698  0.11862921  1
  Cl  Cl488  1  -0.01180101  0.78208833  0.11146474  1
  Cl  Cl489  1  0.49181297  0.10900600  0.11239511  1
  Cl  Cl490  1  0.50331163  0.44777005  0.11838917  1
  Cl  Cl491  1  0.49085053  0.78157505  0.11539623  1
  Cl  Cl492  1  0.00060018  0.22024795  0.88133524  1
  Cl  Cl493  1  0.00304539  0.55586354  0.87919401  1
  Cl  Cl494  1  -0.00302372  0.89473890  0.89755004  1
  Cl  Cl495  1  0.50450343  0.21941734  0.87933375  1
  Cl  Cl496  1  0.50328229  0.55456188  0.89062461  1
  Cl  Cl497  1  0.49218759  0.89142580  0.89390235  1
  Cl  Cl498  1  -0.00049352  0.11359750  0.38254058  1
  Cl  Cl499  1  0.00356895  0.44442739  0.38515118  1
  Cl  Cl500  1  0.00032138  0.78176070  0.37740210  1
  Cl  Cl501  1  0.49836575  0.10883110  0.38509855  1
  Cl  Cl502  1  0.51009937  0.44127916  0.39067525  1
  Cl  Cl503  1  0.49344348  0.78454437  0.38015040  1
  Cl  Cl504  1  0.36222776  0.14428355  0.75295194  1
  Cl  Cl505  1  0.36225801  0.47710411  0.75202423  1
  Cl  Cl506  1  0.36299422  0.81333846  0.74807761  1
  Cl  Cl507  1  0.85647951  0.14479543  0.74984929  1
  Cl  Cl508  1  0.86294224  0.47828228  0.74837963  1
  Cl  Cl509  1  0.86077326  0.81496626  0.75004576  1
  Cl  Cl510  1  0.14046434  0.18784431  0.24504634  1
  Cl  Cl511  1  0.13800854  0.52110843  0.25265136  1
  Cl  Cl512  1  0.13971719  0.85634166  0.24820465  1
  Cl  Cl513  1  0.63631758  0.18804825  0.25456819  1
  Cl  Cl514  1  0.64046700  0.52135732  0.25329976  1
  Cl  Cl515  1  0.63534848  0.85538648  0.24466240  1
  Cl  Cl516  1  0.14034006  0.14450292  0.75079237  1
  Cl  Cl517  1  0.13813486  0.47846381  0.74880802  1
  Cl  Cl518  1  0.14071222  0.81289794  0.75120293  1
  Cl  Cl519  1  0.63473428  0.14370979  0.75007384  1
  Cl  Cl520  1  0.63811974  0.47902418  0.74732897  1
  Cl  Cl521  1  0.63636943  0.81199641  0.75447854  1
  Cl  Cl522  1  0.36308322  0.18767238  0.25227149  1
  Cl  Cl523  1  0.36264403  0.52156477  0.25363952  1
  Cl  Cl524  1  0.36166117  0.85464550  0.24852627  1
  Cl  Cl525  1  0.86114125  0.18820403  0.24786113  1
  Cl  Cl526  1  0.86338934  0.52169395  0.25289305  1
  Cl  Cl527  1  0.85796281  0.85641759  0.25093134  1
  Cl  Cl528  1  0.11035259  0.30964627  0.74764813  1
  Cl  Cl529  1  0.11513091  0.64597014  0.74780129  1
  Cl  Cl530  1  0.11176268  0.97881850  0.75653971  1
  Cl  Cl531  1  0.60987928  0.31132068  0.74822244  1
  Cl  Cl532  1  0.61232332  0.64551303  0.75142660  1
  Cl  Cl533  1  0.61109215  0.97702367  0.75209537  1
  Cl  Cl534  1  0.38687825  0.02022257  0.25094260  1
  Cl  Cl535  1  0.39069317  0.35437100  0.25184720  1
  Cl  Cl536  1  0.38591927  0.68817459  0.24722231  1
  Cl  Cl537  1  0.88752599  0.01988936  0.24505443  1
  Cl  Cl538  1  0.88584199  0.35571805  0.24973791  1
  Cl  Cl539  1  0.88959811  0.68907940  0.25062973  1
  Cl  Cl540  1  0.38509902  0.31101431  0.74974219  1
  Cl  Cl541  1  0.38868688  0.64434710  0.74974085  1
  Cl  Cl542  1  0.38924019  0.97839397  0.75283423  1
  Cl  Cl543  1  0.88710364  0.31110066  0.74662098  1
  Cl  Cl544  1  0.88922371  0.64638353  0.74620857  1
  Cl  Cl545  1  0.88726770  0.97856179  0.75017478  1
  Cl  Cl546  1  0.11195601  0.02138324  0.24540879  1
  Cl  Cl547  1  0.11035948  0.35284716  0.25057825  1
  Cl  Cl548  1  0.11198067  0.68994554  0.25168568  1
  Cl  Cl549  1  0.60865027  0.02156314  0.24753697  1
  Cl  Cl550  1  0.61391294  0.35526865  0.25175345  1
  Cl  Cl551  1  0.61203623  0.68863051  0.24893366  1
