# generated using pymatgen
data_H8PbC4(N3Cl2)2
_symmetry_space_group_name_H-M   'P 1'
_cell_length_a   16.63410980
_cell_length_b   22.51992927
_cell_length_c   21.59423380
_cell_angle_alpha   90.00271360
_cell_angle_beta   90.03666663
_cell_angle_gamma   90.02237662
_symmetry_Int_Tables_number   1
_chemical_formula_structural   H8PbC4(N3Cl2)2
_chemical_formula_sum   'H192 Pb24 C96 N144 Cl96'
_cell_volume   8089.17559092
_cell_formula_units_Z   24
loop_
 _symmetry_equiv_pos_site_id
 _symmetry_equiv_pos_as_xyz
  1  'x, y, z'
loop_
 _atom_site_type_symbol
 _atom_site_label
 _atom_site_symmetry_multiplicity
 _atom_site_fract_x
 _atom_site_fract_y
 _atom_site_fract_z
 _atom_site_occupancy
  H  H0  1  0.00587423  0.02916014  0.67625543  1
  H  H1  1  -0.00734690  0.36322978  0.67614054  1
  H  H2  1  0.01505526  0.69290662  0.67533309  1
  H  H3  1  0.49369164  0.02958332  0.67290440  1
  H  H4  1  0.50724758  0.36358085  0.67981100  1
  H  H5  1  0.48550864  0.69390786  0.67798692  1
  H  H6  1  -0.00065430  0.30328562  0.17998257  1
  H  H7  1  -0.00037700  0.63618365  0.18123378  1
  H  H8  1  -0.02776031  0.96610522  0.15856475  1
  H  H9  1  0.49956159  0.30234085  0.17329754  1
  H  H10  1  0.51296912  0.64144666  0.17652198  1
  H  H11  1  0.49756487  0.97153487  0.17585780  1
  H  H12  1  -0.00596818  0.02764568  0.82095259  1
  H  H13  1  0.00020227  0.36032887  0.82281093  1
  H  H14  1  -0.00840326  0.69581145  0.82101733  1
  H  H15  1  0.49461513  0.02862524  0.82332492  1
  H  H16  1  0.49498772  0.35854622  0.82510109  1
  H  H17  1  0.50409848  0.69522817  0.82397744  1
  H  H18  1  0.01476710  0.30714838  0.32521442  1
  H  H19  1  0.00479180  0.63628798  0.32065564  1
  H  H20  1  0.00397060  0.97119425  0.32329416  1
  H  H21  1  0.48666240  0.30289803  0.32084950  1
  H  H22  1  0.49913705  0.63395884  0.32062466  1
  H  H23  1  0.49856223  0.97241896  0.32175813  1
  H  H24  1  0.24574498  0.19395257  0.68078526  1
  H  H25  1  0.26478728  0.52628993  0.67494896  1
  H  H26  1  0.25028232  0.86295042  0.67566507  1
  H  H27  1  0.75886391  0.19322288  0.67482478  1
  H  H28  1  0.73567034  0.52882796  0.67766427  1
  H  H29  1  0.74958540  0.85644537  0.67434662  1
  H  H30  1  0.25619336  0.13706671  0.18367672  1
  H  H31  1  0.23512559  0.47139986  0.17560853  1
  H  H32  1  0.23872916  0.80811045  0.17594320  1
  H  H33  1  0.74821296  0.13652464  0.17972124  1
  H  H34  1  0.76393653  0.47050622  0.17797497  1
  H  H35  1  0.76390975  0.80260591  0.18346842  1
  H  H36  1  0.24342003  0.19866635  0.82275049  1
  H  H37  1  0.24184633  0.53017968  0.82122857  1
  H  H38  1  0.25448031  0.85841828  0.82466183  1
  H  H39  1  0.76493261  0.19734507  0.82153524  1
  H  H40  1  0.75924748  0.52772354  0.82058881  1
  H  H41  1  0.77715350  0.86901608  0.84010666  1
  H  H42  1  0.24345180  0.13428836  0.32297777  1
  H  H43  1  0.23471838  0.47329978  0.32115991  1
  H  H44  1  0.24986940  0.80276182  0.31748696  1
  H  H45  1  0.75542876  0.14145791  0.32387082  1
  H  H46  1  0.75716546  0.47110475  0.32199893  1
  H  H47  1  0.74855232  0.80432759  0.32257847  1
  H  H48  1  0.11390576  0.05845338  0.59276727  1
  H  H49  1  0.13107103  0.38471605  0.62039795  1
  H  H50  1  0.12115613  0.72331578  0.59247107  1
  H  H51  1  0.62078256  0.05013219  0.60789402  1
  H  H52  1  0.62748050  0.39086083  0.60544732  1
  H  H53  1  0.62449003  0.71874593  0.62683935  1
  H  H54  1  0.36370731  0.28391963  0.11736230  1
  H  H55  1  0.37669835  0.61906299  0.11840937  1
  H  H56  1  0.36280585  0.94428633  0.11783131  1
  H  H57  1  0.86793142  0.27993739  0.11396838  1
  H  H58  1  0.86912503  0.61340287  0.11855892  1
  H  H59  1  0.83649128  0.94560238  0.10192357  1
  H  H60  1  0.38433797  0.05853497  0.90448722  1
  H  H61  1  0.37993689  0.39195207  0.90155756  1
  H  H62  1  0.37899139  0.72001578  0.89174974  1
  H  H63  1  0.88269689  0.05681721  0.90140099  1
  H  H64  1  0.88358563  0.38711398  0.89895647  1
  H  H65  1  0.88779856  0.72638607  0.90635347  1
  H  H66  1  0.12103538  0.27488382  0.40755261  1
  H  H67  1  0.11926722  0.61122867  0.39667147  1
  H  H68  1  0.11176689  0.94115500  0.40645872  1
  H  H69  1  0.62842428  0.28471204  0.37334753  1
  H  H70  1  0.61281977  0.61092271  0.39815668  1
  H  H71  1  0.61066941  0.94620552  0.40166439  1
  H  H72  1  0.37268898  0.21607780  0.61090771  1
  H  H73  1  0.37901453  0.55926515  0.59968152  1
  H  H74  1  0.38687425  0.88832224  0.62081260  1
  H  H75  1  0.87083915  0.22599588  0.59538329  1
  H  H76  1  0.87733765  0.54990397  0.63049911  1
  H  H77  1  0.88272913  0.88470263  0.61778460  1
  H  H78  1  0.11815367  0.11232504  0.12725968  1
  H  H79  1  0.11769715  0.44330034  0.09890579  1
  H  H80  1  0.12194881  0.77674237  0.10219427  1
  H  H81  1  0.61558012  0.11861233  0.11701040  1
  H  H82  1  0.62024872  0.45394885  0.13253114  1
  H  H83  1  0.62156278  0.78335447  0.13158074  1
  H  H84  1  0.13829427  0.22688291  0.90471583  1
  H  H85  1  0.13328776  0.55374540  0.90352070  1
  H  H86  1  0.14228994  0.88999013  0.90269843  1
  H  H87  1  0.63298989  0.21463238  0.88246444  1
  H  H88  1  0.63907119  0.55700665  0.89404308  1
  H  H89  1  0.66599580  0.89559290  0.91952956  1
  H  H90  1  0.38149991  0.11527912  0.38122373  1
  H  H91  1  0.36729706  0.45167164  0.38560736  1
  H  H92  1  0.37425648  0.77957103  0.38701981  1
  H  H93  1  0.87659219  0.11252892  0.39764800  1
  H  H94  1  0.86598347  0.43895222  0.40409247  1
  H  H95  1  0.87492294  0.77714014  0.39189376  1
  H  H96  1  0.38314803  0.27528663  0.40554330  1
  H  H97  1  0.36457369  0.61538569  0.38096894  1
  H  H98  1  0.36330383  0.94956518  0.38248248  1
  H  H99  1  0.87650786  0.27989112  0.37540377  1
  H  H100  1  0.87081204  0.61607352  0.38165419  1
  H  H101  1  0.86683496  0.94853367  0.37960112  1
  H  H102  1  0.12966158  0.05237177  0.87684911  1
  H  H103  1  0.13180735  0.38876407  0.88392678  1
  H  H104  1  0.13254432  0.71357955  0.87254532  1
  H  H105  1  0.63020971  0.05028033  0.88294424  1
  H  H106  1  0.62705495  0.38232486  0.88757214  1
  H  H107  1  0.62769499  0.71958138  0.89184225  1
  H  H108  1  0.11664042  0.27978350  0.10437563  1
  H  H109  1  0.11821748  0.61239713  0.10690403  1
  H  H110  1  0.08399995  0.93566677  0.08135091  1
  H  H111  1  0.61082946  0.27568878  0.09409759  1
  H  H112  1  0.62214532  0.60972281  0.09561839  1
  H  H113  1  0.60789100  0.94477150  0.09477362  1
  H  H114  1  0.37253189  0.05475099  0.60269541  1
  H  H115  1  0.37883601  0.38699887  0.61360369  1
  H  H116  1  0.37960030  0.72397842  0.59444325  1
  H  H117  1  0.86811828  0.04911016  0.61921442  1
  H  H118  1  0.88577633  0.39245676  0.59185054  1
  H  H119  1  0.87615983  0.71858634  0.62385468  1
  H  H120  1  0.13522748  0.10598435  0.40645897  1
  H  H121  1  0.11991738  0.44157822  0.39919401  1
  H  H122  1  0.12463065  0.77943236  0.38516378  1
  H  H123  1  0.62857075  0.11301107  0.39122631  1
  H  H124  1  0.62030215  0.45030971  0.37930744  1
  H  H125  1  0.62667329  0.77687563  0.39581924  1
  H  H126  1  0.38398894  0.21562710  0.87416391  1
  H  H127  1  0.37853516  0.54924294  0.87463474  1
  H  H128  1  0.38812252  0.88469826  0.88477678  1
  H  H129  1  0.88101942  0.22343754  0.89823721  1
  H  H130  1  0.88757534  0.55037061  0.88707932  1
  H  H131  1  0.91313153  0.88850082  0.89614165  1
  H  H132  1  0.36423552  0.11237313  0.10028649  1
  H  H133  1  0.36550753  0.44791840  0.11270511  1
  H  H134  1  0.36999624  0.78221370  0.11425298  1
  H  H135  1  0.86363519  0.11075013  0.10490820  1
  H  H136  1  0.86218741  0.44145060  0.09128417  1
  H  H137  1  0.86574818  0.77518993  0.09687532  1
  H  H138  1  0.12354487  0.22395307  0.61196451  1
  H  H139  1  0.13126253  0.55116210  0.61468328  1
  H  H140  1  0.14050329  0.89103206  0.59410116  1
  H  H141  1  0.62443948  0.21383548  0.61247881  1
  H  H142  1  0.63467119  0.56190752  0.59227890  1
  H  H143  1  0.63634595  0.88895100  0.59772600  1
  H  H144  1  0.60991738  0.25283029  0.48143708  1
  H  H145  1  0.96322423  0.74932424  1.00506336  1
  H  H146  1  0.05626279  0.25027831  -0.00362771  1
  H  H147  1  0.21074436  0.91902898  0.49361323  1
  H  H148  1  0.03594702  0.91400818  0.50592704  1
  H  H149  1  0.02460276  0.90645510  -0.02538553  1
  H  H150  1  0.94654385  0.41530215  1.00252391  1
  H  H151  1  0.03805047  0.08600429  0.49366782  1
  H  H152  1  0.16898337  0.75100449  0.49757344  1
  H  H153  1  0.96261291  0.41803439  0.49256512  1
  H  H154  1  0.78344581  0.41443729  -0.01061308  1
  H  H155  1  0.35880360  0.57957872  -0.00997574  1
  H  H156  1  0.45647662  0.75017934  0.49492328  1
  H  H157  1  0.86755625  0.58393950  0.51654390  1
  H  H158  1  0.70337634  0.91883728  0.49581153  1
  H  H159  1  0.72667310  0.92538800  1.02553861  1
  H  H160  1  0.33394076  0.74917668  0.00859953  1
  H  H161  1  0.66354390  0.24671567  0.99599217  1
  H  H162  1  0.29321627  0.08476127  -0.00343050  1
  H  H163  1  0.21081974  0.25692338  1.00957859  1
  H  H164  1  0.95095279  0.07916858  1.00344834  1
  H  H165  1  0.78777913  0.74809439  -0.00419929  1
  H  H166  1  0.44410654  0.41531513  1.00461423  1
  H  H167  1  0.06106974  0.58167380  0.50532217  1
  H  H168  1  0.04486755  0.74833073  0.49216319  1
  H  H169  1  0.21112931  0.91800381  1.00510790  1
  H  H170  1  0.45685915  0.08681766  1.00486806  1
  H  H171  1  0.54992191  0.58543305  -0.00506497  1
  H  H172  1  0.17311557  0.25903446  0.50382406  1
  H  H173  1  0.58453093  0.75171755  0.00210971  1
  H  H174  1  0.71327274  0.58408883  0.49408143  1
  H  H175  1  0.54455303  0.91977001  0.50739414  1
  H  H176  1  0.79139026  0.41201824  0.50342214  1
  H  H177  1  0.10445560  0.08395210  0.98936875  1
  H  H178  1  0.62573019  0.42402284  1.01917526  1
  H  H179  1  0.55187668  0.58241004  0.50713165  1
  H  H180  1  0.21014175  0.07794424  0.50571619  1
  H  H181  1  0.42144226  0.42266872  0.50539399  1
  H  H182  1  0.45758356  0.24588345  0.50841638  1
  H  H183  1  0.06543660  0.57814520  0.00033790  1
  H  H184  1  0.32351279  0.23548106  0.50327977  1
  H  H185  1  0.90052572  0.58343684  0.00670728  1
  H  H186  1  0.32872638  0.74859371  0.49725100  1
  H  H187  1  0.53679327  0.91538790  -0.00667580  1
  H  H188  1  0.80539164  0.08407482  -0.00562491  1
  H  H189  1  0.38033309  0.24951560  0.99459451  1
  H  H190  1  0.04486138  0.24830011  0.50717089  1
  H  H191  1  0.11844840  0.74357435  0.98612656  1
  Pb  Pb192  1  0.26123983  0.05046788  0.74755811  1
  Pb  Pb193  1  0.25778305  0.38147057  0.75497100  1
  Pb  Pb194  1  0.26128913  0.71676478  0.74274906  1
  Pb  Pb195  1  0.75524501  0.04653308  0.75479270  1
  Pb  Pb196  1  0.76078873  0.38327200  0.74403645  1
  Pb  Pb197  1  0.75806794  0.71620880  0.75960631  1
  Pb  Pb198  1  0.23856987  0.28243523  0.26081683  1
  Pb  Pb199  1  0.23971359  0.61715531  0.24549962  1
  Pb  Pb200  1  0.23426796  0.94930346  0.24465442  1
  Pb  Pb201  1  0.73996949  0.28398834  0.24022746  1
  Pb  Pb202  1  0.73656150  0.61490633  0.25336901  1
  Pb  Pb203  1  0.73553302  0.95090223  0.25976591  1
  Pb  Pb204  1  0.00537343  0.21470450  0.75020296  1
  Pb  Pb205  1  0.01105233  0.54968715  0.75577552  1
  Pb  Pb206  1  0.01239391  0.88367296  0.73839245  1
  Pb  Pb207  1  0.51088748  0.21639619  0.74477685  1
  Pb  Pb208  1  0.50847383  0.54921037  0.74938851  1
  Pb  Pb209  1  0.51454636  0.88306852  0.75663928  1
  Pb  Pb210  1  -0.01188694  0.11495806  0.25251215  1
  Pb  Pb211  1  -0.01220444  0.44876524  0.24385961  1
  Pb  Pb212  1  -0.01280940  0.78238504  0.24571977  1
  Pb  Pb213  1  0.48911219  0.11762609  0.24194773  1
  Pb  Pb214  1  0.48690506  0.44889192  0.24897378  1
  Pb  Pb215  1  0.48907955  0.78393491  0.25864940  1
  C  C216  1  -0.00355075  0.04511493  0.62941604  1
  C  C217  1  0.00284000  0.37911403  0.62939629  1
  C  C218  1  0.00444442  0.71006471  0.62920590  1
  C  C219  1  0.49573773  0.04557989  0.62541696  1
  C  C220  1  0.50474102  0.38040652  0.63281826  1
  C  C221  1  0.49635684  0.71083467  0.63183235  1
  C  C222  1  -0.00579038  0.28768973  0.13260221  1
  C  C223  1  -0.00454108  0.62017246  0.13387330  1
  C  C224  1  -0.03605206  0.94929066  0.11174075  1
  C  C225  1  0.49093043  0.28712205  0.12613339  1
  C  C226  1  0.50429028  0.62428532  0.13007183  1
  C  C227  1  0.48946820  0.95501361  0.12911892  1
  C  C228  1  0.00201776  0.04432610  0.86793044  1
  C  C229  1  0.00495160  0.37722331  0.86955519  1
  C  C230  1  0.00395356  0.71099842  0.86795368  1
  C  C231  1  0.50280378  0.04451766  0.87033233  1
  C  C232  1  0.50042477  0.37685719  0.87136955  1
  C  C233  1  0.50416530  0.71136974  0.87118743  1
  C  C234  1  0.00441192  0.28896165  0.37083808  1
  C  C235  1  -0.00140885  0.62137776  0.36814010  1
  C  C236  1  -0.00566085  0.95484381  0.36994135  1
  C  C237  1  0.50012353  0.28797640  0.36762218  1
  C  C238  1  0.49234929  0.62032126  0.36841059  1
  C  C239  1  0.49046232  0.95678191  0.36889522  1
  C  C240  1  0.24805928  0.20986800  0.63330631  1
  C  C241  1  0.25809560  0.54480292  0.62907348  1
  C  C242  1  0.25908408  0.87939110  0.62898174  1
  C  C243  1  0.75149482  0.21010224  0.62805561  1
  C  C244  1  0.74922724  0.54542403  0.63154275  1
  C  C245  1  0.75607393  0.87496553  0.62839186  1
  C  C246  1  0.24567893  0.12127944  0.13681816  1
  C  C247  1  0.23904951  0.45521554  0.12861936  1
  C  C248  1  0.24410693  0.79020059  0.12953621  1
  C  C249  1  0.74258362  0.12236557  0.13199754  1
  C  C250  1  0.74802254  0.45594765  0.13158149  1
  C  C251  1  0.75000486  0.78762193  0.13690118  1
  C  C252  1  0.25543813  0.21380927  0.86961191  1
  C  C253  1  0.25224550  0.54446732  0.86843223  1
  C  C254  1  0.26143216  0.87660844  0.87086667  1
  C  C255  1  0.75899141  0.21175599  0.86915983  1
  C  C256  1  0.76169821  0.54457718  0.86739961  1
  C  C257  1  0.78575101  0.88411964  0.88754152  1
  C  C258  1  0.25303635  0.11868963  0.36993347  1
  C  C259  1  0.24037272  0.45650061  0.36807382  1
  C  C260  1  0.24964256  0.78766153  0.36529594  1
  C  C261  1  0.75379429  0.12307596  0.37024468  1
  C  C262  1  0.74814935  0.45451485  0.36859223  1
  C  C263  1  0.75011958  0.78718723  0.36948557  1
  C  C264  1  0.26374888  0.09510384  0.04045015  1
  C  C265  1  0.28369798  0.58114783  0.53724793  1
  C  C266  1  0.94492119  0.59660791  0.45781019  1
  C  C267  1  0.46167550  0.73997472  0.96343714  1
  C  C268  1  0.90748575  0.92224776  0.02203657  1
  C  C269  1  0.81623343  0.57527057  0.54951428  1
  C  C270  1  0.78941698  0.24002737  0.96416851  1
  C  C271  1  0.02256995  0.26026838  0.03832941  1
  C  C272  1  0.45944140  0.07538816  0.53369132  1
  C  C273  1  0.84317304  0.91003609  0.97725222  1
  C  C274  1  0.77104430  0.09533666  0.03560554  1
  C  C275  1  0.28559019  0.42499608  0.03919130  1
  C  C276  1  0.31837102  0.91117955  0.54285237  1
  C  C277  1  0.51276888  0.92968553  0.46447907  1
  C  C278  1  0.51851139  0.59370085  0.46536264  1
  C  C279  1  0.94617349  0.59269811  0.04283517  1
  C  C280  1  0.76105465  0.76006873  0.04038417  1
  C  C281  1  0.02819663  0.59112791  0.03928638  1
  C  C282  1  0.05898873  0.07440202  0.95435836  1
  C  C283  1  0.53987246  0.07405541  0.53542862  1
  C  C284  1  0.94164730  0.25375087  0.45392665  1
  C  C285  1  0.05662389  0.41058596  0.95785856  1
  C  C286  1  0.23956319  0.24328201  0.96658553  1
  C  C287  1  0.02579446  0.59364071  0.46476489  1
  C  C288  1  0.94134254  0.74292300  0.54501377  1
  C  C289  1  0.23034610  0.57144588  0.96523405  1
  C  C290  1  0.28996354  0.76075714  0.45873750  1
  C  C291  1  0.76068681  0.91260711  0.98453472  1
  C  C292  1  0.68998343  0.09803179  0.04177605  1
  C  C293  1  0.55965048  0.74364187  0.54789570  1
  C  C294  1  0.20919344  0.24257972  0.54213634  1
  C  C295  1  0.46266833  0.41062896  0.54252237  1
  C  C296  1  0.81187408  0.91067996  0.54266932  1
  C  C297  1  0.54333537  0.74061495  0.96465329  1
  C  C298  1  0.20788021  0.76123680  0.45852102  1
  C  C299  1  0.48403048  0.25809587  0.46409973  1
  C  C300  1  0.70817425  0.23752222  0.96031964  1
  C  C301  1  0.43442859  0.26084976  0.03780873  1
  C  C302  1  0.06857656  0.73654142  0.95290479  1
  C  C303  1  0.31103342  0.57011407  0.95679606  1
  C  C304  1  -0.00992310  0.91907169  0.01541889  1
  C  C305  1  0.80532964  0.57388663  0.95824787  1
  C  C306  1  0.67792500  0.43265439  0.04823167  1
  C  C307  1  0.43744926  0.59535982  0.45772862  1
  C  C308  1  0.75744498  0.42794918  0.03353010  1
  C  C309  1  0.51531892  0.25777578  0.03101337  1
  C  C310  1  0.31986217  0.23892761  0.95506198  1
  C  C311  1  0.21131595  0.75575804  0.03630930  1
  N  N312  1  0.31336321  0.09316488  0.45674590  1
  N  N313  1  0.71202839  0.08987690  0.46067826  1
  N  N314  1  0.20634901  0.57878372  0.54065886  1
  N  N315  1  0.44567886  0.59491151  0.04410018  1
  N  N316  1  0.48189830  0.74372512  0.53786295  1
  N  N317  1  0.55240065  0.40467580  0.96011634  1
  N  N318  1  0.77529962  0.24375375  0.53404087  1
  N  N319  1  0.47492298  0.40778366  0.96382409  1
  N  N320  1  0.01920698  0.74276308  0.53504207  1
  N  N321  1  0.20855031  0.42290669  0.03384929  1
  N  N322  1  0.56184437  0.26043890  0.45171252  1
  N  N323  1  0.97999443  0.07623529  0.96155032  1
  N  N324  1  0.28871872  0.23862814  0.54228702  1
  N  N325  1  0.68805102  0.42539035  0.45430489  1
  N  N326  1  0.56092290  0.07359727  0.95695444  1
  N  N327  1  0.73337388  0.91034989  0.53648374  1
  N  N328  1  0.78811335  0.09012263  0.46267975  1
  N  N329  1  0.01069243  0.92222099  0.46265619  1
  N  N330  1  0.68343661  0.76284791  0.05170481  1
  N  N331  1  0.93347696  0.92443766  0.45503351  1
  N  N332  1  0.76533474  0.42153038  0.46101835  1
  N  N333  1  0.71458655  0.75660798  0.46248343  1
  N  N334  1  0.23618197  0.08967340  0.46380510  1
  N  N335  1  0.98727779  0.41056750  0.53611164  1
  N  N336  1  0.01275091  0.07744542  0.53666108  1
  N  N337  1  0.06436748  0.40760520  0.54409050  1
  N  N338  1  0.97821201  0.40847791  0.96243991  1
  N  N339  1  0.18548548  0.09539818  0.04934357  1
  N  N340  1  0.28964047  0.42728052  0.45780199  1
  N  N341  1  0.23908712  0.91101547  0.96247279  1
  N  N342  1  0.73818859  0.57952664  0.53767271  1
  N  N343  1  0.72793083  0.57622768  0.96184092  1
  N  N344  1  0.43264372  0.92266750  0.04323295  1
  N  N345  1  0.21351715  0.42358893  0.46195663  1
  N  N346  1  0.29027722  0.75855193  0.04111054  1
  N  N347  1  0.93556860  0.07491644  0.54428097  1
  N  N348  1  0.01936435  0.25453025  0.46426214  1
  N  N349  1  0.50993574  0.92253047  0.03658015  1
  N  N350  1  0.31661648  0.90876997  0.95753387  1
  N  N351  1  0.48352028  0.07703237  0.96279994  1
  N  N352  1  0.79063862  0.75663540  0.46128663  1
  N  N353  1  0.69945291  0.23919739  0.53942923  1
  N  N354  1  0.43408030  0.92979941  0.45803952  1
  N  N355  1  0.94351646  0.25958186  0.04204081  1
  N  N356  1  0.99027499  0.74239275  0.96267996  1
  N  N357  1  0.52298480  0.59109643  0.03755481  1
  N  N358  1  0.24023942  0.91076107  0.53476000  1
  N  N359  1  0.54176121  0.41173001  0.53926205  1
  N  N360  1  0.05156222  0.05737032  0.58726090  1
  N  N361  1  0.07347773  0.38989977  0.60289070  1
  N  N362  1  0.05927453  0.72041488  0.58617174  1
  N  N363  1  0.56250019  0.05598951  0.59129913  1
  N  N364  1  0.56635617  0.39287568  0.59609131  1
  N  N365  1  0.56874227  0.72405143  0.60629738  1
  N  N366  1  0.42033002  0.27865185  0.09769298  1
  N  N367  1  0.43459487  0.61330708  0.10223499  1
  N  N368  1  0.42027643  0.94143580  0.10138034  1
  N  N369  1  0.92765238  0.27655980  0.10092158  1
  N  N370  1  0.92760572  0.61044323  0.10212453  1
  N  N371  1  0.89377273  0.94112281  0.08300513  1
  N  N372  1  0.44637043  0.05702959  0.91147605  1
  N  N373  1  0.44156867  0.39012472  0.91032079  1
  N  N374  1  0.43863081  0.72243239  0.90677103  1
  N  N375  1  0.94494151  0.05433586  0.90926760  1
  N  N376  1  0.94503344  0.38626356  0.90870081  1
  N  N377  1  0.95048605  0.72412791  0.91116983  1
  N  N378  1  0.05931958  0.27837648  0.41385500  1
  N  N379  1  0.05813362  0.60945689  0.40744437  1
  N  N380  1  0.04934008  0.94263877  0.41226641  1
  N  N381  1  0.57143444  0.27905631  0.39249215  1
  N  N382  1  0.55175549  0.60967970  0.40856761  1
  N  N383  1  0.54892496  0.94563664  0.41010284  1
  N  N384  1  0.31224304  0.21501535  0.59765398  1
  N  N385  1  0.31805183  0.56095626  0.59030863  1
  N  N386  1  0.33036408  0.89227642  0.60132826  1
  N  N387  1  0.80895249  0.22614603  0.58898281  1
  N  N388  1  0.82284649  0.55594555  0.60828938  1
  N  N389  1  0.82613766  0.88942300  0.59971252  1
  N  N390  1  0.17581913  0.11147532  0.10949954  1
  N  N391  1  0.17911675  0.44253978  0.09065555  1
  N  N392  1  0.18262709  0.77486789  0.09138406  1
  N  N393  1  0.67330604  0.11416175  0.09999446  1
  N  N394  1  0.67366959  0.44971098  0.10887014  1
  N  N395  1  0.67827609  0.77964981  0.11196463  1
  N  N396  1  0.20022166  0.22718750  0.91222514  1
  N  N397  1  0.19506440  0.55617911  0.91187261  1
  N  N398  1  0.20400788  0.88908986  0.91104862  1
  N  N399  1  0.69063916  0.21992462  0.90014053  1
  N  N400  1  0.70067524  0.55738448  0.90395816  1
  N  N401  1  0.72750600  0.89619108  0.92873790  1
  N  N402  1  0.32342420  0.11025231  0.39799443  1
  N  N403  1  0.30757959  0.44764467  0.39969336  1
  N  N404  1  0.31453211  0.77735190  0.40060738  1
  N  N405  1  0.81564302  0.11079508  0.40674352  1
  N  N406  1  0.80377367  0.44133701  0.41017172  1
  N  N407  1  0.81435367  0.77561355  0.40372435  1
  N  N408  1  0.44517975  0.27512824  0.41192437  1
  N  N409  1  0.42229417  0.61130647  0.39917776  1
  N  N410  1  0.42191672  0.94695104  0.39834422  1
  N  N411  1  0.93230280  0.27430083  0.39596589  1
  N  N412  1  0.92859100  0.61271025  0.39915454  1
  N  N413  1  0.92384811  0.94353614  0.39661998  1
  N  N414  1  0.07283461  0.05622960  0.89579858  1
  N  N415  1  0.07352021  0.39170488  0.90023170  1
  N  N416  1  0.07695373  0.71849588  0.89361525  1
  N  N417  1  0.57238658  0.05503929  0.89878340  1
  N  N418  1  0.56811771  0.38639435  0.90247597  1
  N  N419  1  0.56853626  0.72278784  0.90602856  1
  N  N420  1  0.05539010  0.27698065  0.09364846  1
  N  N421  1  0.05751758  0.60824880  0.09615149  1
  N  N422  1  0.02268189  0.93588297  0.07135423  1
  N  N423  1  0.54920768  0.27385114  0.08481335  1
  N  N424  1  0.56020751  0.61172150  0.08858958  1
  N  N425  1  0.54594487  0.94482792  0.08737694  1
  N  N426  1  0.43182666  0.05829727  0.58873303  1
  N  N427  1  0.43837154  0.39165608  0.59958722  1
  N  N428  1  0.44165116  0.72140716  0.58866111  1
  N  N429  1  0.92584807  0.05612104  0.60261225  1
  N  N430  1  0.94809045  0.39064872  0.58654713  1
  N  N431  1  0.93220933  0.72358868  0.60348843  1
  N  N432  1  0.19758235  0.10577261  0.41171337  1
  N  N433  1  0.18158362  0.44179789  0.40653828  1
  N  N434  1  0.18410664  0.77781948  0.40007202  1
  N  N435  1  0.68912438  0.10985271  0.40331116  1
  N  N436  1  0.67787573  0.44450463  0.39611137  1
  N  N437  1  0.68783552  0.77537203  0.40565825  1
  N  N438  1  0.32829499  0.22122287  0.89526910  1
  N  N439  1  0.32317471  0.55354892  0.89556768  1
  N  N440  1  0.33018710  0.88918421  0.89987175  1
  N  N441  1  0.82020834  0.22452010  0.90921099  1
  N  N442  1  0.82838530  0.55510176  0.90097928  1
  N  N443  1  0.85625031  0.89217030  0.91584068  1
  N  N444  1  0.30203802  0.11085564  0.09376772  1
  N  N445  1  0.30687568  0.44427520  0.09653838  1
  N  N446  1  0.31085332  0.78077494  0.09819968  1
  N  N447  1  0.80283073  0.11068948  0.09310953  1
  N  N448  1  0.79991171  0.44280454  0.08603908  1
  N  N449  1  0.80339194  0.77539290  0.09211615  1
  N  N450  1  0.18380163  0.22583168  0.59876765  1
  N  N451  1  0.19042388  0.55565801  0.59930911  1
  N  N452  1  0.20258980  0.88949914  0.58720402  1
  N  N453  1  0.68326959  0.21770572  0.59743920  1
  N  N454  1  0.69680964  0.55758774  0.58727454  1
  N  N455  1  0.69792491  0.88651692  0.58850812  1
  Cl  Cl456  1  0.23462712  0.05700261  0.60344722  1
  Cl  Cl457  1  0.25591307  0.38071804  0.62393840  1
  Cl  Cl458  1  0.25110297  0.72664139  0.60670956  1
  Cl  Cl459  1  0.74527100  0.04063206  0.62597011  1
  Cl  Cl460  1  0.76347685  0.39447083  0.60317032  1
  Cl  Cl461  1  0.75161572  0.71687850  0.63137582  1
  Cl  Cl462  1  0.23646046  0.28205911  0.12711755  1
  Cl  Cl463  1  0.24640353  0.61863192  0.11321406  1
  Cl  Cl464  1  0.21386399  0.93640847  0.10373096  1
  Cl  Cl465  1  0.73684776  0.27791104  0.10676999  1
  Cl  Cl466  1  0.74168082  0.61076659  0.12180374  1
  Cl  Cl467  1  0.72045120  0.95117217  0.12485133  1
  Cl  Cl468  1  0.26296174  0.05731367  0.88432448  1
  Cl  Cl469  1  0.25983874  0.39274889  0.88690483  1
  Cl  Cl470  1  0.25841371  0.72442662  0.87791269  1
  Cl  Cl471  1  0.76114266  0.05496505  0.89026862  1
  Cl  Cl472  1  0.75894352  0.38652647  0.87963298  1
  Cl  Cl473  1  0.76532095  0.72612884  0.89563572  1
  Cl  Cl474  1  0.25237372  0.26936768  0.40003252  1
  Cl  Cl475  1  0.24061769  0.61499173  0.37651948  1
  Cl  Cl476  1  0.23090353  0.94159100  0.39228287  1
  Cl  Cl477  1  0.75190677  0.28454620  0.37199188  1
  Cl  Cl478  1  0.73891173  0.60437856  0.39121322  1
  Cl  Cl479  1  0.73341548  0.93923789  0.39566212  1
  Cl  Cl480  1  -0.00040058  0.22692851  0.60755454  1
  Cl  Cl481  1  0.00726625  0.55253616  0.62334789  1
  Cl  Cl482  1  0.01885976  0.89049490  0.60026639  1
  Cl  Cl483  1  0.49640091  0.22155237  0.60853035  1
  Cl  Cl484  1  0.50983985  0.56187495  0.61405432  1
  Cl  Cl485  1  0.51597847  0.88952501  0.61902908  1
  Cl  Cl486  1  -0.01346083  0.10046553  0.11436208  1
  Cl  Cl487  1  -0.01494069  0.43777531  0.10560093  1
  Cl  Cl488  1  -0.00864594  0.77368425  0.10394310  1
  Cl  Cl489  1  0.48453262  0.10917824  0.10347020  1
  Cl  Cl490  1  0.48680020  0.44074805  0.11176546  1
  Cl  Cl491  1  0.49244149  0.77993210  0.12675699  1
  Cl  Cl492  1  0.01229192  0.22435914  0.88530718  1
  Cl  Cl493  1  0.01124623  0.55104425  0.89094716  1
  Cl  Cl494  1  0.02976976  0.88373569  0.87346151  1
  Cl  Cl495  1  0.50871319  0.21342085  0.87189689  1
  Cl  Cl496  1  0.51629179  0.55868689  0.88739500  1
  Cl  Cl497  1  0.53584088  0.89409795  0.89888159  1
  Cl  Cl498  1  0.01235100  0.10866928  0.39649417  1
  Cl  Cl499  1  -0.01207597  0.43640050  0.39508022  1
  Cl  Cl500  1  0.00032689  0.77443819  0.38400767  1
  Cl  Cl501  1  0.50571614  0.11869688  0.37315219  1
  Cl  Cl502  1  0.49103974  0.45009825  0.38103770  1
  Cl  Cl503  1  0.49954875  0.77371100  0.39601643  1
  Cl  Cl504  1  0.36368634  0.14456958  0.74559886  1
  Cl  Cl505  1  0.36893930  0.48309733  0.75395986  1
  Cl  Cl506  1  0.36378919  0.81508228  0.74832461  1
  Cl  Cl507  1  0.86469017  0.14899378  0.74797770  1
  Cl  Cl508  1  0.86148333  0.48102006  0.74539273  1
  Cl  Cl509  1  0.86730489  0.81657453  0.75294752  1
  Cl  Cl510  1  0.13636760  0.18547638  0.25196653  1
  Cl  Cl511  1  0.13622830  0.51933548  0.24469175  1
  Cl  Cl512  1  0.13781994  0.85036144  0.25120140  1
  Cl  Cl513  1  0.63969280  0.18550674  0.24601677  1
  Cl  Cl514  1  0.63616677  0.51783634  0.24809020  1
  Cl  Cl515  1  0.64010228  0.85072564  0.25103547  1
  Cl  Cl516  1  0.14340871  0.14772217  0.75316177  1
  Cl  Cl517  1  0.14655157  0.48231874  0.74752094  1
  Cl  Cl518  1  0.14491865  0.81466635  0.74563859  1
  Cl  Cl519  1  0.64552613  0.14904612  0.74808835  1
  Cl  Cl520  1  0.64175484  0.47931787  0.74991045  1
  Cl  Cl521  1  0.64885315  0.81886274  0.75516880  1
  Cl  Cl522  1  0.35678667  0.18599752  0.25509670  1
  Cl  Cl523  1  0.35991613  0.52204312  0.24517123  1
  Cl  Cl524  1  0.35914502  0.85685539  0.24849976  1
  Cl  Cl525  1  0.86038895  0.18748352  0.24998550  1
  Cl  Cl526  1  0.85876272  0.52009003  0.25026837  1
  Cl  Cl527  1  0.86001562  0.85768551  0.24835530  1
  Cl  Cl528  1  0.11734632  0.31530003  0.74731068  1
  Cl  Cl529  1  0.11096801  0.64932261  0.75376110  1
  Cl  Cl530  1  0.11022192  0.98336342  0.74962406  1
  Cl  Cl531  1  0.60939369  0.31596760  0.75016509  1
  Cl  Cl532  1  0.61872595  0.65069357  0.75491108  1
  Cl  Cl533  1  0.60689499  0.98569830  0.75551212  1
  Cl  Cl534  1  0.38099116  0.02158966  0.25185380  1
  Cl  Cl535  1  0.38837783  0.35017174  0.24879702  1
  Cl  Cl536  1  0.38434388  0.68902289  0.25398573  1
  Cl  Cl537  1  0.88743681  0.01830549  0.25484732  1
  Cl  Cl538  1  0.88913334  0.35375743  0.25130894  1
  Cl  Cl539  1  0.88333235  0.68783453  0.25431600  1
  Cl  Cl540  1  0.39173191  0.31169956  0.75419215  1
  Cl  Cl541  1  0.39656690  0.64983586  0.75514417  1
  Cl  Cl542  1  0.39028870  0.97689069  0.74394610  1
  Cl  Cl543  1  0.89674584  0.31698668  0.74988936  1
  Cl  Cl544  1  0.89189989  0.64599283  0.74894681  1
  Cl  Cl545  1  0.89372751  0.98002040  0.74917442  1
  Cl  Cl546  1  0.10655237  0.01863233  0.24344574  1
  Cl  Cl547  1  0.10794053  0.35443595  0.25472850  1
  Cl  Cl548  1  0.10424205  0.68535510  0.24724807  1
  Cl  Cl549  1  0.60080067  0.01709421  0.24891431  1
  Cl  Cl550  1  0.60872902  0.35384448  0.25157284  1
  Cl  Cl551  1  0.60505898  0.68599771  0.24910853  1
