# generated using pymatgen
data_H8PbC4(N3Cl2)2
_symmetry_space_group_name_H-M   'P 1'
_cell_length_a   16.62067880
_cell_length_b   22.49982729
_cell_length_c   21.58762748
_cell_angle_alpha   89.99995485
_cell_angle_beta   89.99212331
_cell_angle_gamma   90.00113637
_symmetry_Int_Tables_number   1
_chemical_formula_structural   H8PbC4(N3Cl2)2
_chemical_formula_sum   'H192 Pb24 C96 N144 Cl96'
_cell_volume   8072.96095880
_cell_formula_units_Z   24
loop_
 _symmetry_equiv_pos_site_id
 _symmetry_equiv_pos_as_xyz
  1  'x, y, z'
loop_
 _atom_site_type_symbol
 _atom_site_label
 _atom_site_symmetry_multiplicity
 _atom_site_fract_x
 _atom_site_fract_y
 _atom_site_fract_z
 _atom_site_occupancy
  H  H0  1  0.00016683  0.03222780  0.68225822  1
  H  H1  1  -0.00592110  0.36664528  0.67985792  1
  H  H2  1  0.00916817  0.69759462  0.67768601  1
  H  H3  1  0.49574637  0.03327959  0.67986878  1
  H  H4  1  0.50008130  0.36652833  0.68245201  1
  H  H5  1  0.49222266  0.69781665  0.67958556  1
  H  H6  1  -0.00538811  0.29808904  0.17930590  1
  H  H7  1  -0.00240026  0.63482828  0.18007975  1
  H  H8  1  0.00170465  0.96752350  0.18181649  1
  H  H9  1  0.49975201  0.30110649  0.17996913  1
  H  H10  1  0.49839250  0.63396101  0.18101781  1
  H  H11  1  0.49858200  0.96881982  0.17892035  1
  H  H12  1  -0.00006800  0.03224199  0.81965582  1
  H  H13  1  -0.00710691  0.36393597  0.81984533  1
  H  H14  1  -0.00037131  0.69938034  0.81763666  1
  H  H15  1  0.49957733  0.03219719  0.82101178  1
  H  H16  1  0.50490826  0.36554258  0.82089599  1
  H  H17  1  0.49738484  0.69925530  0.81802027  1
  H  H18  1  -0.00150416  0.30011433  0.32129831  1
  H  H19  1  -0.00114622  0.63209162  0.32221512  1
  H  H20  1  0.00101509  0.96637200  0.31911507  1
  H  H21  1  0.49697609  0.30098750  0.31831127  1
  H  H22  1  0.50587828  0.63373773  0.32095976  1
  H  H23  1  0.49676202  0.96711695  0.31621350  1
  H  H24  1  0.25641188  0.19901152  0.68132750  1
  H  H25  1  0.24539739  0.53253389  0.67869562  1
  H  H26  1  0.26040805  0.86678798  0.68316159  1
  H  H27  1  0.75295666  0.19871189  0.68210570  1
  H  H28  1  0.75155483  0.53170727  0.67863974  1
  H  H29  1  0.74147998  0.86597341  0.67826441  1
  H  H30  1  0.25217266  0.13495802  0.18022567  1
  H  H31  1  0.24435630  0.46680524  0.18086064  1
  H  H32  1  0.25428855  0.80111097  0.17917732  1
  H  H33  1  0.74639638  0.13452011  0.17924738  1
  H  H34  1  0.75355634  0.46742401  0.18208140  1
  H  H35  1  0.74618300  0.80075034  0.18103121  1
  H  H36  1  0.24709298  0.19784699  0.81712056  1
  H  H37  1  0.25155018  0.53232177  0.81911237  1
  H  H38  1  0.25868780  0.86566860  0.81738661  1
  H  H39  1  0.75666846  0.19895454  0.82185478  1
  H  H40  1  0.75240684  0.53339935  0.81970056  1
  H  H41  1  0.74595641  0.86630650  0.82046324  1
  H  H42  1  0.25674558  0.13297112  0.31796881  1
  H  H43  1  0.25399269  0.46803557  0.32195727  1
  H  H44  1  0.25141686  0.80238651  0.31804443  1
  H  H45  1  0.75008426  0.13490771  0.31819629  1
  H  H46  1  0.75011378  0.46760200  0.31884671  1
  H  H47  1  0.74821789  0.79981968  0.32068883  1
  H  H48  1  0.12747909  0.05190569  0.61540957  1
  H  H49  1  0.13352646  0.38386010  0.62549593  1
  H  H50  1  0.11566736  0.72582188  0.59406511  1
  H  H51  1  0.62865784  0.04966902  0.61608708  1
  H  H52  1  0.63166007  0.38685982  0.61549937  1
  H  H53  1  0.62768380  0.71681343  0.62061658  1
  H  H54  1  0.37845587  0.27783704  0.10756401  1
  H  H55  1  0.38224068  0.61010879  0.10167421  1
  H  H56  1  0.37897378  0.94532698  0.10342547  1
  H  H57  1  0.87745132  0.27787217  0.10389899  1
  H  H58  1  0.88139725  0.61128778  0.10167666  1
  H  H59  1  0.87398269  0.94717136  0.11584733  1
  H  H60  1  0.37613653  0.05549513  0.89192202  1
  H  H61  1  0.37582912  0.38739439  0.88753832  1
  H  H62  1  0.38017942  0.72253636  0.89472502  1
  H  H63  1  0.87494917  0.05331985  0.88857936  1
  H  H64  1  0.88112497  0.38881578  0.90185409  1
  H  H65  1  0.87963443  0.72141349  0.89397888  1
  H  H66  1  0.12744918  0.27899349  0.38851673  1
  H  H67  1  0.12237282  0.61212292  0.39149064  1
  H  H68  1  0.11958383  0.94581711  0.39305558  1
  H  H69  1  0.62897120  0.28281133  0.38232673  1
  H  H70  1  0.62048774  0.60973515  0.40041921  1
  H  H71  1  0.62279952  0.94622467  0.38418717  1
  H  H72  1  0.36755387  0.22291365  0.60035419  1
  H  H73  1  0.37697950  0.55414977  0.61373869  1
  H  H74  1  0.36901534  0.88901699  0.60202224  1
  H  H75  1  0.87184847  0.22264917  0.60455967  1
  H  H76  1  0.87568678  0.55401281  0.60764322  1
  H  H77  1  0.87952030  0.88236033  0.62053496  1
  H  H78  1  0.12328655  0.11452299  0.11388949  1
  H  H79  1  0.12274784  0.44443420  0.10575162  1
  H  H80  1  0.12131578  0.78189447  0.11675550  1
  H  H81  1  0.62801896  0.10971403  0.10312310  1
  H  H82  1  0.62194819  0.44784131  0.11534291  1
  H  H83  1  0.62339782  0.78003143  0.10857431  1
  H  H84  1  0.12313857  0.22022177  0.88881046  1
  H  H85  1  0.12004747  0.55322489  0.88396555  1
  H  H86  1  0.12408175  0.88521066  0.88000612  1
  H  H87  1  0.62251316  0.21857306  0.88402083  1
  H  H88  1  0.61977630  0.55181261  0.88325071  1
  H  H89  1  0.62765324  0.88957919  0.89794875  1
  H  H90  1  0.36687835  0.11054789  0.39843329  1
  H  H91  1  0.36415528  0.44090333  0.40267172  1
  H  H92  1  0.37640095  0.77896156  0.38738696  1
  H  H93  1  0.87032658  0.11248376  0.39383903  1
  H  H94  1  0.86831029  0.44762368  0.39280655  1
  H  H95  1  0.87961041  0.78007371  0.38404861  1
  H  H96  1  0.37946545  0.27703353  0.39547080  1
  H  H97  1  0.37266750  0.61351096  0.38235053  1
  H  H98  1  0.37303750  0.94709758  0.38656911  1
  H  H99  1  0.87844371  0.27894309  0.39585608  1
  H  H100  1  0.87353826  0.61301306  0.39038475  1
  H  H101  1  0.87078053  0.94668496  0.38408676  1
  H  H102  1  0.12424796  0.05379474  0.88864878  1
  H  H103  1  0.12767654  0.38462354  0.88012442  1
  H  H104  1  0.12800757  0.71997302  0.88775488  1
  H  H105  1  0.62524636  0.05311035  0.89193480  1
  H  H106  1  0.62470484  0.38941115  0.89499755  1
  H  H107  1  0.62907169  0.71911174  0.88460703  1
  H  H108  1  0.12559827  0.28124589  0.11601890  1
  H  H109  1  0.12956568  0.61302633  0.11785194  1
  H  H110  1  0.12320849  0.94599640  0.10939049  1
  H  H111  1  0.62823246  0.27955599  0.11170988  1
  H  H112  1  0.62994927  0.61496357  0.11547565  1
  H  H113  1  0.62807244  0.94739924  0.11397289  1
  H  H114  1  0.38073696  0.05785655  0.60211229  1
  H  H115  1  0.38247328  0.39020427  0.60628963  1
  H  H116  1  0.38038613  0.72469591  0.59894617  1
  H  H117  1  0.87838264  0.05324979  0.61020979  1
  H  H118  1  0.88682378  0.39028523  0.59825813  1
  H  H119  1  0.87041674  0.71379810  0.62120405  1
  H  H120  1  0.11923952  0.11644823  0.37570463  1
  H  H121  1  0.11736687  0.45133286  0.38185868  1
  H  H122  1  0.12650421  0.77707243  0.38871200  1
  H  H123  1  0.62193910  0.11261723  0.38851266  1
  H  H124  1  0.61951656  0.44852452  0.38374973  1
  H  H125  1  0.63102459  0.77631831  0.39524855  1
  H  H126  1  0.37241754  0.22021455  0.88829567  1
  H  H127  1  0.36762225  0.55573224  0.89857093  1
  H  H128  1  0.37231559  0.89105237  0.89637521  1
  H  H129  1  0.87047708  0.22367514  0.90062441  1
  H  H130  1  0.86831494  0.55693342  0.89828668  1
  H  H131  1  0.87593028  0.88663571  0.88587913  1
  H  H132  1  0.37191382  0.11028988  0.10478066  1
  H  H133  1  0.37105863  0.44606313  0.11153881  1
  H  H134  1  0.36917057  0.77555946  0.10172885  1
  H  H135  1  0.87646915  0.11576834  0.11348918  1
  H  H136  1  0.87073488  0.44378493  0.10550540  1
  H  H137  1  0.87253985  0.78062684  0.11446483  1
  H  H138  1  0.11993273  0.21923668  0.62092188  1
  H  H139  1  0.12882587  0.55605809  0.60104738  1
  H  H140  1  0.12245570  0.88342103  0.62730166  1
  H  H141  1  0.62361838  0.21986047  0.61351055  1
  H  H142  1  0.62656728  0.55421566  0.60767808  1
  H  H143  1  0.63384166  0.89281234  0.59558471  1
  H  H144  1  0.94545271  0.58644036  -0.00232297  1
  H  H145  1  0.44966441  0.74801861  0.49598354  1
  H  H146  1  0.44838519  0.58257708  -0.00044728  1
  H  H147  1  0.92568461  0.08236569  0.50069756  1
  H  H148  1  0.44102496  0.74866337  1.00294629  1
  H  H149  1  0.32926886  0.75497142  0.49988416  1
  H  H150  1  0.44593361  0.07082350  0.49784386  1
  H  H151  1  0.91509820  0.08347584  0.99893569  1
  H  H152  1  0.68294366  0.74700087  0.50393400  1
  H  H153  1  0.30153677  0.58002096  1.00155393  1
  H  H154  1  0.44230784  0.41719582  0.49814145  1
  H  H155  1  0.29202843  0.42681688  0.50592991  1
  H  H156  1  0.07590753  0.91888289  -0.00028863  1
  H  H157  1  0.88871994  0.74665695  0.51311340  1
  H  H158  1  0.58703879  0.24958131  0.00688573  1
  H  H159  1  0.08599680  0.25023819  0.49461242  1
  H  H160  1  0.33916147  0.58080213  0.50679061  1
  H  H161  1  0.03892553  0.73622872  0.49276836  1
  H  H162  1  0.17089727  0.24812108  0.99752820  1
  H  H163  1  0.14127510  0.41839205  0.49113007  1
  H  H164  1  0.29986419  0.24763645  0.49410055  1
  H  H165  1  0.42852183  0.24746221  -0.00128197  1
  H  H166  1  0.08330387  0.08345255  0.99928034  1
  H  H167  1  0.30332570  0.76038137  -0.00237607  1
  H  H168  1  0.81062804  0.41497500  -0.00179937  1
  H  H169  1  0.59400792  0.08771180  0.51389914  1
  H  H170  1  0.81400900  0.41962292  0.50421975  1
  H  H171  1  0.59478753  0.25476017  0.49429018  1
  H  H172  1  0.15533386  0.74592832  0.01275701  1
  H  H173  1  0.43864136  0.91978181  -0.00167695  1
  H  H174  1  0.17680474  0.41737905  0.00327102  1
  H  H175  1  0.85920313  0.91619977  0.51312948  1
  H  H176  1  0.83177375  0.75296272  0.00104790  1
  H  H177  1  0.09262477  0.08065577  0.50348667  1
  H  H178  1  0.30124256  0.08332643  0.50620871  1
  H  H179  1  0.17673320  0.75922744  0.49628528  1
  H  H180  1  0.95187318  0.41047448  1.00359401  1
  H  H181  1  0.07075878  0.91864944  0.50287217  1
  H  H182  1  0.80405453  0.58471213  1.00134314  1
  H  H183  1  0.90949387  0.91857934  0.00393975  1
  H  H184  1  0.42007194  0.92163695  0.49922587  1
  H  H185  1  0.95661310  0.41890415  0.49162524  1
  H  H186  1  0.70872073  0.90569940  0.49361315  1
  H  H187  1  0.43894517  0.25327568  0.49976174  1
  H  H188  1  0.30109567  0.91529255  0.49386607  1
  H  H189  1  0.58021549  0.92203394  0.49732529  1
  H  H190  1  0.41805557  0.41646939  0.99376630  1
  H  H191  1  0.30647429  0.91919083  1.00282243  1
  Pb  Pb192  1  0.25076308  0.04668230  0.74917741  1
  Pb  Pb193  1  0.25262095  0.38148005  0.74843454  1
  Pb  Pb194  1  0.25038640  0.71518290  0.74774565  1
  Pb  Pb195  1  0.75078157  0.04741464  0.75301140  1
  Pb  Pb196  1  0.75302186  0.37963173  0.75187947  1
  Pb  Pb197  1  0.74792196  0.71325014  0.75311021  1
  Pb  Pb198  1  0.25254847  0.28513363  0.25146098  1
  Pb  Pb199  1  0.25098361  0.61733623  0.24758003  1
  Pb  Pb200  1  0.24974085  0.95471292  0.24776996  1
  Pb  Pb201  1  0.74885322  0.28782588  0.24809055  1
  Pb  Pb202  1  0.75358297  0.61875612  0.24649621  1
  Pb  Pb203  1  0.74989298  0.95132662  0.25476071  1
  Pb  Pb204  1  -0.00020028  0.21312726  0.74863078  1
  Pb  Pb205  1  -0.00409729  0.54786772  0.75285762  1
  Pb  Pb206  1  -0.00225754  0.88006385  0.75296301  1
  Pb  Pb207  1  0.50059279  0.21415859  0.74916746  1
  Pb  Pb208  1  0.50039837  0.54604058  0.75390813  1
  Pb  Pb209  1  0.50171138  0.88369004  0.74977998  1
  Pb  Pb210  1  -0.00311608  0.12075971  0.24916130  1
  Pb  Pb211  1  -0.00118798  0.45001738  0.24484650  1
  Pb  Pb212  1  0.00291520  0.78552850  0.25542704  1
  Pb  Pb213  1  0.50188970  0.11875149  0.25275891  1
  Pb  Pb214  1  0.49939599  0.45356742  0.24994464  1
  Pb  Pb215  1  0.49863578  0.78452859  0.25148776  1
  C  C216  1  0.00212101  0.04660705  0.63424319  1
  C  C217  1  0.00491446  0.38004544  0.63222395  1
  C  C218  1  -0.00161716  0.71207962  0.63027556  1
  C  C219  1  0.50197820  0.04739684  0.63188325  1
  C  C220  1  0.50505709  0.38062546  0.63454705  1
  C  C221  1  0.49972608  0.71249565  0.63212754  1
  C  C222  1  -0.00062482  0.28553549  0.13107991  1
  C  C223  1  0.00266336  0.62049440  0.13239849  1
  C  C224  1  -0.00038391  0.95284670  0.13391266  1
  C  C225  1  0.50256270  0.28584719  0.13224486  1
  C  C226  1  0.50335475  0.61961525  0.13318501  1
  C  C227  1  0.50162034  0.95419800  0.13124914  1
  C  C228  1  -0.00026487  0.04736357  0.86744105  1
  C  C229  1  0.00030561  0.37857461  0.86739633  1
  C  C230  1  0.00265812  0.71348004  0.86566669  1
  C  C231  1  0.50050196  0.04705722  0.86856827  1
  C  C232  1  0.50142392  0.38045614  0.86849935  1
  C  C233  1  0.50250301  0.71371479  0.86578099  1
  C  C234  1  0.00196314  0.28577536  0.36909408  1
  C  C235  1  -0.00173001  0.61886359  0.37049381  1
  C  C236  1  -0.00255591  0.95285220  0.36720351  1
  C  C237  1  0.50155665  0.28645591  0.36623367  1
  C  C238  1  0.49976963  0.61917166  0.36846400  1
  C  C239  1  0.49762975  0.95317824  0.36440072  1
  C  C240  1  0.24754815  0.21383665  0.63393495  1
  C  C241  1  0.25077661  0.54770890  0.63116103  1
  C  C242  1  0.25072475  0.87993660  0.63544501  1
  C  C243  1  0.74936527  0.21293469  0.63418407  1
  C  C244  1  0.75105965  0.54650775  0.63105139  1
  C  C245  1  0.75164446  0.88020607  0.63062383  1
  C  C246  1  0.24935297  0.11983654  0.13278460  1
  C  C247  1  0.24571323  0.45233106  0.13297241  1
  C  C248  1  0.24805888  0.78638243  0.13141365  1
  C  C249  1  0.75012774  0.11992112  0.13166390  1
  C  C250  1  0.74850789  0.45310074  0.13426586  1
  C  C251  1  0.74793258  0.78686774  0.13306448  1
  C  C252  1  0.24765938  0.21274334  0.86483320  1
  C  C253  1  0.24663446  0.54689732  0.86684846  1
  C  C254  1  0.25132520  0.88025725  0.86495549  1
  C  C255  1  0.74953394  0.21354158  0.86920135  1
  C  C256  1  0.74697067  0.54716025  0.86749468  1
  C  C257  1  0.74960322  0.88047119  0.86823867  1
  C  C258  1  0.24777689  0.11978864  0.36575523  1
  C  C259  1  0.24486045  0.45364778  0.36959691  1
  C  C260  1  0.25080568  0.78689182  0.36581050  1
  C  C261  1  0.74718386  0.12018882  0.36604242  1
  C  C262  1  0.74618253  0.45418444  0.36687702  1
  C  C263  1  0.75257499  0.78584650  0.36863154  1
  C  C264  1  0.03753626  0.59484348  0.46342947  1
  C  C265  1  0.72216775  0.75897469  0.46490711  1
  C  C266  1  0.27482495  0.90697111  0.96039939  1
  C  C267  1  0.96564583  0.25882337  0.46426170  1
  C  C268  1  0.69367231  0.57235909  0.95833803  1
  C  C269  1  0.54021381  0.93027404  0.45845707  1
  C  C270  1  0.45820520  0.93030532  0.45934436  1
  C  C271  1  0.27060452  0.90473847  0.53710697  1
  C  C272  1  0.19018187  0.90273124  0.54769244  1
  C  C273  1  0.69700751  0.43030843  0.45813350  1
  C  C274  1  0.53792985  0.40938283  0.96302981  1
  C  C275  1  0.55194016  0.26284656  0.45721115  1
  C  C276  1  0.47455555  0.73909243  0.96083911  1
  C  C277  1  0.04755770  0.07088685  0.54084690  1
  C  C278  1  0.06759922  0.40329945  0.54495542  1
  C  C279  1  0.94808470  0.93023624  0.45948461  1
  C  C280  1  0.02981909  0.92876179  0.46390883  1
  C  C281  1  0.95695427  0.59517603  0.46304003  1
  C  C282  1  0.80367316  0.76147336  0.45978134  1
  C  C283  1  0.26882959  0.23855111  0.53755115  1
  C  C284  1  0.96537665  0.07191803  0.53920820  1
  C  C285  1  0.96796552  0.26211614  0.03551317  1
  C  C286  1  0.70914256  0.76217542  0.03872150  1
  C  C287  1  0.79532378  0.90613481  0.95966677  1
  C  C288  1  0.95396494  0.92827891  0.04071090  1
  C  C289  1  0.55087095  0.92681834  0.04001474  1
  C  C290  1  0.29226826  0.76114025  0.45877191  1
  C  C291  1  0.47638244  0.40619168  0.53966502  1
  C  C292  1  0.21129812  0.23811482  0.95832049  1
  C  C293  1  0.77656466  0.42668349  0.03948270  1
  C  C294  1  0.46426277  0.07595858  0.96078753  1
  C  C295  1  0.18834827  0.09626922  0.45402638  1
  C  C296  1  0.95820929  0.07324598  0.96142126  1
  C  C297  1  0.77815538  0.42956271  0.46337740  1
  C  C298  1  0.46584658  0.25841866  0.03838106  1
  C  C299  1  0.04061096  0.07336125  0.96154180  1
  C  C300  1  0.98704505  0.40651349  0.53436198  1
  C  C301  1  0.26916626  0.09415084  0.46364513  1
  C  C302  1  0.79068774  0.76224074  0.03896314  1
  C  C303  1  0.04902570  0.26334134  0.03968834  1
  C  C304  1  0.03621950  0.92818155  0.03855881  1
  C  C305  1  0.55770314  0.73907131  0.54343288  1
  C  C306  1  0.77466577  0.24185565  0.96427830  1
  C  C307  1  0.20509787  0.09287324  0.04143600  1
  C  C308  1  0.05570709  0.59246044  0.04248679  1
  C  C309  1  0.78801160  0.57387663  0.53833883  1
  C  C310  1  0.44991656  0.59281096  0.45822570  1
  C  C311  1  0.79553665  0.09360509  0.04060346  1
  N  N312  1  0.69732570  0.24035240  0.96003651  1
  N  N313  1  0.29196571  0.42938420  0.04005528  1
  N  N314  1  0.70468843  0.09497924  0.45931243  1
  N  N315  1  0.47407203  0.07882815  0.53935227  1
  N  N316  1  0.71809520  0.09110676  0.03603983  1
  N  N317  1  0.05774941  0.40326501  0.95590651  1
  N  N318  1  0.21831121  0.57263163  0.53547275  1
  N  N319  1  0.29638527  0.57204898  0.54137974  1
  N  N320  1  0.55250298  0.06624768  0.54154672  1
  N  N321  1  0.45899197  0.40753579  0.95970022  1
  N  N322  1  0.71078917  0.57435731  0.53712405  1
  N  N323  1  0.55367787  0.73861206  0.95730219  1
  N  N324  1  0.69749398  0.42839633  0.04263458  1
  N  N325  1  0.47203194  0.92657450  0.03748473  1
  N  N326  1  0.97994874  0.40534068  0.96167887  1
  N  N327  1  0.47801580  0.59479436  0.03914964  1
  N  N328  1  0.26676439  0.42115836  0.46276291  1
  N  N329  1  0.47248919  0.26003680  0.46055611  1
  N  N330  1  0.77226059  0.57349534  0.96237700  1
  N  N331  1  0.27563429  0.75303296  0.03946686  1
  N  N332  1  0.19585813  0.90455937  0.95516318  1
  N  N333  1  0.54160638  0.07516119  0.96208592  1
  N  N334  1  0.78095602  0.23935924  0.53896664  1
  N  N335  1  0.21323705  0.42970847  0.03950989  1
  N  N336  1  0.19405518  0.57097779  0.95739584  1
  N  N337  1  0.96907993  0.73858529  0.96095738  1
  N  N338  1  0.28262565  0.09136056  0.03721673  1
  N  N339  1  0.73275613  0.91280645  0.53694737  1
  N  N340  1  0.54557816  0.25927447  0.04103494  1
  N  N341  1  0.70478817  0.23860208  0.54177908  1
  N  N342  1  0.21261363  0.75902605  0.45776681  1
  N  N343  1  0.27188627  0.57214986  0.96078520  1
  N  N344  1  0.71796558  0.90709379  0.96479232  1
  N  N345  1  0.04456228  0.25943126  0.46047458  1
  N  N346  1  0.01557951  0.74435247  0.53620373  1
  N  N347  1  0.55579391  0.59612330  0.04248267  1
  N  N348  1  0.29071930  0.23850643  0.95865962  1
  N  N349  1  0.97701566  0.59301843  0.03794261  1
  N  N350  1  0.47906196  0.74116587  0.53716449  1
  N  N351  1  0.81047707  0.90112267  0.54358843  1
  N  N352  1  0.19718462  0.76529773  0.04175505  1
  N  N353  1  0.18904611  0.43287202  0.45774622  1
  N  N354  1  0.52720721  0.59147278  0.46531742  1
  N  N355  1  0.04580506  0.73730950  0.95906280  1
  N  N356  1  0.78143622  0.09416432  0.46097090  1
  N  N357  1  0.55557045  0.40469958  0.54258561  1
  N  N358  1  0.19002790  0.23796305  0.54444556  1
  N  N359  1  0.93816995  0.73227560  0.54368868  1
  N  N360  1  0.06856252  0.05517817  0.60034219  1
  N  N361  1  0.07765208  0.38751431  0.60478111  1
  N  N362  1  0.05356937  0.72218575  0.58722498  1
  N  N363  1  0.56980806  0.05761617  0.60167226  1
  N  N364  1  0.57167218  0.38910327  0.60182865  1
  N  N365  1  0.57041238  0.72217932  0.60232753  1
  N  N366  1  0.43895682  0.27486561  0.09502434  1
  N  N367  1  0.44422130  0.60864886  0.09393104  1
  N  N368  1  0.44044647  0.94468312  0.09341438  1
  N  N369  1  0.93804210  0.27554330  0.09149791  1
  N  N370  1  0.94318389  0.61179738  0.09283623  1
  N  N371  1  0.93309307  0.94357320  0.10038872  1
  N  N372  1  0.43606782  0.05886900  0.90456605  1
  N  N373  1  0.43566736  0.38947704  0.90141187  1
  N  N374  1  0.44142295  0.72417229  0.90496260  1
  N  N375  1  0.93467169  0.05721021  0.90244034  1
  N  N376  1  0.94336702  0.38825328  0.90893724  1
  N  N377  1  0.94124216  0.72404418  0.90324846  1
  N  N378  1  0.06769024  0.27599777  0.40179646  1
  N  N379  1  0.06317147  0.60899446  0.40693774  1
  N  N380  1  0.05913595  0.94309741  0.40507477  1
  N  N381  1  0.57021947  0.27821005  0.39841820  1
  N  N382  1  0.55841146  0.60814859  0.40803506  1
  N  N383  1  0.56334371  0.94432078  0.39901393  1
  N  N384  1  0.30557464  0.22438047  0.59218453  1
  N  N385  1  0.31735218  0.55719048  0.59924614  1
  N  N386  1  0.30771830  0.89029980  0.59313493  1
  N  N387  1  0.81012521  0.22356693  0.59593504  1
  N  N388  1  0.81574404  0.55714089  0.59489670  1
  N  N389  1  0.82186719  0.88960556  0.60350453  1
  N  N390  1  0.18237946  0.11006767  0.09925312  1
  N  N391  1  0.18387079  0.44235810  0.09589230  1
  N  N392  1  0.18019319  0.77588920  0.10141575  1
  N  N393  1  0.68964500  0.10791664  0.09405599  1
  N  N394  1  0.68180278  0.44464087  0.10171361  1
  N  N395  1  0.68331120  0.77694329  0.09538308  1
  N  N396  1  0.18353380  0.22274272  0.90096952  1
  N  N397  1  0.17883221  0.55629633  0.89826059  1
  N  N398  1  0.18318696  0.88824398  0.89552483  1
  N  N399  1  0.68157220  0.22245223  0.89931105  1
  N  N400  1  0.67762789  0.55611579  0.89966968  1
  N  N401  1  0.68926989  0.89057624  0.90653862  1
  N  N402  1  0.30528829  0.10916124  0.40734119  1
  N  N403  1  0.30197374  0.44347018  0.41109962  1
  N  N404  1  0.31629527  0.77651010  0.40124152  1
  N  N405  1  0.80884286  0.10982768  0.40342426  1
  N  N406  1  0.80790701  0.44462441  0.40510140  1
  N  N407  1  0.82134194  0.77745227  0.40115437  1
  N  N408  1  0.44134114  0.27573189  0.40468739  1
  N  N409  1  0.43072443  0.60946709  0.39931896  1
  N  N410  1  0.43295342  0.94439552  0.40045421  1
  N  N411  1  0.93900601  0.27532125  0.40780533  1
  N  N412  1  0.93259284  0.60962337  0.40624292  1
  N  N413  1  0.92940693  0.94445645  0.40056060  1
  N  N414  1  0.06461475  0.05733453  0.90265086  1
  N  N415  1  0.06943654  0.38823816  0.89661175  1
  N  N416  1  0.06774679  0.72179849  0.89995539  1
  N  N417  1  0.56448129  0.05700511  0.90338742  1
  N  N418  1  0.56454349  0.39250086  0.90680609  1
  N  N419  1  0.56924135  0.72294391  0.89807686  1
  N  N420  1  0.06764311  0.27750337  0.09835128  1
  N  N421  1  0.07193616  0.60903536  0.10089240  1
  N  N422  1  0.06310143  0.94335100  0.09682704  1
  N  N423  1  0.56778075  0.27612286  0.09886567  1
  N  N424  1  0.57111016  0.61167509  0.10129679  1
  N  N425  1  0.56943199  0.94331224  0.09801886  1
  N  N426  1  0.44251369  0.05585475  0.59205045  1
  N  N427  1  0.44379887  0.39123007  0.59564007  1
  N  N428  1  0.44200236  0.72299721  0.59143968  1
  N  N429  1  0.93863342  0.05687466  0.59764746  1
  N  N430  1  0.94868478  0.39152262  0.58990375  1
  N  N431  1  0.92771057  0.72100489  0.60366252  1
  N  N432  1  0.17610231  0.11172064  0.39485145  1
  N  N433  1  0.17542071  0.44467483  0.39813885  1
  N  N434  1  0.18722042  0.77853364  0.40141726  1
  N  N435  1  0.68238212  0.11058738  0.40016278  1
  N  N436  1  0.67788648  0.44507062  0.39998533  1
  N  N437  1  0.69160310  0.77479726  0.40682321  1
  N  N438  1  0.31150824  0.22254090  0.90005553  1
  N  N439  1  0.30571463  0.55668760  0.90647064  1
  N  N440  1  0.31041241  0.89191069  0.90550744  1
  N  N441  1  0.80912662  0.22579275  0.90983607  1
  N  N442  1  0.80642787  0.55752443  0.90668139  1
  N  N443  1  0.81706497  0.89004980  0.90123009  1
  N  N444  1  0.31035563  0.10844059  0.09547596  1
  N  N445  1  0.31095536  0.44398224  0.09837927  1
  N  N446  1  0.30746872  0.77721107  0.09165907  1
  N  N447  1  0.81762897  0.11096751  0.09847993  1
  N  N448  1  0.80958972  0.44194061  0.09535011  1
  N  N449  1  0.81359538  0.77754223  0.09893773  1
  N  N450  1  0.17866824  0.22246862  0.60477545  1
  N  N451  1  0.19036219  0.55802750  0.59195756  1
  N  N452  1  0.17880801  0.88803541  0.60712477  1
  N  N453  1  0.68363844  0.22195422  0.60080412  1
  N  N454  1  0.68733782  0.55699543  0.59617459  1
  N  N455  1  0.69579487  0.88987001  0.58793378  1
  Cl  Cl456  1  0.25973935  0.05436493  0.61388627  1
  Cl  Cl457  1  0.26173693  0.39395596  0.60859902  1
  Cl  Cl458  1  0.24426010  0.72683824  0.60379547  1
  Cl  Cl459  1  0.75132162  0.04697513  0.61960793  1
  Cl  Cl460  1  0.76062266  0.38886170  0.61854368  1
  Cl  Cl461  1  0.74996407  0.71761257  0.62015742  1
  Cl  Cl462  1  0.25313075  0.28145524  0.12031174  1
  Cl  Cl463  1  0.26134640  0.61069569  0.10679978  1
  Cl  Cl464  1  0.25545002  0.94402920  0.11216631  1
  Cl  Cl465  1  0.75154795  0.28087645  0.11538335  1
  Cl  Cl466  1  0.75976652  0.61041515  0.10599126  1
  Cl  Cl467  1  0.75093981  0.94957638  0.12753363  1
  Cl  Cl468  1  0.25049473  0.05066352  0.87695587  1
  Cl  Cl469  1  0.25170234  0.38807085  0.88220698  1
  Cl  Cl470  1  0.25488416  0.72520296  0.89312349  1
  Cl  Cl471  1  0.75039795  0.05028541  0.88056303  1
  Cl  Cl472  1  0.75827220  0.38843093  0.88775471  1
  Cl  Cl473  1  0.75643062  0.71647741  0.88586960  1
  Cl  Cl474  1  0.25618069  0.27943801  0.38884533  1
  Cl  Cl475  1  0.24933474  0.61433674  0.37961005  1
  Cl  Cl476  1  0.24777673  0.94670049  0.37996891  1
  Cl  Cl477  1  0.75424080  0.28504085  0.37885409  1
  Cl  Cl478  1  0.74590576  0.61422988  0.37685341  1
  Cl  Cl479  1  0.74566890  0.93902125  0.39190468  1
  Cl  Cl480  1  -0.00490387  0.22374772  0.61264074  1
  Cl  Cl481  1  0.00377283  0.55324704  0.62149531  1
  Cl  Cl482  1  -0.00149826  0.88176384  0.62030951  1
  Cl  Cl483  1  0.49314195  0.22253612  0.60638391  1
  Cl  Cl484  1  0.49960959  0.55294607  0.62275392  1
  Cl  Cl485  1  0.50577285  0.88931939  0.61357031  1
  Cl  Cl486  1  -0.00002507  0.11511836  0.11677112  1
  Cl  Cl487  1  -0.00318519  0.44424323  0.10551131  1
  Cl  Cl488  1  -0.00031629  0.78022902  0.12566077  1
  Cl  Cl489  1  0.49962579  0.11355100  0.12110941  1
  Cl  Cl490  1  0.49426200  0.44507879  0.11432748  1
  Cl  Cl491  1  0.49097934  0.78100821  0.11608941  1
  Cl  Cl492  1  -0.00368337  0.22094145  0.87958747  1
  Cl  Cl493  1  -0.01023099  0.55649799  0.89481953  1
  Cl  Cl494  1  -0.00069844  0.88781126  0.88389458  1
  Cl  Cl495  1  0.49717408  0.22212859  0.88424662  1
  Cl  Cl496  1  0.48845988  0.55415290  0.89362262  1
  Cl  Cl497  1  0.49594866  0.89169162  0.89033297  1
  Cl  Cl498  1  -0.00741724  0.11596660  0.38286443  1
  Cl  Cl499  1  -0.00623282  0.44843042  0.37803723  1
  Cl  Cl500  1  0.00600059  0.77176717  0.39278694  1
  Cl  Cl501  1  0.49475429  0.10941640  0.39564496  1
  Cl  Cl502  1  0.48509045  0.44432632  0.38435909  1
  Cl  Cl503  1  0.49897669  0.77539047  0.38941412  1
  Cl  Cl504  1  0.36126836  0.14449643  0.74894265  1
  Cl  Cl505  1  0.36211399  0.47725031  0.74842761  1
  Cl  Cl506  1  0.35729301  0.81053883  0.74950852  1
  Cl  Cl507  1  0.86291112  0.14329637  0.74989081  1
  Cl  Cl508  1  0.86290330  0.47824612  0.75189976  1
  Cl  Cl509  1  0.86366267  0.81037255  0.74706120  1
  Cl  Cl510  1  0.13674220  0.18974025  0.25287227  1
  Cl  Cl511  1  0.13947046  0.52392626  0.24995576  1
  Cl  Cl512  1  0.13733695  0.85503308  0.24790864  1
  Cl  Cl513  1  0.63541402  0.19065334  0.25125919  1
  Cl  Cl514  1  0.63537496  0.52263041  0.24730763  1
  Cl  Cl515  1  0.63741334  0.85691022  0.25113202  1
  Cl  Cl516  1  0.13591144  0.14281905  0.74589517  1
  Cl  Cl517  1  0.14163777  0.47635282  0.75154082  1
  Cl  Cl518  1  0.13607948  0.80983956  0.74944351  1
  Cl  Cl519  1  0.63468393  0.14336509  0.74879954  1
  Cl  Cl520  1  0.63566073  0.47741521  0.75164257  1
  Cl  Cl521  1  0.64151348  0.80920209  0.75026916  1
  Cl  Cl522  1  0.36154008  0.18993681  0.25240631  1
  Cl  Cl523  1  0.35861178  0.52261335  0.24897589  1
  Cl  Cl524  1  0.36069949  0.85519121  0.25121986  1
  Cl  Cl525  1  0.86248974  0.19001021  0.24840689  1
  Cl  Cl526  1  0.86044759  0.52383342  0.24754392  1
  Cl  Cl527  1  0.86271828  0.85665877  0.25435041  1
  Cl  Cl528  1  0.11471541  0.31076554  0.74666759  1
  Cl  Cl529  1  0.11436176  0.64459407  0.75232372  1
  Cl  Cl530  1  0.11276184  0.97623812  0.74887717  1
  Cl  Cl531  1  0.60944227  0.30971325  0.74946076  1
  Cl  Cl532  1  0.61225168  0.64435218  0.75127746  1
  Cl  Cl533  1  0.61092067  0.97574417  0.74761429  1
  Cl  Cl534  1  0.38723937  0.02210974  0.25243091  1
  Cl  Cl535  1  0.38729263  0.35493007  0.24917371  1
  Cl  Cl536  1  0.38681375  0.69055042  0.25187579  1
  Cl  Cl537  1  0.88835733  0.02237649  0.25234081  1
  Cl  Cl538  1  0.89099061  0.35647838  0.24812953  1
  Cl  Cl539  1  0.88732965  0.68914380  0.25296978  1
  Cl  Cl540  1  0.38728698  0.31044680  0.75216370  1
  Cl  Cl541  1  0.38557156  0.64509830  0.74957424  1
  Cl  Cl542  1  0.38965898  0.97648517  0.74849962  1
  Cl  Cl543  1  0.88943938  0.31258382  0.74986447  1
  Cl  Cl544  1  0.89105057  0.64284514  0.74840192  1
  Cl  Cl545  1  0.88784971  0.97640399  0.74905063  1
  Cl  Cl546  1  0.11277401  0.02328325  0.25082739  1
  Cl  Cl547  1  0.11250977  0.35806084  0.25006652  1
  Cl  Cl548  1  0.11277309  0.69002863  0.24997860  1
  Cl  Cl549  1  0.61111287  0.02307734  0.25271107  1
  Cl  Cl550  1  0.61171965  0.35695493  0.25047612  1
  Cl  Cl551  1  0.60914420  0.69065625  0.24575363  1
