# generated using pymatgen
data_H8PbC4(N3Cl2)2
_symmetry_space_group_name_H-M   'P 1'
_cell_length_a   16.63088434
_cell_length_b   22.51879656
_cell_length_c   21.59525640
_cell_angle_alpha   89.99996173
_cell_angle_beta   89.99780552
_cell_angle_gamma   89.99861535
_symmetry_Int_Tables_number   1
_chemical_formula_structural   H8PbC4(N3Cl2)2
_chemical_formula_sum   'H192 Pb24 C96 N144 Cl96'
_cell_volume   8087.58550358
_cell_formula_units_Z   24
loop_
 _symmetry_equiv_pos_site_id
 _symmetry_equiv_pos_as_xyz
  1  'x, y, z'
loop_
 _atom_site_type_symbol
 _atom_site_label
 _atom_site_symmetry_multiplicity
 _atom_site_fract_x
 _atom_site_fract_y
 _atom_site_fract_z
 _atom_site_occupancy
  H  H0  1  -0.01188279  0.03039292  0.67389761  1
  H  H1  1  -0.00286119  0.35899257  0.67965513  1
  H  H2  1  -0.00379952  0.69495077  0.67675358  1
  H  H3  1  0.51379920  0.03475350  0.67839520  1
  H  H4  1  0.50808181  0.36236798  0.68110874  1
  H  H5  1  0.48940556  0.69548556  0.67963044  1
  H  H6  1  0.01032025  0.30396374  0.17982604  1
  H  H7  1  0.00440132  0.64290148  0.17441002  1
  H  H8  1  0.01104657  0.96937888  0.17924309  1
  H  H9  1  0.48606163  0.30546309  0.17671192  1
  H  H10  1  0.50606448  0.64008373  0.17644159  1
  H  H11  1  0.48744156  0.96845803  0.18050637  1
  H  H12  1  -0.01989402  0.02467095  0.82354045  1
  H  H13  1  -0.00256325  0.36067718  0.81909508  1
  H  H14  1  -0.00526935  0.70001548  0.82729635  1
  H  H15  1  0.51492348  0.02808294  0.82264769  1
  H  H16  1  0.49331507  0.36232877  0.81833298  1
  H  H17  1  0.50949020  0.69329611  0.82522831  1
  H  H18  1  -0.01458764  0.30214084  0.32409764  1
  H  H19  1  0.00487064  0.63881402  0.32245583  1
  H  H20  1  -0.01726465  0.96990913  0.31818347  1
  H  H21  1  0.51682588  0.30275865  0.31959143  1
  H  H22  1  0.50375733  0.63654243  0.32336696  1
  H  H23  1  0.51487330  0.96958033  0.32285533  1
  H  H24  1  0.26199114  0.19534921  0.68042623  1
  H  H25  1  0.24459027  0.52861923  0.67804537  1
  H  H26  1  0.24824498  0.86530792  0.67982009  1
  H  H27  1  0.75092596  0.19504046  0.67553425  1
  H  H28  1  0.74223482  0.53028182  0.68397585  1
  H  H29  1  0.75742452  0.86258343  0.68140726  1
  H  H30  1  0.24376996  0.13632092  0.17667255  1
  H  H31  1  0.24883884  0.47168556  0.17667537  1
  H  H32  1  0.24155325  0.80490238  0.17253994  1
  H  H33  1  0.75228692  0.14174638  0.17996049  1
  H  H34  1  0.75111324  0.47189997  0.18161842  1
  H  H35  1  0.75100636  0.80401931  0.17256938  1
  H  H36  1  0.25027217  0.19807227  0.81905085  1
  H  H37  1  0.24478306  0.53354551  0.81919645  1
  H  H38  1  0.24901738  0.86163929  0.82874726  1
  H  H39  1  0.74210631  0.19629403  0.82528791  1
  H  H40  1  0.74908446  0.53131252  0.82091793  1
  H  H41  1  0.74950093  0.85928495  0.82027451  1
  H  H42  1  0.26282746  0.13914896  0.32211688  1
  H  H43  1  0.24752296  0.47143647  0.32049658  1
  H  H44  1  0.25211141  0.80441114  0.31984374  1
  H  H45  1  0.74431933  0.14160122  0.32479492  1
  H  H46  1  0.74136827  0.46843093  0.31899408  1
  H  H47  1  0.75981238  0.80145147  0.31939105  1
  H  H48  1  0.11949462  0.05320840  0.61010013  1
  H  H49  1  0.11537819  0.38929070  0.60662633  1
  H  H50  1  0.13311803  0.72054118  0.62263273  1
  H  H51  1  0.61343118  0.06469141  0.59039421  1
  H  H52  1  0.61413887  0.38647401  0.59785866  1
  H  H53  1  0.62858207  0.71912355  0.62760227  1
  H  H54  1  0.38605485  0.27540784  0.08917841  1
  H  H55  1  0.37208781  0.61750380  0.12071698  1
  H  H56  1  0.37673243  0.94147647  0.09736990  1
  H  H57  1  0.87988871  0.28149709  0.11503124  1
  H  H58  1  0.86668505  0.62232330  0.11785282  1
  H  H59  1  0.87539939  0.94484184  0.12015372  1
  H  H60  1  0.37237264  0.04668488  0.87399134  1
  H  H61  1  0.37368667  0.38845971  0.89198504  1
  H  H62  1  0.37029141  0.71641160  0.87794034  1
  H  H63  1  0.88245667  0.06027224  0.91011803  1
  H  H64  1  0.87654314  0.38809147  0.89297768  1
  H  H65  1  0.86938516  0.72168544  0.89471174  1
  H  H66  1  0.12459469  0.28609535  0.37419250  1
  H  H67  1  0.11611336  0.60781683  0.40228778  1
  H  H68  1  0.12308653  0.95211109  0.36832883  1
  H  H69  1  0.63271005  0.27666343  0.39907191  1
  H  H70  1  0.61505878  0.60760490  0.40317456  1
  H  H71  1  0.61490207  0.94128745  0.41055070  1
  H  H72  1  0.37522364  0.22274751  0.60222591  1
  H  H73  1  0.38177025  0.55083312  0.62081468  1
  H  H74  1  0.37711371  0.88776686  0.61023888  1
  H  H75  1  0.87099027  0.22208628  0.60283708  1
  H  H76  1  0.88081659  0.55000145  0.62644144  1
  H  H77  1  0.87950418  0.88975252  0.61138869  1
  H  H78  1  0.12543304  0.10953567  0.10196632  1
  H  H79  1  0.12466179  0.44674165  0.10646907  1
  H  H80  1  0.13362356  0.77553835  0.09185334  1
  H  H81  1  0.62454164  0.11317227  0.11632808  1
  H  H82  1  0.62610108  0.45156087  0.11264060  1
  H  H83  1  0.62938034  0.77688687  0.10418031  1
  H  H84  1  0.11684477  0.21648224  0.88106598  1
  H  H85  1  0.14026719  0.56013122  0.90213691  1
  H  H86  1  0.12525647  0.88379401  0.89721494  1
  H  H87  1  0.61971272  0.22356795  0.89690145  1
  H  H88  1  0.63596444  0.55968483  0.90030580  1
  H  H89  1  0.62503516  0.88321496  0.88880196  1
  H  H90  1  0.37958228  0.10999319  0.39901709  1
  H  H91  1  0.38181557  0.44869937  0.38227785  1
  H  H92  1  0.36431293  0.77653643  0.39915422  1
  H  H93  1  0.88095648  0.11634260  0.37942860  1
  H  H94  1  0.88109459  0.44942307  0.37052213  1
  H  H95  1  0.86587151  0.77316438  0.40411328  1
  H  H96  1  0.38471602  0.28001836  0.38398590  1
  H  H97  1  0.36812333  0.61211568  0.38029982  1
  H  H98  1  0.37196588  0.95248092  0.37224254  1
  H  H99  1  0.88085840  0.27356268  0.40784077  1
  H  H100  1  0.86921752  0.61308783  0.37764823  1
  H  H101  1  0.87855488  0.94465206  0.40280756  1
  H  H102  1  0.12421564  0.04425515  0.86906327  1
  H  H103  1  0.12490335  0.38636411  0.88813474  1
  H  H104  1  0.11829188  0.72241007  0.89585586  1
  H  H105  1  0.61695649  0.05870102  0.90693659  1
  H  H106  1  0.62229553  0.38627893  0.88522922  1
  H  H107  1  0.61563129  0.72416056  0.90825773  1
  H  H108  1  0.12844657  0.27768239  0.10317614  1
  H  H109  1  0.11269889  0.61157343  0.09414078  1
  H  H110  1  0.12181410  0.94178926  0.09633346  1
  H  H111  1  0.62810449  0.28294517  0.12763729  1
  H  H112  1  0.61845683  0.61454419  0.09811158  1
  H  H113  1  0.62319103  0.94582926  0.12053175  1
  H  H114  1  0.37154093  0.04942180  0.62684523  1
  H  H115  1  0.36882245  0.38161368  0.62951642  1
  H  H116  1  0.38348591  0.72453750  0.59588184  1
  H  H117  1  0.87136189  0.06181509  0.60023697  1
  H  H118  1  0.86676984  0.38173622  0.61351848  1
  H  H119  1  0.88698290  0.72536159  0.59560946  1
  H  H120  1  0.13220005  0.11489638  0.38585699  1
  H  H121  1  0.13340727  0.44208081  0.39780899  1
  H  H122  1  0.11696041  0.78090848  0.38039106  1
  H  H123  1  0.63477630  0.11141718  0.40609994  1
  H  H124  1  0.63573908  0.44338361  0.40193535  1
  H  H125  1  0.62101862  0.78181018  0.37181609  1
  H  H126  1  0.36521588  0.22099403  0.89540762  1
  H  H127  1  0.38579785  0.54959852  0.87192199  1
  H  H128  1  0.37403050  0.88683807  0.89449543  1
  H  H129  1  0.86849780  0.22246612  0.89109677  1
  H  H130  1  0.88314836  0.55513979  0.88408859  1
  H  H131  1  0.87460334  0.88063268  0.88896767  1
  H  H132  1  0.37355252  0.11342316  0.11110399  1
  H  H133  1  0.37397949  0.44812448  0.10775703  1
  H  H134  1  0.37967670  0.78289145  0.11750525  1
  H  H135  1  0.87354380  0.11153021  0.10810777  1
  H  H136  1  0.87538540  0.44771442  0.11284895  1
  H  H137  1  0.87808353  0.77947169  0.10806102  1
  H  H138  1  0.12713707  0.21740127  0.61891754  1
  H  H139  1  0.13632310  0.55867110  0.59538142  1
  H  H140  1  0.12921340  0.88990859  0.60365219  1
  H  H141  1  0.62220081  0.22066224  0.60969690  1
  H  H142  1  0.63456558  0.55640889  0.60100675  1
  H  H143  1  0.63011301  0.88901644  0.61361400  1
  H  H144  1  0.17399371  0.41572886  0.00236236  1
  H  H145  1  0.91886217  0.25408215  0.00369194  1
  H  H146  1  0.19797886  0.41045127  0.50298691  1
  H  H147  1  0.79197318  0.75066578  0.50414030  1
  H  H148  1  0.67054941  0.25314222  1.00023590  1
  H  H149  1  0.82929535  0.92193922  0.50221283  1
  H  H150  1  0.54126701  0.08236900  1.01142713  1
  H  H151  1  0.67732702  0.90889347  0.50563878  1
  H  H152  1  0.38762371  0.91577783  0.47885704  1
  H  H153  1  0.39459933  0.58325585  0.00611722  1
  H  H154  1  0.70642966  0.41143433  0.50594017  1
  H  H155  1  0.81763340  0.09118966  0.00192207  1
  H  H156  1  0.38948581  0.07563192  0.98267132  1
  H  H157  1  0.42772225  0.42256679  0.99755835  1
  H  H158  1  0.66585903  0.07900085  0.00581814  1
  H  H159  1  0.95153564  0.91800246  0.50741794  1
  H  H160  1  0.53023958  0.08753213  0.49280981  1
  H  H161  1  0.83148042  0.41723220  0.00286125  1
  H  H162  1  0.04791559  0.58268906  0.50377011  1
  H  H163  1  0.46901185  0.24916555  -0.00741067  1
  H  H164  1  0.70606348  0.58262417  0.49686405  1
  H  H165  1  0.38489385  0.40988910  0.51523792  1
  H  H166  1  0.11060572  0.25408890  0.48979248  1
  H  H167  1  0.86558492  0.41753817  0.48350887  1
  H  H168  1  0.10980176  0.92097014  0.48226911  1
  H  H169  1  0.54547243  0.57923240  0.50439707  1
  H  H170  1  0.54380984  0.41324206  0.49221258  1
  H  H171  1  0.89216969  0.58581351  0.01255153  1
  H  H172  1  0.08082624  0.08533536  0.50435629  1
  H  H173  1  0.11775676  0.07912464  0.98099041  1
  H  H174  1  0.66810140  0.42239992  0.00200556  1
  H  H175  1  0.31085491  0.25448032  0.49745808  1
  H  H176  1  0.30660483  0.24870430  1.00506898  1
  H  H177  1  0.21258921  0.58538144  1.00826901  1
  H  H178  1  0.29758408  0.74678508  0.50390619  1
  H  H179  1  0.96514698  0.07873262  1.00812076  1
  H  H180  1  0.89443676  0.57887228  0.48919606  1
  H  H181  1  0.83279054  0.90800734  0.99994945  1
  H  H182  1  0.70709988  0.08578437  0.50732069  1
  H  H183  1  0.31898517  0.08231292  0.50006166  1
  H  H184  1  0.03928691  0.59766951  -0.00765588  1
  H  H185  1  0.66779374  0.91035572  0.99975685  1
  H  H186  1  0.21148662  0.58442967  0.49529328  1
  H  H187  1  0.95941661  0.75347245  0.49530029  1
  H  H188  1  0.45991559  0.75061655  0.49578975  1
  H  H189  1  0.35721068  0.75289810  0.00731519  1
  H  H190  1  0.53122117  0.92586752  0.50866787  1
  H  H191  1  0.63846443  0.75206763  0.48665425  1
  Pb  Pb192  1  0.24338548  0.04778396  0.74470767  1
  Pb  Pb193  1  0.24370574  0.38387571  0.75261330  1
  Pb  Pb194  1  0.25248055  0.71433442  0.74821110  1
  Pb  Pb195  1  0.74482872  0.05224434  0.75513663  1
  Pb  Pb196  1  0.75071002  0.37976700  0.74946083  1
  Pb  Pb197  1  0.74714738  0.71709954  0.74690425  1
  Pb  Pb198  1  0.25620414  0.28374327  0.24464415  1
  Pb  Pb199  1  0.24258466  0.61610796  0.25231153  1
  Pb  Pb200  1  0.25038840  0.95369368  0.23830123  1
  Pb  Pb201  1  0.75286981  0.28629490  0.25550845  1
  Pb  Pb202  1  0.74913927  0.61911709  0.25471607  1
  Pb  Pb203  1  0.75066105  0.94813527  0.26059824  1
  Pb  Pb204  1  -0.00273193  0.21261666  0.74755173  1
  Pb  Pb205  1  -0.00046903  0.55191833  0.75030104  1
  Pb  Pb206  1  0.00135790  0.88073657  0.74688836  1
  Pb  Pb207  1  0.49328053  0.21707048  0.75379379  1
  Pb  Pb208  1  0.50591759  0.54650349  0.74379741  1
  Pb  Pb209  1  0.49559329  0.88336845  0.74549765  1
  Pb  Pb210  1  0.00180060  0.11930124  0.24639809  1
  Pb  Pb211  1  0.00363448  0.45030707  0.25311298  1
  Pb  Pb212  1  0.00195502  0.78594864  0.25372437  1
  Pb  Pb213  1  0.50630195  0.11692820  0.25459462  1
  Pb  Pb214  1  0.50215124  0.45323785  0.25038337  1
  Pb  Pb215  1  0.49248301  0.78231115  0.25832483  1
  C  C216  1  -0.00662356  0.04734840  0.62714548  1
  C  C217  1  -0.00724898  0.37602462  0.63303987  1
  C  C218  1  0.00528683  0.71194548  0.63041101  1
  C  C219  1  0.49967515  0.04864161  0.63152845  1
  C  C220  1  0.49644244  0.37676686  0.63394176  1
  C  C221  1  0.50044080  0.71176219  0.63309172  1
  C  C222  1  0.00638198  0.28799229  0.13258545  1
  C  C223  1  -0.00561652  0.62603816  0.12781684  1
  C  C224  1  0.00285775  0.95286182  0.13242629  1
  C  C225  1  0.49997735  0.28904971  0.13065711  1
  C  C226  1  0.49811173  0.62392236  0.12957789  1
  C  C227  1  0.49566813  0.95288385  0.13332034  1
  C  C228  1  -0.00442365  0.04139675  0.86935769  1
  C  C229  1  -0.00022045  0.37807489  0.86594338  1
  C  C230  1  -0.00593590  0.71444750  0.87532210  1
  C  C231  1  0.50085564  0.04384141  0.86907552  1
  C  C232  1  0.49670454  0.37889870  0.86539829  1
  C  C233  1  0.49849013  0.71039526  0.87124581  1
  C  C234  1  -0.00200428  0.28744037  0.37084797  1
  C  C235  1  -0.00319836  0.62147426  0.36905110  1
  C  C236  1  -0.00468761  0.95529546  0.36516884  1
  C  C237  1  0.51152316  0.28744972  0.36711625  1
  C  C238  1  0.49574424  0.62011523  0.37000240  1
  C  C239  1  0.50015727  0.95455477  0.36942121  1
  C  C240  1  0.25455783  0.21173866  0.63347878  1
  C  C241  1  0.25425400  0.54468135  0.63127016  1
  C  C242  1  0.25186286  0.88014778  0.63198360  1
  C  C243  1  0.74781581  0.21252806  0.62902418  1
  C  C244  1  0.75307776  0.54503060  0.63687082  1
  C  C245  1  0.75491731  0.87950940  0.63430947  1
  C  C246  1  0.24795915  0.12054890  0.12949923  1
  C  C247  1  0.24879628  0.45533734  0.12951348  1
  C  C248  1  0.25215876  0.78904172  0.12586030  1
  C  C249  1  0.75071262  0.12379347  0.13325347  1
  C  C250  1  0.75089150  0.45662182  0.13392768  1
  C  C251  1  0.75292200  0.78693948  0.12541408  1
  C  C252  1  0.24428731  0.21188470  0.86681175  1
  C  C253  1  0.25686499  0.54655119  0.86663675  1
  C  C254  1  0.24947867  0.87781262  0.87627235  1
  C  C255  1  0.74300802  0.21367987  0.87206174  1
  C  C256  1  0.75626935  0.54695826  0.86817218  1
  C  C257  1  0.74969814  0.87477628  0.86795090  1
  C  C258  1  0.25874507  0.12241311  0.36911714  1
  C  C259  1  0.25450594  0.45447819  0.36718917  1
  C  C260  1  0.24403833  0.78784438  0.36659363  1
  C  C261  1  0.75304198  0.12435358  0.37111770  1
  C  C262  1  0.75336604  0.45359795  0.36598789  1
  C  C263  1  0.74876762  0.78699385  0.36674076  1
  C  C264  1  0.06114924  0.26235685  0.45761068  1
  C  C265  1  0.79655675  0.75610181  0.03606496  1
  C  C266  1  0.06557215  0.07061249  0.95034890  1
  C  C267  1  0.29051804  0.90771754  0.96664428  1
  C  C268  1  0.51557852  0.07254829  0.96621519  1
  C  C269  1  0.27832842  0.24215564  0.53932938  1
  C  C270  1  0.78827446  0.24550863  0.96316288  1
  C  C271  1  0.23030135  0.75743009  0.02984134  1
  C  C272  1  0.43379423  0.40077887  0.54732112  1
  C  C273  1  0.71637702  0.75539988  0.03458580  1
  C  C274  1  0.29189765  0.42598710  0.03677964  1
  C  C275  1  0.27243040  0.23769247  0.96365424  1
  C  C276  1  0.96169131  0.26234504  0.04144273  1
  C  C277  1  0.21680491  0.09158862  0.03528194  1
  C  C278  1  0.73533137  0.57161719  0.54065271  1
  C  C279  1  0.51454388  0.40261729  0.53602959  1
  C  C280  1  0.44311036  0.59437602  0.04080442  1
  C  C281  1  0.77995941  0.24483219  0.53715838  1
  C  C282  1  0.21041405  0.90660149  0.96754185  1
  C  C283  1  0.24169216  0.57278350  0.96506992  1
  C  C284  1  0.98082466  0.25827946  0.46742922  1
  C  C285  1  0.19143708  0.23571380  0.95689828  1
  C  C286  1  0.26632912  0.75814380  0.46120116  1
  C  C287  1  0.56363822  0.74157023  0.54833333  1
  C  C288  1  0.73570306  0.42447471  0.46296055  1
  C  C289  1  0.46518484  0.40981316  0.95799263  1
  C  C290  1  0.70512008  0.09111622  0.04398200  1
  C  C291  1  0.32158911  0.56810532  0.95320868  1
  C  C292  1  0.70899614  0.43130536  0.04022273  1
  C  C293  1  0.52406836  0.59402472  0.03464641  1
  C  C294  1  0.81636971  0.42673894  0.45159043  1
  C  C295  1  0.93988044  0.58916368  0.45448900  1
  C  C296  1  0.02371245  0.40880088  0.54054722  1
  C  C297  1  0.79328536  0.91018461  0.54233505  1
  C  C298  1  0.05987487  0.93050771  0.45104606  1
  C  C299  1  0.06552154  0.74606941  0.54562457  1
  C  C300  1  0.03296115  0.74000068  0.96769813  1
  C  C301  1  0.97935900  0.92851220  0.46321796  1
  C  C302  1  0.22988299  0.42337178  0.46101700  1
  C  C303  1  0.43787516  0.58811720  0.45661579  1
  C  C304  1  0.44070459  0.73912894  0.95689432  1
  C  C305  1  0.79119331  0.89971686  0.96193509  1
  C  C306  1  0.68637621  0.75940515  0.45189711  1
  C  C307  1  0.79113168  0.42899758  0.04053333  1
  C  C308  1  0.96023041  0.08131411  0.53359328  1
  C  C309  1  0.81285650  0.09206772  0.45680611  1
  C  C310  1  0.95268813  0.73981286  0.96719619  1
  C  C311  1  0.70904178  0.90072589  0.96186830  1
  N  N312  1  0.73462033  0.09175011  0.46483476  1
  N  N313  1  0.54933784  0.92523951  0.04452263  1
  N  N314  1  0.98738478  0.74592668  0.53715984  1
  N  N315  1  0.21268942  0.42566964  0.03767638  1
  N  N316  1  0.71360176  0.90952068  0.54394009  1
  N  N317  1  0.94932983  0.92276168  0.04454327  1
  N  N318  1  0.23699643  0.57674404  0.53833209  1
  N  N319  1  0.01882041  0.58722273  0.46186631  1
  N  N320  1  0.93713852  0.60310490  0.04128374  1
  N  N321  1  0.70268046  0.24419016  0.53792415  1
  N  N322  1  0.51707551  0.74225629  0.96783171  1
  N  N323  1  0.03877400  0.07686287  0.53774653  1
  N  N324  1  0.56761337  0.25985606  0.04829700  1
  N  N325  1  0.81364831  0.56982610  0.54928017  1
  N  N326  1  0.51137498  0.92168639  0.46332220  1
  N  N327  1  0.29442584  0.09252520  0.03693876  1
  N  N328  1  0.51623588  0.58776409  0.46338714  1
  N  N329  1  0.80640022  0.57252883  0.95842023  1
  N  N330  1  0.43129866  0.07134896  0.54735882  1
  N  N331  1  0.01480238  0.59078334  0.03557860  1
  N  N332  1  0.53937781  0.25919760  0.46239089  1
  N  N333  1  0.54453501  0.40920278  0.95622741  1
  N  N334  1  0.29501819  0.90339743  0.53845740  1
  N  N335  1  0.18740633  0.75906441  0.45499862  1
  N  N336  1  0.73037870  0.57522167  0.96360108  1
  N  N337  1  0.21867462  0.90558432  0.53671729  1
  N  N338  1  0.49091341  0.25650847  0.03704436  1
  N  N339  1  0.31437636  0.57385338  0.54543174  1
  N  N340  1  0.28551264  0.09150920  0.46109025  1
  N  N341  1  0.46315937  0.25982487  0.45765748  1
  N  N342  1  0.43794858  0.06926473  0.95330838  1
  N  N343  1  0.43443312  0.93344548  0.45293889  1
  N  N344  1  0.96513632  0.40950423  0.95891512  1
  N  N345  1  0.20720454  0.09346078  0.45848011  1
  N  N346  1  0.78487876  0.09094714  0.04208326  1
  N  N347  1  0.19947704  0.24080031  0.54509689  1
  N  N348  1  0.04074120  0.25943892  0.03750578  1
  N  N349  1  0.47377086  0.92330841  0.03746583  1
  N  N350  1  0.94652497  0.40587684  0.54199343  1
  N  N351  1  0.30811597  0.76094693  0.03944700  1
  N  N352  1  0.76490444  0.75602656  0.46132828  1
  N  N353  1  0.50771473  0.07680610  0.53654884  1
  N  N354  1  0.30860339  0.42541136  0.45562031  1
  N  N355  1  0.98796258  0.07574517  0.96372970  1
  N  N356  1  0.04211421  0.40893373  0.95723462  1
  N  N357  1  0.02477124  0.92177795  0.03712222  1
  N  N358  1  0.70904105  0.24469284  0.96393799  1
  N  N359  1  0.48573195  0.74366125  0.53874135  1
  N  N360  1  0.06007074  0.05496549  0.59501341  1
  N  N361  1  0.05439847  0.39093184  0.59557854  1
  N  N362  1  0.07680347  0.72559237  0.60346101  1
  N  N363  1  0.55096955  0.06135088  0.58673263  1
  N  N364  1  0.55221480  0.38784029  0.59053207  1
  N  N365  1  0.57314928  0.72336668  0.60722769  1
  N  N366  1  0.44852054  0.27703577  0.08570862  1
  N  N367  1  0.42838575  0.61306413  0.10133927  1
  N  N368  1  0.43890503  0.94052446  0.09219489  1
  N  N369  1  0.93910560  0.27900021  0.09973235  1
  N  N370  1  0.92444639  0.61551520  0.10092074  1
  N  N371  1  0.93411920  0.94190159  0.10370109  1
  N  N372  1  0.42919940  0.05097608  0.89391438  1
  N  N373  1  0.43449837  0.39145128  0.90257549  1
  N  N374  1  0.42672017  0.72041878  0.89770791  1
  N  N375  1  0.94447186  0.05380025  0.91464890  1
  N  N376  1  0.93796065  0.39055352  0.90248986  1
  N  N377  1  0.92819184  0.72455757  0.91069062  1
  N  N378  1  0.07025878  0.28033049  0.39646159  1
  N  N379  1  0.05389107  0.61036061  0.41014240  1
  N  N380  1  0.06801831  0.94695200  0.39022322  1
  N  N381  1  0.57073023  0.27667312  0.40664859  1
  N  N382  1  0.55308618  0.60925956  0.41091650  1
  N  N383  1  0.55228138  0.94487582  0.41484193  1
  N  N384  1  0.31357839  0.22469098  0.59334780  1
  N  N385  1  0.32447424  0.55549229  0.60399441  1
  N  N386  1  0.31700129  0.88737765  0.59757336  1
  N  N387  1  0.81053967  0.22584361  0.59186959  1
  N  N388  1  0.82313067  0.55356015  0.60931632  1
  N  N389  1  0.81918217  0.89323280  0.59878487  1
  N  N390  1  0.18616882  0.10813692  0.09119332  1
  N  N391  1  0.18539815  0.44389109  0.09475316  1
  N  N392  1  0.19519659  0.77453281  0.08336619  1
  N  N393  1  0.68376213  0.10978113  0.10099594  1
  N  N394  1  0.68556120  0.44818235  0.09854385  1
  N  N395  1  0.68882496  0.77395883  0.08908300  1
  N  N396  1  0.17484746  0.22047513  0.89846587  1
  N  N397  1  0.20209984  0.55878328  0.90978966  1
  N  N398  1  0.18443927  0.88853502  0.91235400  1
  N  N399  1  0.68041282  0.22416800  0.90805148  1
  N  N400  1  0.69798132  0.55921764  0.90813488  1
  N  N401  1  0.68482246  0.88551128  0.90300630  1
  N  N402  1  0.31829924  0.11029914  0.40766433  1
  N  N403  1  0.32262221  0.44459999  0.39710508  1
  N  N404  1  0.30249636  0.77519560  0.40731831  1
  N  N405  1  0.82436698  0.11121993  0.39845756  1
  N  N406  1  0.82571887  0.44453217  0.39154534  1
  N  N407  1  0.80327359  0.77634753  0.40991788  1
  N  N408  1  0.44456997  0.27697604  0.39849757  1
  N  N409  1  0.42497901  0.60771343  0.39858907  1
  N  N410  1  0.42776629  0.94419872  0.39219246  1
  N  N411  1  0.94283381  0.27332788  0.41514561  1
  N  N412  1  0.92603599  0.60889433  0.39650813  1
  N  N413  1  0.94019263  0.94381315  0.40915605  1
  N  N414  1  0.06993439  0.05125362  0.89138358  1
  N  N415  1  0.06438674  0.38972707  0.89964263  1
  N  N416  1  0.05905613  0.72484996  0.91155705  1
  N  N417  1  0.55523702  0.05748370  0.91360575  1
  N  N418  1  0.56232068  0.39009643  0.89814968  1
  N  N419  1  0.55307442  0.72362629  0.91334265  1
  N  N420  1  0.06697200  0.27567733  0.09476336  1
  N  N421  1  0.05071739  0.61507279  0.08595927  1
  N  N422  1  0.05961045  0.94064393  0.09121285  1
  N  N423  1  0.57231513  0.27807333  0.10727684  1
  N  N424  1  0.55729128  0.61174337  0.08798765  1
  N  N425  1  0.56444032  0.94346851  0.10402117  1
  N  N426  1  0.42702839  0.05487901  0.60684454  1
  N  N427  1  0.42411732  0.38492669  0.60800009  1
  N  N428  1  0.44591590  0.72233402  0.59006404  1
  N  N429  1  0.93175304  0.06290928  0.58892464  1
  N  N430  1  0.92666954  0.38517253  0.60037709  1
  N  N431  1  0.94920676  0.72285849  0.58858762  1
  N  N432  1  0.19157513  0.11163918  0.40060715  1
  N  N433  1  0.19521701  0.44088236  0.40689941  1
  N  N434  1  0.17548040  0.77759991  0.39600317  1
  N  N435  1  0.69675435  0.11355768  0.41291654  1
  N  N436  1  0.69766793  0.44148767  0.40923932  1
  N  N437  1  0.67627225  0.77716004  0.39269663  1
  N  N438  1  0.30440151  0.22260675  0.90624889  1
  N  N439  1  0.33037150  0.55243359  0.89351838  1
  N  N440  1  0.31529999  0.89043498  0.91084441  1
  N  N441  1  0.80927373  0.22672754  0.90618830  1
  N  N442  1  0.82398393  0.55476809  0.89922671  1
  N  N443  1  0.81491380  0.88390420  0.90314063  1
  N  N444  1  0.31386389  0.11140469  0.09702928  1
  N  N445  1  0.31430289  0.44394746  0.09376419  1
  N  N446  1  0.32222476  0.78124742  0.09846671  1
  N  N447  1  0.81273590  0.11458025  0.09620373  1
  N  N448  1  0.81560825  0.44463029  0.09919498  1
  N  N449  1  0.81971323  0.77514541  0.09164963  1
  N  N450  1  0.18624959  0.22211044  0.60401859  1
  N  N451  1  0.19883106  0.55660605  0.58910882  1
  N  N452  1  0.19070401  0.89159269  0.59442422  1
  N  N453  1  0.68240702  0.22401538  0.59652601  1
  N  N454  1  0.69679944  0.55653584  0.59403321  1
  N  N455  1  0.69015171  0.88741722  0.59980807  1
  Cl  Cl456  1  0.24329960  0.05699742  0.61064002  1
  Cl  Cl457  1  0.23642175  0.39036086  0.61858167  1
  Cl  Cl458  1  0.26343123  0.72262379  0.61189018  1
  Cl  Cl459  1  0.73573098  0.06437307  0.60462189  1
  Cl  Cl460  1  0.73749785  0.38554156  0.61584406  1
  Cl  Cl461  1  0.76525145  0.72926290  0.60251227  1
  Cl  Cl462  1  0.26169856  0.27922081  0.10788973  1
  Cl  Cl463  1  0.23208765  0.61244464  0.11789282  1
  Cl  Cl464  1  0.24934703  0.94201016  0.10163507  1
  Cl  Cl465  1  0.75541524  0.27604505  0.12096829  1
  Cl  Cl466  1  0.74277560  0.61770884  0.12342014  1
  Cl  Cl467  1  0.74905530  0.94530802  0.12715033  1
  Cl  Cl468  1  0.24919733  0.04855025  0.87603554  1
  Cl  Cl469  1  0.24804469  0.38830577  0.88911939  1
  Cl  Cl470  1  0.24399165  0.72426249  0.87942005  1
  Cl  Cl471  1  0.75474791  0.06605842  0.89833966  1
  Cl  Cl472  1  0.75243065  0.38629424  0.88474035  1
  Cl  Cl473  1  0.73835770  0.72326138  0.87827102  1
  Cl  Cl474  1  0.26154934  0.27801003  0.37761343  1
  Cl  Cl475  1  0.23719621  0.60515070  0.39378207  1
  Cl  Cl476  1  0.24979463  0.95179185  0.36987916  1
  Cl  Cl477  1  0.75650417  0.27320034  0.38818806  1
  Cl  Cl478  1  0.73791925  0.60873420  0.39121002  1
  Cl  Cl479  1  0.73906976  0.94054932  0.40243750  1
  Cl  Cl480  1  -0.00229289  0.21720355  0.61526468  1
  Cl  Cl481  1  0.01701809  0.56089318  0.60756317  1
  Cl  Cl482  1  0.00457636  0.88867405  0.61042776  1
  Cl  Cl483  1  0.49780098  0.21822009  0.62260880  1
  Cl  Cl484  1  0.51354101  0.55959043  0.60554810  1
  Cl  Cl485  1  0.50597556  0.89647616  0.60323119  1
  Cl  Cl486  1  -0.00334923  0.10382111  0.10629018  1
  Cl  Cl487  1  0.00245655  0.45189929  0.12134431  1
  Cl  Cl488  1  0.01056723  0.77611221  0.12289315  1
  Cl  Cl489  1  0.50010023  0.11213721  0.11860941  1
  Cl  Cl490  1  0.49718185  0.44930494  0.11837539  1
  Cl  Cl491  1  0.50352594  0.77649129  0.12878014  1
  Cl  Cl492  1  -0.00975864  0.21613455  0.88045554  1
  Cl  Cl493  1  0.01281635  0.56557819  0.88821032  1
  Cl  Cl494  1  -0.00079783  0.88248872  0.87488909  1
  Cl  Cl495  1  0.49192389  0.22452053  0.89752165  1
  Cl  Cl496  1  0.51571495  0.55863577  0.87479148  1
  Cl  Cl497  1  0.50112368  0.88598805  0.87322654  1
  Cl  Cl498  1  0.00850394  0.11250415  0.38002515  1
  Cl  Cl499  1  0.01241586  0.44394689  0.38517294  1
  Cl  Cl500  1  -0.01443205  0.77179288  0.39458720  1
  Cl  Cl501  1  0.51064647  0.10525634  0.39835144  1
  Cl  Cl502  1  0.51208365  0.44830902  0.38558695  1
  Cl  Cl503  1  0.48644251  0.77493250  0.40035817  1
  Cl  Cl504  1  0.36069709  0.14583320  0.75194850  1
  Cl  Cl505  1  0.36915591  0.47651793  0.74400109  1
  Cl  Cl506  1  0.36454779  0.81482905  0.74981126  1
  Cl  Cl507  1  0.85776334  0.14826170  0.74983230  1
  Cl  Cl508  1  0.87040430  0.47755763  0.74225286  1
  Cl  Cl509  1  0.86295256  0.81462160  0.74786142  1
  Cl  Cl510  1  0.14045191  0.18468391  0.24954337  1
  Cl  Cl511  1  0.14588450  0.51674162  0.25173513  1
  Cl  Cl512  1  0.13945795  0.85206486  0.25502291  1
  Cl  Cl513  1  0.64053391  0.18536098  0.24763192  1
  Cl  Cl514  1  0.64475934  0.51513411  0.25024617  1
  Cl  Cl515  1  0.63695425  0.85445082  0.25668894  1
  Cl  Cl516  1  0.14013406  0.14879668  0.74954736  1
  Cl  Cl517  1  0.14673290  0.48236825  0.75271165  1
  Cl  Cl518  1  0.14338805  0.81657793  0.74601913  1
  Cl  Cl519  1  0.64092961  0.14551450  0.75475487  1
  Cl  Cl520  1  0.64664312  0.48419960  0.75381934  1
  Cl  Cl521  1  0.64252927  0.81217236  0.73647851  1
  Cl  Cl522  1  0.35802424  0.18418599  0.24502864  1
  Cl  Cl523  1  0.36305306  0.52041964  0.25305940  1
  Cl  Cl524  1  0.35884388  0.85107732  0.24672142  1
  Cl  Cl525  1  0.86154419  0.18350345  0.25126605  1
  Cl  Cl526  1  0.86851417  0.52215996  0.25814540  1
  Cl  Cl527  1  0.85644831  0.85427379  0.25222640  1
  Cl  Cl528  1  0.10893836  0.31402477  0.75041961  1
  Cl  Cl529  1  0.11381882  0.65034707  0.74683415  1
  Cl  Cl530  1  0.10693824  0.98520143  0.74825005  1
  Cl  Cl531  1  0.60980252  0.31515283  0.75880180  1
  Cl  Cl532  1  0.61284165  0.64962572  0.73844833  1
  Cl  Cl533  1  0.61320820  0.98134898  0.74827055  1
  Cl  Cl534  1  0.38733586  0.02059127  0.25843869  1
  Cl  Cl535  1  0.39201896  0.35204708  0.25484940  1
  Cl  Cl536  1  0.39061224  0.68534662  0.25346023  1
  Cl  Cl537  1  0.88746711  0.01938249  0.24779903  1
  Cl  Cl538  1  0.89148475  0.35188693  0.25246350  1
  Cl  Cl539  1  0.88641771  0.68715078  0.25109897  1
  Cl  Cl540  1  0.38928816  0.31144470  0.74612107  1
  Cl  Cl541  1  0.38854555  0.64324254  0.75504033  1
  Cl  Cl542  1  0.39271966  0.98041063  0.74386256  1
  Cl  Cl543  1  0.88891232  0.31379366  0.74831188  1
  Cl  Cl544  1  0.89371110  0.64468184  0.74642979  1
  Cl  Cl545  1  0.88813887  0.98064460  0.74293260  1
  Cl  Cl546  1  0.11098353  0.01780266  0.25105377  1
  Cl  Cl547  1  0.11253080  0.34933910  0.25199858  1
  Cl  Cl548  1  0.10776195  0.68430049  0.25758277  1
  Cl  Cl549  1  0.60615331  0.02017949  0.24885991  1
  Cl  Cl550  1  0.61289761  0.35151027  0.24219116  1
  Cl  Cl551  1  0.61072749  0.68574605  0.25986331  1
