# generated using pymatgen
data_H8PbC4(N3Cl2)2
_symmetry_space_group_name_H-M   'P 1'
_cell_length_a   16.63113049
_cell_length_b   22.52950369
_cell_length_c   21.60464516
_cell_angle_alpha   89.99893643
_cell_angle_beta   89.98524872
_cell_angle_gamma   90.01471657
_symmetry_Int_Tables_number   1
_chemical_formula_structural   H8PbC4(N3Cl2)2
_chemical_formula_sum   'H192 Pb24 C96 N144 Cl96'
_cell_volume   8095.06806354
_cell_formula_units_Z   24
loop_
 _symmetry_equiv_pos_site_id
 _symmetry_equiv_pos_as_xyz
  1  'x, y, z'
loop_
 _atom_site_type_symbol
 _atom_site_label
 _atom_site_symmetry_multiplicity
 _atom_site_fract_x
 _atom_site_fract_y
 _atom_site_fract_z
 _atom_site_occupancy
  H  H0  1  -0.00859303  0.02533574  0.67696181  1
  H  H1  1  0.00768078  0.36624583  0.67945876  1
  H  H2  1  0.00356391  0.69359089  0.67352042  1
  H  H3  1  0.50578928  0.02692832  0.67676654  1
  H  H4  1  0.51707367  0.35750899  0.67619823  1
  H  H5  1  0.52535478  0.69330808  0.65329659  1
  H  H6  1  -0.01050619  0.30290750  0.17351565  1
  H  H7  1  -0.01645230  0.63651448  0.18075602  1
  H  H8  1  0.00479570  0.96933554  0.18183775  1
  H  H9  1  0.51051519  0.30841913  0.18136636  1
  H  H10  1  0.52175412  0.63762376  0.17528419  1
  H  H11  1  0.50731648  0.97429178  0.18085663  1
  H  H12  1  -0.00648500  0.02901140  0.82236083  1
  H  H13  1  0.00280759  0.34543537  0.82802695  1
  H  H14  1  0.01212638  0.69511137  0.81794074  1
  H  H15  1  0.50936768  0.02665620  0.81948577  1
  H  H16  1  0.49503770  0.36062202  0.82348278  1
  H  H17  1  0.49198420  0.69603717  0.82040923  1
  H  H18  1  -0.00626124  0.30995568  0.31909147  1
  H  H19  1  0.01714677  0.63899775  0.32190377  1
  H  H20  1  0.00734840  0.97505061  0.32406116  1
  H  H21  1  0.50241726  0.30587719  0.31879883  1
  H  H22  1  0.49565420  0.63832410  0.32280281  1
  H  H23  1  0.49789756  0.97464985  0.32194284  1
  H  H24  1  0.23508997  0.19387412  0.67711152  1
  H  H25  1  0.24997514  0.52999923  0.68025496  1
  H  H26  1  0.25307608  0.86124547  0.67934828  1
  H  H27  1  0.77385736  0.19947660  0.68258962  1
  H  H28  1  0.75367209  0.52862409  0.67633993  1
  H  H29  1  0.74135240  0.86640960  0.68136320  1
  H  H30  1  0.23562840  0.13674812  0.17561249  1
  H  H31  1  0.22466816  0.46550041  0.18090400  1
  H  H32  1  0.24700803  0.80533917  0.18228330  1
  H  H33  1  0.75910105  0.13689520  0.17930137  1
  H  H34  1  0.76707299  0.46815143  0.17430965  1
  H  H35  1  0.76211969  0.80388885  0.17925875  1
  H  H36  1  0.25634577  0.19002879  0.82528689  1
  H  H37  1  0.25709145  0.52889068  0.82460613  1
  H  H38  1  0.24191725  0.86264576  0.81891055  1
  H  H39  1  0.75298129  0.19326569  0.81973056  1
  H  H40  1  0.75758048  0.52801170  0.82095676  1
  H  H41  1  0.75682588  0.86146589  0.82006614  1
  H  H42  1  0.24661618  0.13691307  0.32436752  1
  H  H43  1  0.23481606  0.46987331  0.32287584  1
  H  H44  1  0.23999920  0.80729432  0.32161996  1
  H  H45  1  0.75161328  0.13655342  0.31984553  1
  H  H46  1  0.75875173  0.47769530  0.32340599  1
  H  H47  1  0.72192763  0.80166056  0.34078129  1
  H  H48  1  0.12337921  0.05136098  0.61390259  1
  H  H49  1  0.11835767  0.39357162  0.59727633  1
  H  H50  1  0.14011582  0.71853396  0.61719573  1
  H  H51  1  0.62293933  0.05522534  0.60262774  1
  H  H52  1  0.62041081  0.39318137  0.59261564  1
  H  H53  1  0.66360254  0.71786322  0.60102309  1
  H  H54  1  0.38180934  0.28342492  0.11423545  1
  H  H55  1  0.38364304  0.61408300  0.12236723  1
  H  H56  1  0.37261095  0.95133010  0.11970656  1
  H  H57  1  0.88074034  0.27087414  0.09403129  1
  H  H58  1  0.88588812  0.60978944  0.09234559  1
  H  H59  1  0.86645451  0.94733833  0.12598406  1
  H  H60  1  0.38543316  0.05479583  0.88945671  1
  H  H61  1  0.37459253  0.38894132  0.89597137  1
  H  H62  1  0.37949523  0.72086734  0.89870259  1
  H  H63  1  0.88584362  0.06119292  0.90432653  1
  H  H64  1  0.87759430  0.38328819  0.88984991  1
  H  H65  1  0.88213128  0.71644540  0.88507980  1
  H  H66  1  0.12277897  0.28422996  0.38569508  1
  H  H67  1  0.11696516  0.60697505  0.40863395  1
  H  H68  1  0.11960620  0.94294545  0.40116300  1
  H  H69  1  0.62357141  0.27887206  0.39290879  1
  H  H70  1  0.62230237  0.60950383  0.38778195  1
  H  H71  1  0.61290675  0.94384922  0.39885113  1
  H  H72  1  0.37836379  0.21123967  0.63145919  1
  H  H73  1  0.38281986  0.54991856  0.61821715  1
  H  H74  1  0.38565374  0.88254542  0.61673539  1
  H  H75  1  0.87630642  0.22270879  0.59617796  1
  H  H76  1  0.87554733  0.55400133  0.60685310  1
  H  H77  1  0.87880565  0.88341981  0.62578499  1
  H  H78  1  0.11873243  0.11064295  0.09934056  1
  H  H79  1  0.13101540  0.43909516  0.09090241  1
  H  H80  1  0.12045661  0.77965832  0.11301883  1
  H  H81  1  0.61839276  0.11998244  0.12930637  1
  H  H82  1  0.62154862  0.45577828  0.13105187  1
  H  H83  1  0.62255621  0.78580318  0.12548105  1
  H  H84  1  0.12124579  0.21782318  0.88257167  1
  H  H85  1  0.12754550  0.55274534  0.89028256  1
  H  H86  1  0.13661798  0.88919924  0.90195215  1
  H  H87  1  0.62522390  0.21968611  0.88902689  1
  H  H88  1  0.62162900  0.55020516  0.88033168  1
  H  H89  1  0.64009209  0.89006742  0.89734332  1
  H  H90  1  0.37326683  0.10926766  0.39064938  1
  H  H91  1  0.37060261  0.45607558  0.37855739  1
  H  H92  1  0.35252167  0.77631607  0.39825125  1
  H  H93  1  0.87376644  0.11249077  0.39329181  1
  H  H94  1  0.88927663  0.44821873  0.38601646  1
  H  H95  1  0.83437316  0.77131090  0.41774677  1
  H  H96  1  0.37548342  0.28024450  0.38781351  1
  H  H97  1  0.37371524  0.61039751  0.39550232  1
  H  H98  1  0.36497445  0.95173407  0.38308970  1
  H  H99  1  0.87351399  0.27951898  0.38934139  1
  H  H100  1  0.87486186  0.61714272  0.37100128  1
  H  H101  1  0.87256367  0.94976549  0.38236396  1
  H  H102  1  0.13103596  0.05202854  0.87874169  1
  H  H103  1  0.12586696  0.38449633  0.89135247  1
  H  H104  1  0.13106869  0.72134462  0.89186906  1
  H  H105  1  0.63422422  0.05442174  0.88773094  1
  H  H106  1  0.62286882  0.38703062  0.88919384  1
  H  H107  1  0.62671912  0.71320707  0.87886245  1
  H  H108  1  0.12705066  0.28108106  0.11698551  1
  H  H109  1  0.12764566  0.62029860  0.13583404  1
  H  H110  1  0.11350642  0.94494088  0.09996542  1
  H  H111  1  0.63060862  0.27780044  0.10937980  1
  H  H112  1  0.62865396  0.60831005  0.09126229  1
  H  H113  1  0.62030570  0.94435343  0.10323361  1
  H  H114  1  0.37494408  0.05345581  0.61351982  1
  H  H115  1  0.37709431  0.38298711  0.62483151  1
  H  H116  1  0.41711691  0.73019738  0.57516936  1
  H  H117  1  0.87609715  0.05571333  0.59910491  1
  H  H118  1  0.87167398  0.38742147  0.61842238  1
  H  H119  1  0.89532492  0.72485905  0.59202327  1
  H  H120  1  0.12509317  0.11397876  0.39682255  1
  H  H121  1  0.12569425  0.44240168  0.40251217  1
  H  H122  1  0.10564768  0.78386596  0.38236041  1
  H  H123  1  0.62465592  0.11066058  0.38753603  1
  H  H124  1  0.64137109  0.44817817  0.39933039  1
  H  H125  1  0.58698565  0.78009380  0.39700192  1
  H  H126  1  0.36922564  0.22081328  0.90247917  1
  H  H127  1  0.37489282  0.55700906  0.89980784  1
  H  H128  1  0.38130292  0.88090059  0.86986820  1
  H  H129  1  0.87351345  0.22278198  0.89213197  1
  H  H130  1  0.86741401  0.55780965  0.90254719  1
  H  H131  1  0.88819155  0.88561391  0.88563627  1
  H  H132  1  0.36704683  0.11595664  0.11514468  1
  H  H133  1  0.37091465  0.45417280  0.13783717  1
  H  H134  1  0.36883021  0.77771763  0.10932113  1
  H  H135  1  0.86305980  0.11168095  0.09442738  1
  H  H136  1  0.86195536  0.43579568  0.08660823  1
  H  H137  1  0.86862300  0.77645732  0.09822914  1
  H  H138  1  0.13545312  0.22589149  0.59188592  1
  H  H139  1  0.13410918  0.55292499  0.60434664  1
  H  H140  1  0.13735963  0.89066091  0.60242466  1
  H  H141  1  0.63237660  0.21377226  0.63316885  1
  H  H142  1  0.62656589  0.55163058  0.60951250  1
  H  H143  1  0.63205521  0.88963504  0.60051463  1
  H  H144  1  0.96111193  0.08936840  1.00370092  1
  H  H145  1  0.07671703  0.26549088  0.49428487  1
  H  H146  1  0.19229422  0.57895584  0.49406879  1
  H  H147  1  0.07410390  0.75274508  0.99867438  1
  H  H148  1  0.92568764  0.24747512  0.49802537  1
  H  H149  1  0.93526651  0.40834304  0.99544280  1
  H  H150  1  0.35044363  0.42341254  0.49325146  1
  H  H151  1  0.17947026  0.07026458  0.49261438  1
  H  H152  1  0.62351824  0.42480961  1.01742952  1
  H  H153  1  0.79891786  0.74645121  -0.00751769  1
  H  H154  1  0.84881509  0.42007820  0.49237307  1
  H  H155  1  0.35217555  0.91637946  0.50681500  1
  H  H156  1  0.33492960  0.08122164  0.00241185  1
  H  H157  1  0.20770820  0.91768766  1.00649884  1
  H  H158  1  0.66924549  0.08194594  0.49677169  1
  H  H159  1  0.62989651  0.09084889  0.01421536  1
  H  H160  1  0.30682799  0.25357536  1.00722138  1
  H  H161  1  0.44102410  0.75051459  1.00560036  1
  H  H162  1  0.21517238  0.41905368  -0.01099817  1
  H  H163  1  0.57572726  0.24489068  0.00364548  1
  H  H164  1  0.37089656  0.24567194  0.51826644  1
  H  H165  1  0.55534700  0.91277110  -0.00149598  1
  H  H166  1  0.96540436  0.58597048  -0.00951157  1
  H  H167  1  0.42409806  0.42314807  1.00208986  1
  H  H168  1  0.36626546  0.91092828  -0.01554304  1
  H  H169  1  0.80083083  0.24465205  0.49115706  1
  H  H170  1  0.15091651  0.24413187  0.99098337  1
  H  H171  1  0.89092917  0.91987823  0.01730002  1
  H  H172  1  0.03369477  0.58060071  0.50502002  1
  H  H173  1  0.04541826  0.91466684  -0.00489542  1
  H  H174  1  0.79004097  0.08616986  -0.00986084  1
  H  H175  1  0.96852554  0.75431618  0.49199941  1
  H  H176  1  0.77981752  0.41069139  -0.01393299  1
  H  H177  1  0.54168957  0.42245389  0.49586454  1
  H  H178  1  0.60522635  0.74644269  0.99145256  1
  H  H179  1  0.21390929  0.25618282  0.49062607  1
  H  H180  1  0.85819099  0.91158189  0.51179455  1
  H  H181  1  0.12286868  0.59321644  1.02125005  1
  H  H182  1  0.06526739  0.40863561  0.99629871  1
  H  H183  1  0.31685168  0.58152700  1.00332208  1
  H  H184  1  0.79435151  0.58429071  1.00318880  1
  H  H185  1  0.64315309  0.24233185  0.51830705  1
  H  H186  1  0.32980767  0.09265115  0.49659149  1
  H  H187  1  0.48668674  0.75505524  0.47317927  1
  H  H188  1  0.77454984  0.73943950  0.52372384  1
  H  H189  1  0.69829817  0.91974696  0.49444452  1
  H  H190  1  0.82792725  0.58489531  0.49605751  1
  H  H191  1  0.28804101  0.74204840  0.50253681  1
  Pb  Pb192  1  0.25483315  0.04789251  0.74690488  1
  Pb  Pb193  1  0.25099598  0.38251933  0.74984580  1
  Pb  Pb194  1  0.26409697  0.71499397  0.74127909  1
  Pb  Pb195  1  0.75477612  0.04855575  0.74810564  1
  Pb  Pb196  1  0.75314731  0.38392914  0.74426355  1
  Pb  Pb197  1  0.75687346  0.71375835  0.75402725  1
  Pb  Pb198  1  0.24939761  0.28467587  0.24732573  1
  Pb  Pb199  1  0.24547572  0.61654655  0.25589604  1
  Pb  Pb200  1  0.24165603  0.95167417  0.24967317  1
  Pb  Pb201  1  0.74442241  0.28444591  0.25036333  1
  Pb  Pb202  1  0.74630408  0.61848760  0.23634108  1
  Pb  Pb203  1  0.73962654  0.94834774  0.25274429  1
  Pb  Pb204  1  0.00377686  0.21524948  0.73743189  1
  Pb  Pb205  1  0.00821242  0.55047426  0.74668986  1
  Pb  Pb206  1  0.00938466  0.88080139  0.75258857  1
  Pb  Pb207  1  0.50213407  0.21514794  0.75886657  1
  Pb  Pb208  1  0.50285467  0.54859008  0.75298609  1
  Pb  Pb209  1  0.50906180  0.88162533  0.75093794  1
  Pb  Pb210  1  -0.00876677  0.11758735  0.24447425  1
  Pb  Pb211  1  -0.00536748  0.44862004  0.23563621  1
  Pb  Pb212  1  -0.00954517  0.78401171  0.25592471  1
  Pb  Pb213  1  0.49426387  0.11786378  0.25415113  1
  Pb  Pb214  1  0.50057608  0.45429046  0.26433382  1
  Pb  Pb215  1  0.48932947  0.78331679  0.24717988  1
  C  C216  1  -0.00317039  0.04280292  0.63032854  1
  C  C217  1  -0.00081442  0.38125361  0.63206774  1
  C  C218  1  0.01274997  0.71149018  0.62749764  1
  C  C219  1  0.50081941  0.04439185  0.63041677  1
  C  C220  1  0.50504005  0.37630008  0.63088894  1
  C  C221  1  0.53510380  0.71270208  0.60780373  1
  C  C222  1  -0.00047079  0.28541656  0.12762227  1
  C  C223  1  -0.00016985  0.62263253  0.13418435  1
  C  C224  1  -0.00587184  0.95459899  0.13457513  1
  C  C225  1  0.50744358  0.29067869  0.13479028  1
  C  C226  1  0.51150624  0.62072950  0.12914261  1
  C  C227  1  0.49972528  0.95724711  0.13424574  1
  C  C228  1  0.00325298  0.04605518  0.86870652  1
  C  C229  1  0.00207300  0.36879707  0.87190150  1
  C  C230  1  0.00820200  0.71129481  0.86516811  1
  C  C231  1  0.50940943  0.04431385  0.86598114  1
  C  C232  1  0.49757623  0.37826283  0.87015410  1
  C  C233  1  0.49980626  0.71058494  0.86802983  1
  C  C234  1  -0.00251823  0.29275749  0.36599194  1
  C  C235  1  0.00318294  0.62219240  0.36774224  1
  C  C236  1  -0.00051901  0.95658805  0.36979443  1
  C  C237  1  0.50041571  0.28934160  0.36600908  1
  C  C238  1  0.49681044  0.62004770  0.36908638  1
  C  C239  1  0.49199573  0.95706946  0.36823512  1
  C  C240  1  0.25038196  0.20996352  0.63114306  1
  C  C241  1  0.25547550  0.54391987  0.63248052  1
  C  C242  1  0.25878329  0.87798082  0.63254099  1
  C  C243  1  0.76027195  0.21224676  0.63520252  1
  C  C244  1  0.75239637  0.54439742  0.62903530  1
  C  C245  1  0.75124495  0.88048440  0.63382281  1
  C  C246  1  0.24113743  0.12124838  0.12833253  1
  C  C247  1  0.24235108  0.45340000  0.13431998  1
  C  C248  1  0.24546859  0.78817893  0.13532755  1
  C  C249  1  0.74617674  0.12276028  0.13222544  1
  C  C250  1  0.74957641  0.45389416  0.12823787  1
  C  C251  1  0.75132711  0.78884561  0.13232952  1
  C  C252  1  0.24826178  0.20830620  0.87150413  1
  C  C253  1  0.25329196  0.54559051  0.87168870  1
  C  C254  1  0.25401455  0.87721690  0.86597147  1
  C  C255  1  0.75035602  0.21091187  0.86645642  1
  C  C256  1  0.74920250  0.54391418  0.86788871  1
  C  C257  1  0.76185519  0.87758301  0.86734162  1
  C  C258  1  0.24842915  0.12041832  0.37172359  1
  C  C259  1  0.24478856  0.45591794  0.37025794  1
  C  C260  1  0.23227564  0.78963266  0.36793285  1
  C  C261  1  0.75004358  0.12016875  0.36698219  1
  C  C262  1  0.76346649  0.45940063  0.36967658  1
  C  C263  1  0.71390290  0.78537484  0.38779385  1
  C  C264  1  0.46454207  0.41078106  0.96227083  1
  C  C265  1  0.45387035  0.58971682  0.04390909  1
  C  C266  1  0.53065772  0.07791169  0.53784264  1
  C  C267  1  0.78922201  0.57348599  0.53485307  1
  C  C268  1  0.27462457  0.24073053  0.96544215  1
  C  C269  1  0.30270944  0.43137360  0.45953083  1
  C  C270  1  0.69376789  0.23400263  0.54932167  1
  C  C271  1  0.54808209  0.07527962  0.95735434  1
  C  C272  1  0.31742720  0.90183630  0.95216878  1
  C  C273  1  0.67651106  0.43144264  0.04623561  1
  C  C274  1  0.71013219  0.09249147  0.45860916  1
  C  C275  1  0.25555955  0.75599193  0.46090120  1
  C  C276  1  0.97960400  0.25100349  0.03397176  1
  C  C277  1  0.68858828  0.76300949  0.04648320  1
  C  C278  1  0.07065364  0.60091720  0.05059802  1
  C  C279  1  0.77404868  0.23572624  0.53614607  1
  C  C280  1  0.53908610  0.25853813  0.04279450  1
  C  C281  1  0.59544772  0.74441536  0.52259206  1
  C  C282  1  0.72917201  0.90729736  0.53679015  1
  C  C283  1  0.20960513  0.09068840  0.03433305  1
  C  C284  1  0.76158060  0.09666977  0.03424111  1
  C  C285  1  0.47454793  0.73869962  0.96418726  1
  C  C286  1  0.02278476  0.92014969  0.46193994  1
  C  C287  1  0.76872794  0.75928849  0.03511661  1
  C  C288  1  0.81040113  0.90384798  0.54551782  1
  C  C289  1  0.44290247  0.92748467  0.45695975  1
  C  C290  1  0.55614035  0.73637725  0.95705250  1
  C  C291  1  0.99111113  0.59701767  0.03540352  1
  C  C292  1  0.23664107  0.90488660  0.96332585  1
  C  C293  1  0.74026456  0.75311665  0.48312785  1
  C  C294  1  0.22667535  0.56911057  0.53564105  1
  C  C295  1  0.03839284  0.74088507  0.95840681  1
  C  C296  1  0.30646798  0.90660034  0.54328288  1
  C  C297  1  0.22185235  0.42747238  0.46634786  1
  C  C298  1  0.52347807  0.92584579  0.04043441  1
  C  C299  1  0.30766759  0.56799697  0.54231932  1
  C  C300  1  0.53809473  0.58530138  0.45804327  1
  C  C301  1  0.70752397  0.57223981  0.53728663  1
  C  C302  1  0.31957018  0.23705321  0.54837515  1
  C  C303  1  0.29097775  0.09218571  0.03787526  1
  C  C304  1  0.31765857  0.43494442  0.05213668  1
  C  C305  1  0.75547433  0.42447559  0.03056664  1
  C  C306  1  0.23920576  0.42971405  0.03458938  1
  C  C307  1  0.96084403  0.26062515  0.45793500  1
  C  C308  1  0.23960666  0.24215274  0.53452834  1
  C  C309  1  0.68081893  0.09920892  0.04626122  1
  C  C310  1  0.65774994  0.75736421  0.47715078  1
  C  C311  1  0.01591539  0.92597703  0.03856456  1
  N  N312  1  0.44471569  0.92773901  0.04613585  1
  N  N313  1  0.98652101  0.08059388  0.96071197  1
  N  N314  1  0.70860568  0.24177093  0.95781619  1
  N  N315  1  0.04579988  0.07267707  0.54073500  1
  N  N316  1  0.80770575  0.42836120  0.45737106  1
  N  N317  1  0.07210769  0.74397671  0.54274588  1
  N  N318  1  0.04043283  0.26321283  0.45607609  1
  N  N319  1  0.17676479  0.75758481  0.45549905  1
  N  N320  1  0.93539408  0.59176861  0.44940271  1
  N  N321  1  0.78517452  0.24286141  0.95909675  1
  N  N322  1  0.28266351  0.57574041  0.96377818  1
  N  N323  1  0.04175724  0.41835105  0.95322140  1
  N  N324  1  0.28095277  0.75661194  0.04268679  1
  N  N325  1  0.94575034  0.92303187  0.45696263  1
  N  N326  1  0.47043634  0.07524473  0.95947544  1
  N  N327  1  0.95909677  0.73943269  0.95624351  1
  N  N328  1  0.72981945  0.42795307  0.46292059  1
  N  N329  1  0.76810259  0.57467661  0.96091485  1
  N  N330  1  0.96947878  0.07474155  0.53624054  1
  N  N331  1  0.45289175  0.07807389  0.54079643  1
  N  N332  1  0.99505148  0.74602545  0.53540043  1
  N  N333  1  0.51749792  0.41291780  0.53925877  1
  N  N334  1  0.01195768  0.58776457  0.46053877  1
  N  N335  1  0.95984797  0.41821155  0.95258585  1
  N  N336  1  0.02155018  0.40928468  0.53588955  1
  N  N337  1  0.78935245  0.09265155  0.46107598  1
  N  N338  1  0.44079609  0.40901445  0.54861041  1
  N  N339  1  0.20421550  0.75785555  0.04360588  1
  N  N340  1  0.73251758  0.90749755  0.96161576  1
  N  N341  1  0.20460446  0.57306391  0.96214040  1
  N  N342  1  0.45907492  0.25976646  0.45762129  1
  N  N343  1  0.06376289  0.07683024  0.95359816  1
  N  N344  1  0.46090344  0.58594001  0.46190800  1
  N  N345  1  0.21276455  0.09870851  0.46576382  1
  N  N346  1  0.80888935  0.90567991  0.95784760  1
  N  N347  1  0.51997370  0.92407950  0.46329967  1
  N  N348  1  0.19558601  0.23983365  0.95765740  1
  N  N349  1  0.45978700  0.26082665  0.04382933  1
  N  N350  1  0.53026036  0.58742928  0.03311196  1
  N  N351  1  0.54367920  0.41064057  0.96027021  1
  N  N352  1  0.93742511  0.92676706  0.04872380  1
  N  N353  1  0.69077194  0.57227325  0.95447944  1
  N  N354  1  0.05659689  0.25458659  0.04029830  1
  N  N355  1  0.94546274  0.40711724  0.54299810  1
  N  N356  1  0.51541555  0.75068169  0.51603704  1
  N  N357  1  0.29150532  0.08625122  0.45966990  1
  N  N358  1  0.53521594  0.25896916  0.45917870  1
  N  N359  1  0.22747934  0.90960292  0.53800435  1
  N  N360  1  0.06391861  0.05332914  0.59925822  1
  N  N361  1  0.05604693  0.39339933  0.59096151  1
  N  N362  1  0.08302017  0.72370092  0.60045262  1
  N  N363  1  0.56214148  0.05769714  0.59187386  1
  N  N364  1  0.55817129  0.39067478  0.58786546  1
  N  N365  1  0.60687534  0.72323765  0.58129487  1
  N  N366  1  0.44206542  0.28081243  0.10133978  1
  N  N367  1  0.44003677  0.60965555  0.10236815  1
  N  N368  1  0.43142440  0.94720404  0.10471689  1
  N  N369  1  0.94241808  0.26970364  0.08620867  1
  N  N370  1  0.94832153  0.61060947  0.08811611  1
  N  N371  1  0.92420332  0.94564631  0.10739857  1
  N  N372  1  0.44640443  0.05563439  0.90108461  1
  N  N373  1  0.43523992  0.39129498  0.90695034  1
  N  N374  1  0.44084444  0.72286230  0.90840496  1
  N  N375  1  0.94798580  0.05970172  0.91043222  1
  N  N376  1  0.93764436  0.38390955  0.90411766  1
  N  N377  1  0.94231616  0.72125643  0.89794486  1
  N  N378  1  0.06278576  0.28635199  0.40020225  1
  N  N379  1  0.05459661  0.60875739  0.41218128  1
  N  N380  1  0.05812589  0.94029022  0.40946724  1
  N  N381  1  0.56227405  0.27716891  0.40251635  1
  N  N382  1  0.56302874  0.60624007  0.40236973  1
  N  N383  1  0.55080883  0.94305658  0.40658293  1
  N  N384  1  0.32450363  0.21737772  0.60826508  1
  N  N385  1  0.32466565  0.55316823  0.60072704  1
  N  N386  1  0.32692179  0.88789990  0.60132417  1
  N  N387  1  0.81436984  0.22220249  0.59014075  1
  N  N388  1  0.81597793  0.55604867  0.59329115  1
  N  N389  1  0.82257597  0.88743419  0.60582928  1
  N  N390  1  0.17959710  0.10822390  0.08887887  1
  N  N391  1  0.19300164  0.44156992  0.08721101  1
  N  N392  1  0.18113518  0.77752955  0.10094671  1
  N  N393  1  0.67325383  0.11501443  0.10730873  1
  N  N394  1  0.67447663  0.44932269  0.10658306  1
  N  N395  1  0.67848098  0.78057922  0.10527354  1
  N  N396  1  0.17955086  0.21799811  0.90047006  1
  N  N397  1  0.18687877  0.55599610  0.90426148  1
  N  N398  1  0.19858255  0.88937832  0.90924067  1
  N  N399  1  0.68593898  0.22225802  0.90032681  1
  N  N400  1  0.67967005  0.55426232  0.89630890  1
  N  N401  1  0.70220403  0.88972513  0.90599422  1
  N  N402  1  0.31366353  0.11089157  0.40530692  1
  N  N403  1  0.31548321  0.44897109  0.39847248  1
  N  N404  1  0.29091499  0.77556105  0.40773167  1
  N  N405  1  0.81259591  0.10982390  0.40351240  1
  N  N406  1  0.82978253  0.44849287  0.40146720  1
  N  N407  1  0.77256345  0.77073203  0.42762258  1
  N  N408  1  0.43586864  0.27871455  0.40011828  1
  N  N409  1  0.43477248  0.60778723  0.40505971  1
  N  N410  1  0.42329339  0.94657898  0.39912984  1
  N  N411  1  0.93401264  0.27739832  0.40174965  1
  N  N412  1  0.93071875  0.61119434  0.39093424  1
  N  N413  1  0.93088842  0.94594993  0.39852075  1
  N  N414  1  0.07364116  0.05682768  0.89575207  1
  N  N415  1  0.06561289  0.38456563  0.90482704  1
  N  N416  1  0.07004431  0.72410780  0.90271857  1
  N  N417  1  0.57442784  0.05702462  0.90081699  1
  N  N418  1  0.56295903  0.39008721  0.90259666  1
  N  N419  1  0.56987550  0.71910252  0.89711305  1
  N  N420  1  0.06910465  0.27605990  0.10003063  1
  N  N421  1  0.07435032  0.61649602  0.11177532  1
  N  N422  1  0.05151822  0.94283779  0.09194507  1
  N  N423  1  0.56981440  0.27657104  0.09822382  1
  N  N424  1  0.56648642  0.60750396  0.08712590  1
  N  N425  1  0.55864542  0.94370185  0.09420220  1
  N  N426  1  0.43449285  0.05666049  0.59946008  1
  N  N427  1  0.43354487  0.38811276  0.60626644  1
  N  N428  1  0.47888838  0.72666213  0.56698487  1
  N  N429  1  0.93784127  0.05605139  0.59144130  1
  N  N430  1  0.93042134  0.38951142  0.60244813  1
  N  N431  1  0.95741452  0.72437310  0.58576551  1
  N  N432  1  0.18591565  0.10819212  0.40726883  1
  N  N433  1  0.18704730  0.44223637  0.41273600  1
  N  N434  1  0.16389176  0.77863502  0.39736407  1
  N  N435  1  0.68447737  0.10896763  0.40109877  1
  N  N436  1  0.70306448  0.44644152  0.40773341  1
  N  N437  1  0.64376617  0.77787441  0.41682100  1
  N  N438  1  0.30769992  0.22234984  0.91157989  1
  N  N439  1  0.31343513  0.55670097  0.90979109  1
  N  N440  1  0.32659285  0.88497088  0.89172594  1
  N  N441  1  0.81229541  0.22372643  0.90277279  1
  N  N442  1  0.80555550  0.55557646  0.90944549  1
  N  N443  1  0.82838548  0.88750476  0.89928706  1
  N  N444  1  0.30921823  0.11141875  0.09745574  1
  N  N445  1  0.31847569  0.44870951  0.11244625  1
  N  N446  1  0.30753968  0.77482649  0.09949140  1
  N  N447  1  0.80082750  0.11124573  0.08814474  1
  N  N448  1  0.79997699  0.43884577  0.08227605  1
  N  N449  1  0.80698904  0.77563662  0.09011951  1
  N  N450  1  0.19772251  0.22496225  0.58661013  1
  N  N451  1  0.19505286  0.55411437  0.59318383  1
  N  N452  1  0.19942902  0.89153548  0.59405189  1
  N  N453  1  0.68698638  0.21969559  0.61080899  1
  N  N454  1  0.68600067  0.55501737  0.59414844  1
  N  N455  1  0.69368122  0.89265644  0.59208000  1
  Cl  Cl456  1  0.24814531  0.05830066  0.61095388  1
  Cl  Cl457  1  0.24106801  0.39120337  0.61840531  1
  Cl  Cl458  1  0.29221577  0.72546991  0.60591234  1
  Cl  Cl459  1  0.74956670  0.05709632  0.61590456  1
  Cl  Cl460  1  0.74314914  0.39365677  0.61148760  1
  Cl  Cl461  1  0.78213486  0.71568955  0.62040502  1
  Cl  Cl462  1  0.25593497  0.27798339  0.11327136  1
  Cl  Cl463  1  0.26045089  0.60696386  0.12157116  1
  Cl  Cl464  1  0.23780031  0.94675585  0.11450782  1
  Cl  Cl465  1  0.75725046  0.27617963  0.12014117  1
  Cl  Cl466  1  0.76183273  0.60658735  0.09883580  1
  Cl  Cl467  1  0.74226039  0.94275655  0.12105690  1
  Cl  Cl468  1  0.26116101  0.05766895  0.87866850  1
  Cl  Cl469  1  0.24922012  0.38803382  0.88652840  1
  Cl  Cl470  1  0.25549395  0.71606880  0.87420238  1
  Cl  Cl471  1  0.76404536  0.05746189  0.88471031  1
  Cl  Cl472  1  0.75550229  0.38839792  0.87970058  1
  Cl  Cl473  1  0.75793022  0.71445330  0.88529530  1
  Cl  Cl474  1  0.24633123  0.27794640  0.38264667  1
  Cl  Cl475  1  0.24027738  0.60930528  0.39092067  1
  Cl  Cl476  1  0.24129095  0.95121269  0.38136140  1
  Cl  Cl477  1  0.74825536  0.27871757  0.38660050  1
  Cl  Cl478  1  0.74658744  0.61208083  0.36819638  1
  Cl  Cl479  1  0.73719866  0.94282750  0.38732017  1
  Cl  Cl480  1  0.00858259  0.22954459  0.59955012  1
  Cl  Cl481  1  0.00978355  0.56100107  0.60543738  1
  Cl  Cl482  1  0.01305699  0.88871374  0.62178924  1
  Cl  Cl483  1  0.50647946  0.21436449  0.63200419  1
  Cl  Cl484  1  0.50688706  0.55164731  0.62198973  1
  Cl  Cl485  1  0.51047918  0.87882644  0.62029471  1
  Cl  Cl486  1  -0.01304228  0.10894075  0.10114567  1
  Cl  Cl487  1  -0.00734439  0.42993838  0.09424145  1
  Cl  Cl488  1  -0.00338181  0.77980568  0.12207322  1
  Cl  Cl489  1  0.49063641  0.11678143  0.12745725  1
  Cl  Cl490  1  0.49560705  0.45194030  0.13467427  1
  Cl  Cl491  1  0.49171265  0.78170854  0.11616095  1
  Cl  Cl492  1  -0.00356291  0.22300527  0.87292721  1
  Cl  Cl493  1  -0.00730713  0.55752189  0.88237999  1
  Cl  Cl494  1  0.01348870  0.89070763  0.89032159  1
  Cl  Cl495  1  0.49745279  0.22287916  0.89284276  1
  Cl  Cl496  1  0.49312023  0.55656890  0.88401246  1
  Cl  Cl497  1  0.52008013  0.89392164  0.88567564  1
  Cl  Cl498  1  0.00230211  0.11842649  0.37681711  1
  Cl  Cl499  1  0.00826707  0.44312976  0.36894948  1
  Cl  Cl500  1  -0.04254038  0.77263975  0.39973514  1
  Cl  Cl501  1  0.49709335  0.10523567  0.38728619  1
  Cl  Cl502  1  0.51988802  0.44370990  0.40101872  1
  Cl  Cl503  1  0.46732918  0.77285723  0.38355625  1
  Cl  Cl504  1  0.36385526  0.14899878  0.74827458  1
  Cl  Cl505  1  0.36046584  0.48473905  0.74825748  1
  Cl  Cl506  1  0.37219218  0.81447183  0.75849582  1
  Cl  Cl507  1  0.86681029  0.14861551  0.75064637  1
  Cl  Cl508  1  0.85842066  0.48187867  0.74449323  1
  Cl  Cl509  1  0.87075790  0.81413910  0.74880437  1
  Cl  Cl510  1  0.14195187  0.18442637  0.24620790  1
  Cl  Cl511  1  0.13857907  0.52249474  0.24876918  1
  Cl  Cl512  1  0.12676971  0.85282170  0.25917389  1
  Cl  Cl513  1  0.63553238  0.18500160  0.24825134  1
  Cl  Cl514  1  0.64030934  0.51624502  0.24660490  1
  Cl  Cl515  1  0.64097513  0.84882297  0.25589737  1
  Cl  Cl516  1  0.14286783  0.14963690  0.75293761  1
  Cl  Cl517  1  0.14013318  0.48351349  0.76482079  1
  Cl  Cl518  1  0.14898154  0.81488567  0.74587637  1
  Cl  Cl519  1  0.64216765  0.14949602  0.75418797  1
  Cl  Cl520  1  0.63881252  0.48218310  0.75938521  1
  Cl  Cl521  1  0.64910701  0.81658308  0.75033896  1
  Cl  Cl522  1  0.36019539  0.18513003  0.26001741  1
  Cl  Cl523  1  0.36179215  0.51863893  0.26062245  1
  Cl  Cl524  1  0.35156976  0.84968280  0.25164418  1
  Cl  Cl525  1  0.85734817  0.18468669  0.25407071  1
  Cl  Cl526  1  0.85887851  0.51683321  0.24373991  1
  Cl  Cl527  1  0.86150474  0.85420985  0.24964513  1
  Cl  Cl528  1  0.11048673  0.31777198  0.75416002  1
  Cl  Cl529  1  0.11297340  0.64753799  0.74156136  1
  Cl  Cl530  1  0.11394797  0.98566358  0.75424372  1
  Cl  Cl531  1  0.60606184  0.31688877  0.75718899  1
  Cl  Cl532  1  0.61593649  0.64957681  0.74630208  1
  Cl  Cl533  1  0.61380603  0.98527806  0.74621946  1
  Cl  Cl534  1  0.38079889  0.01814042  0.24843697  1
  Cl  Cl535  1  0.38701233  0.35476816  0.25116501  1
  Cl  Cl536  1  0.39559602  0.68288067  0.24403284  1
  Cl  Cl537  1  0.88434854  0.02173623  0.25076748  1
  Cl  Cl538  1  0.89470600  0.35156579  0.24835271  1
  Cl  Cl539  1  0.88866630  0.67910449  0.25238267  1
  Cl  Cl540  1  0.38765959  0.31481918  0.74440079  1
  Cl  Cl541  1  0.39986512  0.65217267  0.74208738  1
  Cl  Cl542  1  0.39161752  0.97902331  0.74818573  1
  Cl  Cl543  1  0.88790979  0.31406256  0.74108752  1
  Cl  Cl544  1  0.89458959  0.64922639  0.75482859  1
  Cl  Cl545  1  0.89221782  0.97874638  0.75184275  1
  Cl  Cl546  1  0.10489918  0.01841902  0.24954929  1
  Cl  Cl547  1  0.11783798  0.35553200  0.23471610  1
  Cl  Cl548  1  0.11266743  0.68898041  0.24803681  1
  Cl  Cl549  1  0.60523582  0.01705837  0.25157921  1
  Cl  Cl550  1  0.60966018  0.35256118  0.25288454  1
  Cl  Cl551  1  0.61184650  0.68859878  0.25062395  1
