# generated using pymatgen
data_H8PbC4(N3Cl2)2
_symmetry_space_group_name_H-M   'P 1'
_cell_length_a   16.62811381
_cell_length_b   22.51086228
_cell_length_c   21.59217940
_cell_angle_alpha   90.00001901
_cell_angle_beta   89.99962479
_cell_angle_gamma   90.00039774
_symmetry_Int_Tables_number   1
_chemical_formula_structural   H8PbC4(N3Cl2)2
_chemical_formula_sum   'H192 Pb24 C96 N144 Cl96'
_cell_volume   8082.23733300
_cell_formula_units_Z   24
loop_
 _symmetry_equiv_pos_site_id
 _symmetry_equiv_pos_as_xyz
  1  'x, y, z'
loop_
 _atom_site_type_symbol
 _atom_site_label
 _atom_site_symmetry_multiplicity
 _atom_site_fract_x
 _atom_site_fract_y
 _atom_site_fract_z
 _atom_site_occupancy
  H  H0  1  -0.00670013  0.02915405  0.67783446  1
  H  H1  1  0.01092784  0.36592129  0.68264065  1
  H  H2  1  0.00059570  0.70199346  0.67726901  1
  H  H3  1  0.51079837  0.02772437  0.67831047  1
  H  H4  1  0.49140749  0.36462535  0.68387293  1
  H  H5  1  0.50479177  0.69962736  0.68221066  1
  H  H6  1  -0.01301650  0.30100118  0.18218159  1
  H  H7  1  0.00363345  0.64038944  0.18024979  1
  H  H8  1  0.00253019  0.96929722  0.18035440  1
  H  H9  1  0.51340369  0.30523670  0.17201796  1
  H  H10  1  0.50226912  0.63834306  0.18009999  1
  H  H11  1  0.50927652  0.97042275  0.17491452  1
  H  H12  1  0.00373232  0.02943783  0.81976132  1
  H  H13  1  0.00709749  0.36262243  0.82245039  1
  H  H14  1  -0.00975110  0.69769210  0.82426662  1
  H  H15  1  0.50404689  0.02963751  0.82427418  1
  H  H16  1  0.49489101  0.36186758  0.82108452  1
  H  H17  1  0.50623261  0.69376897  0.82404976  1
  H  H18  1  0.00616474  0.30282243  0.32086562  1
  H  H19  1  -0.00353033  0.63326721  0.31698002  1
  H  H20  1  0.00491165  0.96927728  0.31950766  1
  H  H21  1  0.49958638  0.30193195  0.32457619  1
  H  H22  1  0.50233828  0.63554509  0.31509317  1
  H  H23  1  0.49446209  0.97035957  0.31951703  1
  H  H24  1  0.25380516  0.19950166  0.67774365  1
  H  H25  1  0.25007739  0.53070146  0.68163589  1
  H  H26  1  0.24720425  0.86466722  0.67721450  1
  H  H27  1  0.74699487  0.19824834  0.68187801  1
  H  H28  1  0.74655497  0.52996729  0.68358280  1
  H  H29  1  0.75033970  0.86596883  0.68130237  1
  H  H30  1  0.25763339  0.13532851  0.17842084  1
  H  H31  1  0.24724062  0.47284569  0.17656270  1
  H  H32  1  0.26094658  0.80326066  0.17480289  1
  H  H33  1  0.74546073  0.13656712  0.17741108  1
  H  H34  1  0.74626864  0.47030368  0.17896929  1
  H  H35  1  0.74431928  0.80170045  0.17915750  1
  H  H36  1  0.23996113  0.19744118  0.82234323  1
  H  H37  1  0.24996637  0.53129515  0.82011860  1
  H  H38  1  0.25722413  0.86294434  0.82214061  1
  H  H39  1  0.75899486  0.19382220  0.82343452  1
  H  H40  1  0.74540736  0.52871784  0.82280136  1
  H  H41  1  0.73898876  0.86717377  0.82426110  1
  H  H42  1  0.24445239  0.13441338  0.32170574  1
  H  H43  1  0.25899043  0.46514437  0.31710488  1
  H  H44  1  0.25417422  0.80540093  0.32022760  1
  H  H45  1  0.75671476  0.13574296  0.31904440  1
  H  H46  1  0.73625262  0.46726328  0.31640380  1
  H  H47  1  0.73832261  0.80593079  0.32413765  1
  H  H48  1  0.12672246  0.05237735  0.61688183  1
  H  H49  1  0.12076601  0.38841905  0.60158930  1
  H  H50  1  0.11879488  0.72117476  0.60005518  1
  H  H51  1  0.62387388  0.05533610  0.59743610  1
  H  H52  1  0.62230823  0.38592132  0.62100274  1
  H  H53  1  0.61859471  0.72480708  0.60459572  1
  H  H54  1  0.37303275  0.28487097  0.12005717  1
  H  H55  1  0.37335620  0.61409250  0.11438265  1
  H  H56  1  0.37119702  0.95004418  0.11826065  1
  H  H57  1  0.87841953  0.27479282  0.09946566  1
  H  H58  1  0.87551270  0.61567284  0.11323179  1
  H  H59  1  0.87011696  0.94755388  0.11927993  1
  H  H60  1  0.37575109  0.05493155  0.89078739  1
  H  H61  1  0.37224574  0.39046469  0.89338288  1
  H  H62  1  0.37329495  0.71710542  0.88451893  1
  H  H63  1  0.87666712  0.05208185  0.88845935  1
  H  H64  1  0.86931736  0.38034442  0.87950682  1
  H  H65  1  0.88312953  0.72776404  0.90776461  1
  H  H66  1  0.11492965  0.27521170  0.40303763  1
  H  H67  1  0.12580348  0.61710404  0.38391440  1
  H  H68  1  0.12423262  0.94445821  0.39542803  1
  H  H69  1  0.61212952  0.27375787  0.40284067  1
  H  H70  1  0.62445298  0.61675952  0.38734861  1
  H  H71  1  0.62472620  0.94845606  0.38498264  1
  H  H72  1  0.38648582  0.21980540  0.61586663  1
  H  H73  1  0.37142993  0.55651131  0.60987265  1
  H  H74  1  0.37516653  0.88752570  0.60968782  1
  H  H75  1  0.88150681  0.21687951  0.62249501  1
  H  H76  1  0.87404472  0.55731987  0.61579490  1
  H  H77  1  0.87472068  0.88603113  0.61157183  1
  H  H78  1  0.12471267  0.11360790  0.11721908  1
  H  H79  1  0.13508676  0.44408148  0.09673827  1
  H  H80  1  0.12157502  0.78323627  0.12244839  1
  H  H81  1  0.62612803  0.11227138  0.10171827  1
  H  H82  1  0.63265004  0.44254507  0.09937103  1
  H  H83  1  0.62860483  0.78053415  0.10251108  1
  H  H84  1  0.13241635  0.22422154  0.90313274  1
  H  H85  1  0.12598513  0.55370679  0.88882821  1
  H  H86  1  0.13449388  0.88825008  0.89413619  1
  H  H87  1  0.62450630  0.21754472  0.88164817  1
  H  H88  1  0.62732303  0.55575841  0.89803077  1
  H  H89  1  0.63381852  0.89049025  0.90771213  1
  H  H90  1  0.37460912  0.11424533  0.38842589  1
  H  H91  1  0.37732765  0.44499075  0.39318582  1
  H  H92  1  0.38015901  0.77924925  0.38863295  1
  H  H93  1  0.86913932  0.10914044  0.39889540  1
  H  H94  1  0.87633281  0.44865250  0.37192371  1
  H  H95  1  0.87998872  0.78491897  0.37246492  1
  H  H96  1  0.36479722  0.27949759  0.38354300  1
  H  H97  1  0.37527847  0.61338598  0.38183906  1
  H  H98  1  0.37577301  0.94416683  0.39541022  1
  H  H99  1  0.86794784  0.28142565  0.37690081  1
  H  H100  1  0.87839884  0.61031601  0.39228968  1
  H  H101  1  0.87502555  0.94665019  0.38532251  1
  H  H102  1  0.12569510  0.05510302  0.89173778  1
  H  H103  1  0.11505822  0.39415026  0.90345311  1
  H  H104  1  0.12848641  0.71514168  0.88231843  1
  H  H105  1  0.62459523  0.05441075  0.89744350  1
  H  H106  1  0.62048410  0.38450857  0.89253012  1
  H  H107  1  0.62137335  0.72477824  0.90031853  1
  H  H108  1  0.12523318  0.28372307  0.12379811  1
  H  H109  1  0.12459671  0.61161442  0.10885793  1
  H  H110  1  0.11881938  0.94504659  0.10443450  1
  H  H111  1  0.61740177  0.27237528  0.08932798  1
  H  H112  1  0.62225935  0.61217153  0.10553589  1
  H  H113  1  0.61770476  0.94193056  0.09347066  1
  H  H114  1  0.37686331  0.05207249  0.61689066  1
  H  H115  1  0.37317226  0.38492563  0.60829999  1
  H  H116  1  0.37050380  0.71817330  0.62275682  1
  H  H117  1  0.87836481  0.05504764  0.59953463  1
  H  H118  1  0.87389582  0.38375716  0.62693216  1
  H  H119  1  0.87078466  0.72618038  0.61216334  1
  H  H120  1  0.12680378  0.11098097  0.39940739  1
  H  H121  1  0.12803502  0.44763940  0.38342194  1
  H  H122  1  0.13141531  0.78007550  0.39114328  1
  H  H123  1  0.62122586  0.11594673  0.38070284  1
  H  H124  1  0.63064931  0.44150905  0.40096523  1
  H  H125  1  0.63700355  0.77555896  0.40950409  1
  H  H126  1  0.37884056  0.21386665  0.87716988  1
  H  H127  1  0.37474825  0.55285852  0.88884046  1
  H  H128  1  0.38335146  0.88723619  0.89249600  1
  H  H129  1  0.87197305  0.22423559  0.90156308  1
  H  H130  1  0.87561407  0.55392103  0.88792974  1
  H  H131  1  0.87852551  0.88218440  0.87674871  1
  H  H132  1  0.37237624  0.11107359  0.09861864  1
  H  H133  1  0.38239794  0.44894211  0.11858221  1
  H  H134  1  0.36627988  0.77327289  0.09043365  1
  H  H135  1  0.87462319  0.11127260  0.11107121  1
  H  H136  1  0.87956529  0.44705492  0.11587407  1
  H  H137  1  0.87727946  0.78255399  0.11726055  1
  H  H138  1  0.13807852  0.22069948  0.60172575  1
  H  H139  1  0.12368092  0.55239957  0.61271381  1
  H  H140  1  0.12637896  0.88905565  0.60410405  1
  H  H141  1  0.63344936  0.22171985  0.60372873  1
  H  H142  1  0.62486067  0.55443487  0.61168992  1
  H  H143  1  0.62560102  0.88727659  0.61282994  1
  H  H144  1  0.83253306  0.58428429  0.99320489  1
  H  H145  1  0.94394920  0.08369212  0.49696081  1
  H  H146  1  0.85568431  0.24551881  0.50904099  1
  H  H147  1  0.32059272  0.42892269  0.50510313  1
  H  H148  1  0.38971563  0.24919349  0.01075563  1
  H  H149  1  0.89499602  0.41083644  0.51245317  1
  H  H150  1  0.55586143  0.75369350  1.00330135  1
  H  H151  1  0.80379961  0.25098376  1.00414377  1
  H  H152  1  0.19608752  0.24752568  0.49164325  1
  H  H153  1  0.58603597  0.91813058  0.49486668  1
  H  H154  1  0.57406874  0.60095681  0.50138649  1
  H  H155  1  0.17090186  0.40951893  0.48737823  1
  H  H156  1  0.95058789  0.24902727  -0.00514251  1
  H  H157  1  0.19883175  0.25138643  1.00928379  1
  H  H158  1  0.80243622  0.07877896  0.50345624  1
  H  H159  1  0.71666264  0.75243446  0.50878973  1
  H  H160  1  0.55833298  0.75251195  0.49658123  1
  H  H161  1  0.20409752  0.42077253  -0.00621449  1
  H  H162  1  0.82781388  0.56790881  0.50685506  1
  H  H163  1  0.89608263  0.91612888  0.00668995  1
  H  H164  1  0.54496551  0.24594019  0.50560508  1
  H  H165  1  0.17893462  0.55165205  0.50519979  1
  H  H166  1  0.07608047  0.62253502  0.49207802  1
  H  H167  1  0.07236712  0.58233100  0.00100754  1
  H  H168  1  0.41671769  0.58213992  0.49309404  1
  H  H169  1  0.05347452  0.41164283  0.49281476  1
  H  H170  1  0.07507853  0.08396003  0.99996755  1
  H  H171  1  0.58766644  0.41070726  0.50679445  1
  H  H172  1  0.10422347  0.74569648  0.99104516  1
  H  H173  1  0.41369121  0.58192968  0.00530954  1
  H  H174  1  0.39693960  0.74876829  0.51050021  1
  H  H175  1  0.06279377  0.91561824  -0.00320071  1
  H  H176  1  0.33613527  0.91592246  0.99610578  1
  H  H177  1  0.05849029  0.76284762  0.50370804  1
  H  H178  1  0.82992056  0.07949322  0.00646233  1
  H  H179  1  0.68755638  0.75559557  -0.00823156  1
  H  H180  1  0.04131319  0.40763312  1.00490473  1
  H  H181  1  0.90691609  0.74807344  0.50327704  1
  H  H182  1  0.89411578  0.41841992  0.98439158  1
  H  H183  1  0.42873338  0.40180754  0.49611438  1
  H  H184  1  0.70592676  0.41537661  0.50463863  1
  H  H185  1  0.04272260  0.24636146  0.50344826  1
  H  H186  1  0.67789942  0.57098736  0.49838523  1
  H  H187  1  0.94555604  0.56617713  0.48604584  1
  H  H188  1  0.91484987  0.91629294  0.49512121  1
  H  H189  1  0.69430832  0.24758267  0.49507361  1
  H  H190  1  0.33252272  0.08492134  0.49434651  1
  H  H191  1  0.30681451  0.61198612  0.52237855  1
  Pb  Pb192  1  0.25149779  0.04728493  0.74899463  1
  Pb  Pb193  1  0.25125621  0.38271414  0.74971655  1
  Pb  Pb194  1  0.24836645  0.71154955  0.74621907  1
  Pb  Pb195  1  0.75110777  0.04551274  0.74770135  1
  Pb  Pb196  1  0.74843053  0.37855478  0.75001462  1
  Pb  Pb197  1  0.75062754  0.72031484  0.75259100  1
  Pb  Pb198  1  0.24936829  0.28631292  0.25421368  1
  Pb  Pb199  1  0.25217489  0.61903970  0.25611862  1
  Pb  Pb200  1  0.25301618  0.95345220  0.24882980  1
  Pb  Pb201  1  0.75231184  0.28420923  0.24427740  1
  Pb  Pb202  1  0.75174550  0.62103912  0.25281189  1
  Pb  Pb203  1  0.74812464  0.95298758  0.24867729  1
  Pb  Pb204  1  0.00197310  0.21332621  0.75215418  1
  Pb  Pb205  1  -0.00263172  0.54839292  0.74510536  1
  Pb  Pb206  1  0.00706304  0.88216168  0.74873549  1
  Pb  Pb207  1  0.50269031  0.21166509  0.74410783  1
  Pb  Pb208  1  0.50440704  0.54920920  0.74850218  1
  Pb  Pb209  1  0.49597438  0.88135934  0.75322644  1
  Pb  Pb210  1  0.00273383  0.11756877  0.25625736  1
  Pb  Pb211  1  0.00218964  0.45302237  0.24431275  1
  Pb  Pb212  1  0.00311314  0.78786846  0.25749520  1
  Pb  Pb213  1  0.49943713  0.12074897  0.24394907  1
  Pb  Pb214  1  0.50528012  0.45064661  0.25511295  1
  Pb  Pb215  1  0.50151420  0.78684411  0.24726482  1
  C  C216  1  -0.00072759  0.04474945  0.63064226  1
  C  C217  1  0.00135720  0.37902860  0.63472450  1
  C  C218  1  -0.00344919  0.71690364  0.62936600  1
  C  C219  1  0.50411340  0.04461657  0.63148312  1
  C  C220  1  0.49581231  0.37867857  0.63585608  1
  C  C221  1  0.49755124  0.71435031  0.63462712  1
  C  C222  1  -0.00282366  0.28656148  0.13486564  1
  C  C223  1  0.00110626  0.62263045  0.13361927  1
  C  C224  1  -0.00312000  0.95373517  0.13287831  1
  C  C225  1  0.50074279  0.28780988  0.12624218  1
  C  C226  1  0.49937645  0.62191197  0.13300134  1
  C  C227  1  0.49899134  0.95431130  0.12844223  1
  C  C228  1  0.00189890  0.04567383  0.86704963  1
  C  C229  1  -0.00312612  0.37892252  0.86927306  1
  C  C230  1  0.00092570  0.71303260  0.87121769  1
  C  C231  1  0.50123312  0.04613847  0.87120174  1
  C  C232  1  0.49566571  0.37844264  0.86817675  1
  C  C233  1  0.50071983  0.71092274  0.87069123  1
  C  C234  1  -0.00338669  0.28729493  0.36788873  1
  C  C235  1  0.00045174  0.61983634  0.36517978  1
  C  C236  1  0.00139953  0.95355450  0.36690429  1
  C  C237  1  0.49215322  0.28607932  0.37172275  1
  C  C238  1  0.50059172  0.62134723  0.36315436  1
  C  C239  1  0.49831301  0.95453384  0.36681222  1
  C  C240  1  0.25944484  0.21347492  0.62991933  1
  C  C241  1  0.24817747  0.54612402  0.63390788  1
  C  C242  1  0.24979532  0.88014151  0.62990884  1
  C  C243  1  0.75441613  0.21247531  0.63412892  1
  C  C244  1  0.74930686  0.54601042  0.63611075  1
  C  C245  1  0.75022127  0.87993046  0.63334514  1
  C  C246  1  0.25171434  0.12020563  0.13114067  1
  C  C247  1  0.25450582  0.45701268  0.12957041  1
  C  C248  1  0.24974878  0.78706918  0.12844700  1
  C  C249  1  0.74913701  0.12005923  0.13030012  1
  C  C250  1  0.75293395  0.45450490  0.13173392  1
  C  C251  1  0.74991454  0.78856133  0.13109984  1
  C  C252  1  0.25010014  0.21179373  0.86964103  1
  C  C253  1  0.25016835  0.54585095  0.86790589  1
  C  C254  1  0.25877336  0.87928986  0.86936214  1
  C  C255  1  0.75216524  0.21033783  0.87015525  1
  C  C256  1  0.74985186  0.54523568  0.86976364  1
  C  C257  1  0.75094616  0.88018761  0.87163415  1
  C  C258  1  0.24880547  0.11952494  0.36942241  1
  C  C259  1  0.25414039  0.45150949  0.36527535  1
  C  C260  1  0.25553539  0.78867985  0.36702823  1
  C  C261  1  0.74885465  0.12029045  0.36626481  1
  C  C262  1  0.74815684  0.45289724  0.36356316  1
  C  C263  1  0.75170766  0.78997842  0.37047756  1
  C  C264  1  0.73326433  0.42658504  0.46016091  1
  C  C265  1  0.44304031  0.73936542  0.54488306  1
  C  C266  1  0.79097376  0.90492339  0.53996901  1
  C  C267  1  0.81913128  0.76115010  0.45368458  1
  C  C268  1  0.72745135  0.23767348  0.53728425  1
  C  C269  1  0.05346950  0.07529525  0.54206877  1
  C  C270  1  0.29159603  0.57155053  0.96090760  1
  C  C271  1  0.21689272  0.90941398  0.53704518  1
  C  C272  1  0.44668100  0.74346812  0.95853539  1
  C  C273  1  0.71145679  0.56990371  0.54159524  1
  C  C274  1  0.53810315  0.60160225  0.45933905  1
  C  C275  1  0.20966760  0.57216026  0.96091304  1
  C  C276  1  0.97960814  0.25972215  0.03869088  1
  C  C277  1  0.54500336  0.40071075  0.54351221  1
  C  C278  1  0.95796250  0.92652500  0.45780462  1
  C  C279  1  0.31153050  0.23538113  0.95678389  1
  C  C280  1  0.46335346  0.39844162  0.53866023  1
  C  C281  1  0.02351079  0.40260011  0.53662885  1
  C  C282  1  0.03409646  0.59305215  0.04077573  1
  C  C283  1  0.77100079  0.09148923  0.46118817  1
  C  C284  1  0.52464985  0.74114337  0.53817849  1
  C  C285  1  0.23126438  0.23820856  0.53300132  1
  C  C286  1  0.23118955  0.23949229  0.96725072  1
  C  C287  1  0.21940409  0.75888424  0.45955868  1
  C  C288  1  0.54251719  0.92775630  0.45764669  1
  C  C289  1  0.72169269  0.76444713  0.03374936  1
  C  C290  1  0.94464632  0.92688977  0.04257688  1
  C  C291  1  0.93634833  0.25923281  0.45456959  1
  C  C292  1  0.51797857  0.25248341  0.03097159  1
  C  C293  1  0.69574433  0.24235848  0.95725903  1
  C  C294  1  0.45669409  0.59323662  0.04241861  1
  C  C295  1  0.80275343  0.76557466  0.04051686  1
  C  C296  1  0.20223504  0.09253092  0.04176310  1
  C  C297  1  0.03598662  0.07342381  0.96031204  1
  C  C298  1  0.70874877  0.90536526  0.54035375  1
  C  C299  1  0.53378062  0.07751563  0.96338545  1
  C  C300  1  0.28780421  0.43141187  0.46164353  1
  C  C301  1  0.94229241  0.40166455  0.54600387  1
  C  C302  1  0.31162933  0.42781073  0.04165732  1
  C  C303  1  0.02658245  0.92629810  0.03728616  1
  C  C304  1  0.31321870  0.23757217  0.53890257  1
  C  C305  1  0.19071328  0.75927392  0.04278827  1
  C  C306  1  0.81379687  0.90296679  0.95831065  1
  C  C307  1  0.51795708  0.92247564  0.03376002  1
  C  C308  1  0.80907417  0.23642453  0.54409184  1
  C  C309  1  0.73421147  0.90590859  0.96848156  1
  C  C310  1  0.45650166  0.59704638  0.45635633  1
  C  C311  1  0.43508846  0.25578015  0.46011084  1
  N  N312  1  0.79082425  0.09201555  0.04084495  1
  N  N313  1  0.45246138  0.07549471  0.54323732  1
  N  N314  1  0.52857350  0.07620293  0.53670035  1
  N  N315  1  0.03716206  0.92543503  0.46170868  1
  N  N316  1  0.27929908  0.09140031  0.03470649  1
  N  N317  1  0.29698325  0.90735465  0.95987761  1
  N  N318  1  0.81128767  0.42883421  0.45043642  1
  N  N319  1  0.72712704  0.42652084  0.03601334  1
  N  N320  1  0.79270469  0.57529066  0.95811890  1
  N  N321  1  0.46345386  0.92550110  0.46163589  1
  N  N322  1  0.95460833  0.59405070  0.04155262  1
  N  N323  1  0.44072663  0.25765902  0.04203825  1
  N  N324  1  0.29235050  0.09498506  0.45968604  1
  N  N325  1  0.77425346  0.24303463  0.96324893  1
  N  N326  1  0.79109924  0.57238707  0.54443842  1
  N  N327  1  0.01442364  0.25752299  0.46273576  1
  N  N328  1  0.53588839  0.59247676  0.03872529  1
  N  N329  1  0.01667905  0.41417021  0.96160830  1
  N  N330  1  0.28675820  0.57225109  0.54032625  1
  N  N331  1  0.94970114  0.74605473  0.54081881  1
  N  N332  1  0.45935910  0.40806501  0.96132816  1
  N  N333  1  0.95639514  0.07270479  0.95979514  1
  N  N334  1  0.26700105  0.75492207  0.03161223  1
  N  N335  1  0.05640086  0.73751230  0.95786298  1
  N  N336  1  0.29420930  0.90884764  0.53748882  1
  N  N337  1  0.23322396  0.42702242  0.03536149  1
  N  N338  1  0.44105658  0.92487321  0.04083439  1
  N  N339  1  0.96595010  0.60218665  0.46130514  1
  N  N340  1  0.69232916  0.09409465  0.45542226  1
  N  N341  1  0.20314048  0.57359852  0.54261454  1
  N  N342  1  0.71282792  0.09149175  0.03654968  1
  N  N343  1  0.71483646  0.57552483  0.96327816  1
  N  N344  1  0.97931361  0.74230981  0.96728880  1
  N  N345  1  0.51420488  0.25448749  0.46534682  1
  N  N346  1  0.21446616  0.09414200  0.46472655  1
  N  N347  1  0.52527896  0.74435170  0.96320281  1
  N  N348  1  0.93902475  0.40118681  0.95592732  1
  N  N349  1  0.45655666  0.07816008  0.96230294  1
  N  N350  1  0.74161478  0.75820905  0.46541407  1
  N  N351  1  0.02771392  0.73557414  0.53370833  1
  N  N352  1  0.97486713  0.07522365  0.53709239  1
  N  N353  1  0.21857614  0.90782705  0.96211314  1
  N  N354  1  0.29704874  0.75832308  0.45975616  1
  N  N355  1  0.80326116  0.42915704  0.04123638  1
  N  N356  1  0.53548581  0.40649329  0.96103931  1
  N  N357  1  0.04908099  0.59914021  0.45689188  1
  N  N358  1  0.20822252  0.43122984  0.45738797  1
  N  N359  1  0.05813364  0.26208719  0.04685432  1
  N  N360  1  0.06878964  0.05690681  0.60005872  1
  N  N361  1  0.05917176  0.38838637  0.59242525  1
  N  N362  1  0.05748527  0.72801967  0.59167583  1
  N  N363  1  0.56196164  0.05700204  0.59123332  1
  N  N364  1  0.56379462  0.38841628  0.60410264  1
  N  N365  1  0.55730429  0.72535023  0.59450845  1
  N  N366  1  0.42964569  0.27926620  0.10083633  1
  N  N367  1  0.43283422  0.61096958  0.09997015  1
  N  N368  1  0.42925102  0.94490500  0.10123646  1
  N  N369  1  0.94055574  0.27454322  0.09232367  1
  N  N370  1  0.93587443  0.61283322  0.10007271  1
  N  N371  1  0.92819831  0.94380201  0.10229302  1
  N  N372  1  0.43598767  0.05838854  0.90369102  1
  N  N373  1  0.43299898  0.39047892  0.90393859  1
  N  N374  1  0.43122685  0.72313499  0.90122210  1
  N  N375  1  0.93714765  0.05526620  0.90114443  1
  N  N376  1  0.92667174  0.38940781  0.89591668  1
  N  N377  1  0.94510004  0.72714970  0.91308007  1
  N  N378  1  0.05261681  0.27601948  0.40958149  1
  N  N379  1  0.06648302  0.61929319  0.39909077  1
  N  N380  1  0.06248559  0.94236804  0.40468671  1
  N  N381  1  0.55033853  0.27525112  0.41180179  1
  N  N382  1  0.56456098  0.61554557  0.40065858  1
  N  N383  1  0.56540795  0.94498085  0.39967080  1
  N  N384  1  0.32883069  0.22298768  0.59819312  1
  N  N385  1  0.31047476  0.56208367  0.59990379  1
  N  N386  1  0.31496141  0.89031801  0.59651850  1
  N  N387  1  0.82417752  0.22099831  0.60450977  1
  N  N388  1  0.81436055  0.55329311  0.60186972  1
  N  N389  1  0.81499225  0.88961406  0.59727399  1
  N  N390  1  0.18270747  0.10983216  0.10021109  1
  N  N391  1  0.19679644  0.44735614  0.08858671  1
  N  N392  1  0.17759896  0.77836221  0.10198524  1
  N  N393  1  0.68746447  0.10922938  0.09250768  1
  N  N394  1  0.69457395  0.44212744  0.09190052  1
  N  N395  1  0.68953555  0.77888036  0.09154407  1
  N  N396  1  0.19378725  0.22467301  0.91139511  1
  N  N397  1  0.18538403  0.55662792  0.90376278  1
  N  N398  1  0.19556731  0.89074857  0.90536372  1
  N  N399  1  0.68198277  0.22257315  0.89954524  1
  N  N400  1  0.68858642  0.55739463  0.90757542  1
  N  N401  1  0.69564383  0.89204369  0.91566499  1
  N  N402  1  0.31477542  0.10966517  0.40198729  1
  N  N403  1  0.31655286  0.44485431  0.40492372  1
  N  N404  1  0.31981605  0.77711321  0.40085313  1
  N  N405  1  0.80744426  0.10747580  0.40685438  1
  N  N406  1  0.81891735  0.44475419  0.39005347  1
  N  N407  1  0.82551355  0.77934407  0.39433751  1
  N  N408  1  0.42180433  0.27460366  0.40155288  1
  N  N409  1  0.43442333  0.60979912  0.39646904  1
  N  N410  1  0.43743416  0.94236590  0.40444634  1
  N  N411  1  0.92473949  0.27715416  0.39572367  1
  N  N412  1  0.93971916  0.60508309  0.40145972  1
  N  N413  1  0.93459720  0.94336915  0.39983530  1
  N  N414  1  0.06500437  0.05753625  0.90357155  1
  N  N415  1  0.05300182  0.38993249  0.91128391  1
  N  N416  1  0.07056709  0.71962852  0.89974444  1
  N  N417  1  0.56422611  0.05803842  0.90866317  1
  N  N418  1  0.55963937  0.38862140  0.90320657  1
  N  N419  1  0.55993749  0.72292685  0.90963724  1
  N  N420  1  0.06704175  0.27825671  0.10680477  1
  N  N421  1  0.06381516  0.60951690  0.09709827  1
  N  N422  1  0.05772605  0.94284823  0.09383487  1
  N  N423  1  0.55570472  0.27140792  0.08287251  1
  N  N424  1  0.56086962  0.61037407  0.09578212  1
  N  N425  1  0.55584074  0.94004789  0.08621037  1
  N  N426  1  0.43615469  0.05634296  0.60206091  1
  N  N427  1  0.43377342  0.38541638  0.59655111  1
  N  N428  1  0.42782317  0.72295842  0.60489188  1
  N  N429  1  0.94018820  0.05485586  0.59099766  1
  N  N430  1  0.93023213  0.38716156  0.60685352  1
  N  N431  1  0.92994730  0.72559866  0.59695674  1
  N  N432  1  0.18789882  0.10966210  0.40822555  1
  N  N433  1  0.18780533  0.44018378  0.39676097  1
  N  N434  1  0.19169246  0.77681869  0.40346729  1
  N  N435  1  0.68033066  0.11158394  0.39619582  1
  N  N436  1  0.69285756  0.44150254  0.40732579  1
  N  N437  1  0.69924937  0.77879594  0.41482115  1
  N  N438  1  0.32240689  0.21893066  0.89746572  1
  N  N439  1  0.31530812  0.55581314  0.90367970  1
  N  N440  1  0.32265613  0.88973643  0.90405702  1
  N  N441  1  0.81030910  0.22141166  0.91031514  1
  N  N442  1  0.81584970  0.55612618  0.90191375  1
  N  N443  1  0.82366245  0.88743452  0.89845992  1
  N  N444  1  0.31040400  0.10897702  0.09163443  1
  N  N445  1  0.32500824  0.44531911  0.10027021  1
  N  N446  1  0.30390998  0.77297425  0.08629704  1
  N  N447  1  0.81456533  0.10863289  0.09764169  1
  N  N448  1  0.82069981  0.44640187  0.10064181  1
  N  N449  1  0.81925433  0.77996974  0.09923681  1
  N  N450  1  0.19915621  0.22328839  0.59056140  1
  N  N451  1  0.18336403  0.54967901  0.59859868  1
  N  N452  1  0.18669626  0.89212235  0.59262268  1
  N  N453  1  0.69481536  0.22280202  0.59372540  1
  N  N454  1  0.68520097  0.55653274  0.59903443  1
  N  N455  1  0.68509975  0.89024565  0.59767432  1
  Cl  Cl456  1  0.25316713  0.05428570  0.61494605  1
  Cl  Cl457  1  0.24605728  0.39286229  0.61149542  1
  Cl  Cl458  1  0.23994503  0.71367664  0.61234400  1
  Cl  Cl459  1  0.75396560  0.05415230  0.61078831  1
  Cl  Cl460  1  0.74575821  0.39154494  0.61613468  1
  Cl  Cl461  1  0.74426600  0.72711454  0.60694205  1
  Cl  Cl462  1  0.24897819  0.28818000  0.12269602  1
  Cl  Cl463  1  0.24780832  0.61337441  0.12568813  1
  Cl  Cl464  1  0.24479459  0.94669848  0.11580757  1
  Cl  Cl465  1  0.75245363  0.27205537  0.10386044  1
  Cl  Cl466  1  0.75069177  0.61423896  0.12004923  1
  Cl  Cl467  1  0.74079517  0.94625585  0.11660406  1
  Cl  Cl468  1  0.24952370  0.05285227  0.87949853  1
  Cl  Cl469  1  0.23743682  0.39739802  0.89270493  1
  Cl  Cl470  1  0.24970515  0.71359654  0.87667956  1
  Cl  Cl471  1  0.75231652  0.05448549  0.88130084  1
  Cl  Cl472  1  0.74510998  0.37851043  0.88168263  1
  Cl  Cl473  1  0.74939544  0.72456304  0.88673564  1
  Cl  Cl474  1  0.23644246  0.28007007  0.38942070  1
  Cl  Cl475  1  0.24838570  0.60715975  0.39357729  1
  Cl  Cl476  1  0.24891496  0.94676041  0.38160414  1
  Cl  Cl477  1  0.73595440  0.27729771  0.37934393  1
  Cl  Cl478  1  0.75476014  0.61127891  0.39257869  1
  Cl  Cl479  1  0.75070662  0.94607599  0.38034587  1
  Cl  Cl480  1  0.01328521  0.22040525  0.61010671  1
  Cl  Cl481  1  -0.00045545  0.56552917  0.60349644  1
  Cl  Cl482  1  0.00001301  0.88450626  0.61606470  1
  Cl  Cl483  1  0.51290408  0.22545811  0.60754189  1
  Cl  Cl484  1  0.49630235  0.55504062  0.61280651  1
  Cl  Cl485  1  0.50125848  0.88733764  0.62167932  1
  Cl  Cl486  1  -0.00240080  0.11301461  0.12319349  1
  Cl  Cl487  1  0.01111845  0.43733029  0.10529882  1
  Cl  Cl488  1  -0.00063246  0.77736051  0.12905808  1
  Cl  Cl489  1  0.50123888  0.11536613  0.11079579  1
  Cl  Cl490  1  0.50893662  0.44555868  0.12397092  1
  Cl  Cl491  1  0.50044364  0.77574750  0.10748754  1
  Cl  Cl492  1  -0.00422160  0.22716377  0.88748897  1
  Cl  Cl493  1  -0.00117585  0.55304721  0.87799643  1
  Cl  Cl494  1  0.01309591  0.88661193  0.88211784  1
  Cl  Cl495  1  0.50278081  0.21667867  0.87492869  1
  Cl  Cl496  1  0.50259959  0.55770297  0.88050800  1
  Cl  Cl497  1  0.50695298  0.88511915  0.88828991  1
  Cl  Cl498  1  -0.00448349  0.11075659  0.39615200  1
  Cl  Cl499  1  0.00567149  0.45038748  0.37876911  1
  Cl  Cl500  1  0.00824999  0.77572313  0.39424819  1
  Cl  Cl501  1  0.49622375  0.11970408  0.37640318  1
  Cl  Cl502  1  0.50421267  0.44010949  0.39078835  1
  Cl  Cl503  1  0.51318265  0.77642946  0.38281858  1
  Cl  Cl504  1  0.36231569  0.14807631  0.74872372  1
  Cl  Cl505  1  0.35708313  0.47821652  0.74626419  1
  Cl  Cl506  1  0.36120244  0.81155910  0.74650782  1
  Cl  Cl507  1  0.86566546  0.14552038  0.74574833  1
  Cl  Cl508  1  0.86379182  0.47745337  0.75100349  1
  Cl  Cl509  1  0.86242029  0.80990020  0.75214198  1
  Cl  Cl510  1  0.13824091  0.18515935  0.24821116  1
  Cl  Cl511  1  0.13578295  0.52109204  0.25622871  1
  Cl  Cl512  1  0.13870775  0.85366213  0.24695957  1
  Cl  Cl513  1  0.63902916  0.18444493  0.24802884  1
  Cl  Cl514  1  0.64284966  0.51855453  0.25206714  1
  Cl  Cl515  1  0.64321336  0.84888573  0.25106560  1
  Cl  Cl516  1  0.14093219  0.14889280  0.75071272  1
  Cl  Cl517  1  0.13670268  0.48150822  0.74498891  1
  Cl  Cl518  1  0.14137303  0.81373029  0.75219440  1
  Cl  Cl519  1  0.64470641  0.14982964  0.75151558  1
  Cl  Cl520  1  0.64253058  0.48266943  0.75097837  1
  Cl  Cl521  1  0.64367197  0.81299441  0.74850210  1
  Cl  Cl522  1  0.35852108  0.18611152  0.25065141  1
  Cl  Cl523  1  0.35677289  0.52051481  0.25177569  1
  Cl  Cl524  1  0.35912229  0.85171403  0.24723848  1
  Cl  Cl525  1  0.85716713  0.19009981  0.25018024  1
  Cl  Cl526  1  0.86675035  0.52192217  0.25261982  1
  Cl  Cl527  1  0.86438416  0.85400094  0.25183645  1
  Cl  Cl528  1  0.10827232  0.31679550  0.75278768  1
  Cl  Cl529  1  0.10844373  0.64801324  0.74902458  1
  Cl  Cl530  1  0.11113349  0.98114008  0.74482096  1
  Cl  Cl531  1  0.60822198  0.31569152  0.74627704  1
  Cl  Cl532  1  0.60642439  0.64681039  0.74651831  1
  Cl  Cl533  1  0.61044121  0.98086598  0.75027838  1
  Cl  Cl534  1  0.39118818  0.01759174  0.24666879  1
  Cl  Cl535  1  0.38300333  0.35584726  0.25292665  1
  Cl  Cl536  1  0.38819722  0.68674391  0.25624270  1
  Cl  Cl537  1  0.88338760  0.02217850  0.25032277  1
  Cl  Cl538  1  0.88729690  0.35402585  0.25562841  1
  Cl  Cl539  1  0.88954448  0.68796574  0.25504761  1
  Cl  Cl540  1  0.38603434  0.31108000  0.74888925  1
  Cl  Cl541  1  0.38524119  0.64513573  0.74714812  1
  Cl  Cl542  1  0.38859587  0.97878260  0.75237323  1
  Cl  Cl543  1  0.88636617  0.31191273  0.74787624  1
  Cl  Cl544  1  0.88989982  0.64611385  0.74258469  1
  Cl  Cl545  1  0.89177564  0.98060343  0.75295936  1
  Cl  Cl546  1  0.10295379  0.02038925  0.25120252  1
  Cl  Cl547  1  0.10982340  0.35179384  0.24915943  1
  Cl  Cl548  1  0.10972019  0.68595343  0.25717743  1
  Cl  Cl549  1  0.61094717  0.01986408  0.25283568  1
  Cl  Cl550  1  0.60128117  0.35079665  0.25012159  1
  Cl  Cl551  1  0.60925393  0.68309634  0.24745525  1
