# generated using pymatgen
data_H8PbC4(N3Cl2)2
_symmetry_space_group_name_H-M   'P 1'
_cell_length_a   16.62539394
_cell_length_b   22.50844107
_cell_length_c   21.59276267
_cell_angle_alpha   89.99966556
_cell_angle_beta   90.01883828
_cell_angle_gamma   89.99459522
_symmetry_Int_Tables_number   1
_chemical_formula_structural   H8PbC4(N3Cl2)2
_chemical_formula_sum   'H192 Pb24 C96 N144 Cl96'
_cell_volume   8080.26394944
_cell_formula_units_Z   24
loop_
 _symmetry_equiv_pos_site_id
 _symmetry_equiv_pos_as_xyz
  1  'x, y, z'
loop_
 _atom_site_type_symbol
 _atom_site_label
 _atom_site_symmetry_multiplicity
 _atom_site_fract_x
 _atom_site_fract_y
 _atom_site_fract_z
 _atom_site_occupancy
  H  H0  1  -0.00076852  0.03180655  0.67750552  1
  H  H1  1  -0.00629668  0.36191305  0.67856976  1
  H  H2  1  0.00666313  0.69730116  0.68354082  1
  H  H3  1  0.50889463  0.03233490  0.67672964  1
  H  H4  1  0.50457692  0.36157234  0.67750366  1
  H  H5  1  0.50869137  0.69554636  0.68046672  1
  H  H6  1  0.00200116  0.30237754  0.17845682  1
  H  H7  1  -0.00572037  0.63634208  0.18223381  1
  H  H8  1  0.00147767  0.97059855  0.17933328  1
  H  H9  1  0.50096169  0.30199062  0.17756724  1
  H  H10  1  0.49544812  0.63414487  0.18494650  1
  H  H11  1  0.49383836  0.97062104  0.18168779  1
  H  H12  1  0.00008160  0.03231175  0.81921162  1
  H  H13  1  -0.00233337  0.36121892  0.82438660  1
  H  H14  1  0.00765188  0.69619947  0.81905093  1
  H  H15  1  0.50009909  0.03268132  0.81876370  1
  H  H16  1  0.49545565  0.36304564  0.81965100  1
  H  H17  1  0.50456859  0.69910462  0.81832718  1
  H  H18  1  -0.01274741  0.29934031  0.32429154  1
  H  H19  1  0.00776690  0.63692432  0.31918560  1
  H  H20  1  -0.00434499  0.97168642  0.32138979  1
  H  H21  1  0.49477312  0.30253395  0.31843199  1
  H  H22  1  0.49516128  0.63588570  0.32179290  1
  H  H23  1  0.49353226  0.96949669  0.31890596  1
  H  H24  1  0.25471989  0.19627308  0.68134162  1
  H  H25  1  0.24650878  0.53104872  0.68023809  1
  H  H26  1  0.25322813  0.86469902  0.68208312  1
  H  H27  1  0.76187737  0.19701915  0.67446574  1
  H  H28  1  0.75524969  0.53020729  0.68222905  1
  H  H29  1  0.75405538  0.86446921  0.68067463  1
  H  H30  1  0.24570516  0.13600353  0.18087585  1
  H  H31  1  0.25870686  0.46635515  0.17965785  1
  H  H32  1  0.24717752  0.80429061  0.17746348  1
  H  H33  1  0.75408318  0.13667693  0.18086788  1
  H  H34  1  0.74941638  0.46930146  0.18262858  1
  H  H35  1  0.74870928  0.80267800  0.18307464  1
  H  H36  1  0.24058236  0.19669184  0.82365030  1
  H  H37  1  0.26051661  0.53275234  0.81649517  1
  H  H38  1  0.25229220  0.86532136  0.81675165  1
  H  H39  1  0.76227158  0.19683470  0.82087287  1
  H  H40  1  0.73534843  0.52925099  0.81913052  1
  H  H41  1  0.74305880  0.86443028  0.81923088  1
  H  H42  1  0.24382402  0.13724393  0.32408448  1
  H  H43  1  0.26226405  0.46752492  0.32018226  1
  H  H44  1  0.24865354  0.80289043  0.31686459  1
  H  H45  1  0.75199580  0.13486777  0.32636705  1
  H  H46  1  0.73686847  0.47026804  0.32096133  1
  H  H47  1  0.74653308  0.80528902  0.32015263  1
  H  H48  1  0.12166695  0.05687286  0.60623495  1
  H  H49  1  0.12397755  0.38623319  0.61417337  1
  H  H50  1  0.11897820  0.72271761  0.60414680  1
  H  H51  1  0.61556376  0.05958602  0.59213722  1
  H  H52  1  0.61854342  0.38874680  0.59865631  1
  H  H53  1  0.61531428  0.72486992  0.59599553  1
  H  H54  1  0.37229341  0.27903417  0.11047539  1
  H  H55  1  0.37360961  0.61336809  0.11282156  1
  H  H56  1  0.37484075  0.94738760  0.10657425  1
  H  H57  1  0.87461237  0.27992947  0.10950982  1
  H  H58  1  0.87527972  0.61079619  0.10734226  1
  H  H59  1  0.87297453  0.94635953  0.11250413  1
  H  H60  1  0.37553849  0.05391162  0.88773770  1
  H  H61  1  0.38112876  0.38879465  0.89875707  1
  H  H62  1  0.36784083  0.71965901  0.87778386  1
  H  H63  1  0.87546703  0.05697480  0.89111784  1
  H  H64  1  0.88373124  0.38900471  0.90054624  1
  H  H65  1  0.87027165  0.71731298  0.87553412  1
  H  H66  1  0.12754825  0.28337219  0.37429519  1
  H  H67  1  0.12021181  0.60880100  0.39883542  1
  H  H68  1  0.13255874  0.94925257  0.37874576  1
  H  H69  1  0.62886095  0.27953799  0.38243811  1
  H  H70  1  0.62302318  0.61215176  0.38992768  1
  H  H71  1  0.63314278  0.95329144  0.37356810  1
  H  H72  1  0.36897130  0.22369730  0.60180615  1
  H  H73  1  0.38049558  0.54984973  0.61938003  1
  H  H74  1  0.36783201  0.88810121  0.60488531  1
  H  H75  1  0.86674782  0.22238416  0.59031363  1
  H  H76  1  0.87651742  0.55440933  0.60699183  1
  H  H77  1  0.86582690  0.89155673  0.60217713  1
  H  H78  1  0.12519305  0.11356597  0.10533047  1
  H  H79  1  0.11620131  0.44996627  0.12954054  1
  H  H80  1  0.13516034  0.77645910  0.09789907  1
  H  H81  1  0.62549296  0.11473308  0.11324922  1
  H  H82  1  0.62139883  0.44530191  0.11350325  1
  H  H83  1  0.63026764  0.77976309  0.10897383  1
  H  H84  1  0.13010628  0.22593150  0.90343632  1
  H  H85  1  0.12447634  0.54940724  0.87373478  1
  H  H86  1  0.12625977  0.88749973  0.88794627  1
  H  H87  1  0.62794274  0.21654525  0.88293875  1
  H  H88  1  0.63029077  0.55775759  0.90458566  1
  H  H89  1  0.62737854  0.89091609  0.89588877  1
  H  H90  1  0.37962708  0.11511030  0.38393875  1
  H  H91  1  0.37339531  0.44233429  0.40331519  1
  H  H92  1  0.37916355  0.78121039  0.37988529  1
  H  H93  1  0.87635383  0.11553810  0.39574610  1
  H  H94  1  0.87522636  0.44878836  0.37629911  1
  H  H95  1  0.88033278  0.78220164  0.37932909  1
  H  H96  1  0.38069620  0.27665106  0.39886228  1
  H  H97  1  0.37465029  0.61050859  0.39584649  1
  H  H98  1  0.38662732  0.94460043  0.40068048  1
  H  H99  1  0.88338762  0.27333759  0.40895215  1
  H  H100  1  0.87249064  0.61596479  0.37710264  1
  H  H101  1  0.88514922  0.94573140  0.40276159  1
  H  H102  1  0.12452221  0.05543845  0.89224786  1
  H  H103  1  0.13103694  0.38343416  0.88572933  1
  H  H104  1  0.11526099  0.72552657  0.90278113  1
  H  H105  1  0.62459195  0.05402202  0.88787966  1
  H  H106  1  0.62964258  0.38321169  0.87983744  1
  H  H107  1  0.61474346  0.72386305  0.89938832  1
  H  H108  1  0.12354251  0.27726137  0.10640581  1
  H  H109  1  0.12399662  0.61312274  0.11580663  1
  H  H110  1  0.12235803  0.94712259  0.10650839  1
  H  H111  1  0.62207986  0.27693027  0.10552268  1
  H  H112  1  0.62315084  0.61379937  0.11841618  1
  H  H113  1  0.62365394  0.94816024  0.11468630  1
  H  H114  1  0.36998304  0.05160623  0.62229710  1
  H  H115  1  0.37111849  0.38676521  0.61911494  1
  H  H116  1  0.37059753  0.71483204  0.62416404  1
  H  H117  1  0.87237235  0.05606446  0.60793015  1
  H  H118  1  0.87493029  0.38491667  0.60331198  1
  H  H119  1  0.87135346  0.71842943  0.62225950  1
  H  H120  1  0.13266550  0.11038983  0.40532114  1
  H  H121  1  0.12702865  0.44612711  0.38184647  1
  H  H122  1  0.13043983  0.78020606  0.39113447  1
  H  H123  1  0.62741916  0.11293425  0.39409610  1
  H  H124  1  0.63074127  0.44110911  0.40553844  1
  H  H125  1  0.63231978  0.77605835  0.39826563  1
  H  H126  1  0.37711483  0.21534875  0.88285344  1
  H  H127  1  0.37187804  0.55429287  0.89719745  1
  H  H128  1  0.37461581  0.88974475  0.89071383  1
  H  H129  1  0.87598374  0.22478809  0.89919893  1
  H  H130  1  0.87486910  0.54892881  0.87396580  1
  H  H131  1  0.87556532  0.88651348  0.88319108  1
  H  H132  1  0.37463704  0.11377965  0.11370572  1
  H  H133  1  0.36132900  0.44126451  0.09469567  1
  H  H134  1  0.38216258  0.78332765  0.11748116  1
  H  H135  1  0.87480523  0.11385848  0.10591863  1
  H  H136  1  0.87051730  0.44348489  0.11039111  1
  H  H137  1  0.87893231  0.78102309  0.11997374  1
  H  H138  1  0.12082683  0.21738295  0.61656680  1
  H  H139  1  0.13231067  0.55392614  0.60326317  1
  H  H140  1  0.11970594  0.88685117  0.62301643  1
  H  H141  1  0.62211829  0.21405455  0.62379380  1
  H  H142  1  0.62825677  0.55320143  0.61207665  1
  H  H143  1  0.61833598  0.88444481  0.62417823  1
  H  H144  1  0.54601382  0.74981490  1.00557459  1
  H  H145  1  0.60005613  0.41403501  0.99183030  1
  H  H146  1  0.84568031  0.75271077  0.00758916  1
  H  H147  1  0.14769393  0.57683261  0.98790435  1
  H  H148  1  0.05219475  0.75126408  0.49799904  1
  H  H149  1  0.70828821  0.41571830  0.50479335  1
  H  H150  1  0.20470730  0.76245035  -0.00549061  1
  H  H151  1  0.80163831  0.92268123  0.49586008  1
  H  H152  1  0.85057325  0.74990116  0.49135829  1
  H  H153  1  0.63660643  0.24427485  0.50870632  1
  H  H154  1  0.30787181  0.91589771  0.49617139  1
  H  H155  1  0.08596292  0.41188378  0.50691865  1
  H  H156  1  0.92786320  0.41343273  0.49562537  1
  H  H157  1  0.58332661  0.59041656  0.00471856  1
  H  H158  1  0.69639234  0.75432929  0.50182784  1
  H  H159  1  0.81841010  0.41347873  0.00272187  1
  H  H160  1  0.89913044  0.58454492  0.48941435  1
  H  H161  1  0.05392495  0.58665406  0.50173587  1
  H  H162  1  0.10176676  0.41603154  0.99444821  1
  H  H163  1  0.07153595  0.91918406  -0.00288174  1
  H  H164  1  0.93088290  0.58174631  0.00063450  1
  H  H165  1  0.91373872  0.92090996  0.00602532  1
  H  H166  1  0.95584444  0.92152594  0.50501895  1
  H  H167  1  0.57195757  0.24389641  -0.00226403  1
  H  H168  1  0.55153078  0.41533114  0.49606453  1
  H  H169  1  0.44463009  0.41475837  1.00122909  1
  H  H170  1  0.70939272  0.58047999  1.00395915  1
  H  H171  1  0.68385744  0.75281516  -0.00120128  1
  H  H172  1  0.11401203  0.25142289  0.48927048  1
  H  H173  1  0.41307310  0.24805783  0.00572491  1
  H  H174  1  0.35122288  0.74899795  0.01162992  1
  H  H175  1  0.19246047  0.58058287  0.49338153  1
  H  H176  1  0.18454453  0.75276364  0.50125542  1
  H  H177  1  0.14627331  0.91430603  0.50918614  1
  H  H178  1  0.63931139  0.91750094  0.51032392  1
  H  H179  1  0.43135570  0.92207598  -0.00183764  1
  H  H180  1  0.30751124  0.57516184  1.00614137  1
  H  H181  1  0.28637566  0.41498680  -0.00994328  1
  H  H182  1  0.57535825  0.58107656  0.49476756  1
  H  H183  1  0.35133662  0.08702319  0.49233642  1
  H  H184  1  0.33269972  0.08311255  0.00433740  1
  H  H185  1  0.53858462  0.74832990  0.49620668  1
  H  H186  1  0.68698171  0.92034971  1.00163066  1
  H  H187  1  0.42347549  0.59202509  0.00007195  1
  H  H188  1  0.45681012  0.91701116  0.50750989  1
  H  H189  1  0.66766250  0.08533280  0.00379217  1
  H  H190  1  0.34624412  0.75219366  0.49199246  1
  H  H191  1  0.04015606  0.74807664  1.00319960  1
  Pb  Pb192  1  0.24447110  0.04826925  0.75077269  1
  Pb  Pb193  1  0.24840478  0.37869451  0.75289973  1
  Pb  Pb194  1  0.24187856  0.71441394  0.75279875  1
  Pb  Pb195  1  0.74341056  0.04944022  0.74744969  1
  Pb  Pb196  1  0.74962232  0.37750738  0.74606687  1
  Pb  Pb197  1  0.74078678  0.71557432  0.74698889  1
  Pb  Pb198  1  0.25244582  0.28713576  0.24938778  1
  Pb  Pb199  1  0.25488654  0.61720711  0.25196853  1
  Pb  Pb200  1  0.25352450  0.95442411  0.25073552  1
  Pb  Pb201  1  0.75623646  0.28376326  0.25219948  1
  Pb  Pb202  1  0.75145801  0.62070349  0.24352108  1
  Pb  Pb203  1  0.75595484  0.95495867  0.25057770  1
  Pb  Pb204  1  -0.00249586  0.21295588  0.74993228  1
  Pb  Pb205  1  -0.00300837  0.54526828  0.74081483  1
  Pb  Pb206  1  -0.00810311  0.88275952  0.74731535  1
  Pb  Pb207  1  0.49664815  0.21284267  0.75068655  1
  Pb  Pb208  1  0.49857285  0.54529316  0.75526718  1
  Pb  Pb209  1  0.49227964  0.88248046  0.75313898  1
  Pb  Pb210  1  0.00486685  0.12151335  0.25214434  1
  Pb  Pb211  1  -0.00005126  0.45279824  0.25169118  1
  Pb  Pb212  1  0.00612300  0.78591010  0.24650216  1
  Pb  Pb213  1  0.50268489  0.12040253  0.24898187  1
  Pb  Pb214  1  0.50478376  0.44878270  0.24954986  1
  Pb  Pb215  1  0.50410820  0.78808144  0.25424508  1
  C  C216  1  -0.00254726  0.04774911  0.63028364  1
  C  C217  1  -0.00204797  0.37781066  0.63110576  1
  C  C218  1  -0.00145763  0.71254944  0.63622356  1
  C  C219  1  0.49827179  0.04742938  0.62981489  1
  C  C220  1  0.49827081  0.37783393  0.63060020  1
  C  C221  1  0.49854522  0.71047251  0.63333038  1
  C  C222  1  -0.00019472  0.28672229  0.13116305  1
  C  C223  1  -0.00197744  0.62036723  0.13487797  1
  C  C224  1  -0.00149364  0.95471503  0.13180532  1
  C  C225  1  0.49805783  0.28614004  0.13001501  1
  C  C226  1  0.49760764  0.62013097  0.13683897  1
  C  C227  1  0.49772499  0.95556453  0.13407062  1
  C  C228  1  0.00007443  0.04757567  0.86679693  1
  C  C229  1  0.00471315  0.37778743  0.87118847  1
  C  C230  1  -0.00195992  0.71177048  0.86600355  1
  C  C231  1  0.50006531  0.04683626  0.86663666  1
  C  C232  1  0.50190212  0.37840545  0.86716905  1
  C  C233  1  0.49519541  0.71358826  0.86577316  1
  C  C234  1  0.00049445  0.28532605  0.37120936  1
  C  C235  1  0.00037757  0.62149684  0.36659773  1
  C  C236  1  0.00417626  0.95647058  0.36865494  1
  C  C237  1  0.50161369  0.28731033  0.36582484  1
  C  C238  1  0.49786874  0.61927072  0.36886185  1
  C  C239  1  0.50439703  0.95541458  0.36622490  1
  C  C240  1  0.24815435  0.21157704  0.63396234  1
  C  C241  1  0.25294850  0.54505592  0.63259851  1
  C  C242  1  0.24649241  0.87989764  0.63462463  1
  C  C243  1  0.74928791  0.21146216  0.62756739  1
  C  C244  1  0.75334700  0.54585030  0.63470476  1
  C  C245  1  0.74562214  0.87996222  0.63345533  1
  C  C246  1  0.24861262  0.12085718  0.13325613  1
  C  C247  1  0.24528290  0.45289587  0.13244572  1
  C  C248  1  0.25510776  0.78830883  0.13029539  1
  C  C249  1  0.75140051  0.12139537  0.13331899  1
  C  C250  1  0.74674110  0.45338331  0.13518624  1
  C  C251  1  0.75296211  0.78754918  0.13539450  1
  C  C252  1  0.24962794  0.21220944  0.87046582  1
  C  C253  1  0.25190543  0.54617278  0.86437991  1
  C  C254  1  0.25104199  0.88028043  0.86452109  1
  C  C255  1  0.75511258  0.21224405  0.86797073  1
  C  C256  1  0.74625885  0.54461425  0.86597228  1
  C  C257  1  0.74899533  0.88015620  0.86653755  1
  C  C258  1  0.25252083  0.12140680  0.37106550  1
  C  C259  1  0.25437801  0.45312068  0.36784757  1
  C  C260  1  0.25307415  0.78783192  0.36456533  1
  C  C261  1  0.75185059  0.12076054  0.37454874  1
  C  C262  1  0.74737476  0.45475654  0.36785808  1
  C  C263  1  0.75286957  0.78887616  0.36730958  1
  C  C264  1  0.06278693  0.92808525  0.45590285  1
  C  C265  1  0.97590933  0.40978248  0.96610585  1
  C  C266  1  0.54238332  0.59861029  0.04304330  1
  C  C267  1  0.80659190  0.75976378  0.45537345  1
  C  C268  1  0.22600737  0.57061806  0.53545117  1
  C  C269  1  0.55573971  0.40493317  0.95603005  1
  C  C270  1  0.68628007  0.23652695  0.54090727  1
  C  C271  1  0.06412522  0.26039206  0.45768208  1
  C  C272  1  0.03467278  0.92819269  0.03757910  1
  C  C273  1  0.70983073  0.09508270  0.04167334  1
  C  C274  1  0.46049458  0.59862045  0.04100371  1
  C  C275  1  0.19467384  0.56812464  0.95401093  1
  C  C276  1  0.03274347  0.07743027  0.53799148  1
  C  C277  1  0.46714915  0.93090653  0.03931203  1
  C  C278  1  0.29055639  0.09374269  0.04199652  1
  C  C279  1  0.51568641  0.73845851  0.96232114  1
  C  C280  1  0.02105395  0.73977061  0.54078711  1
  C  C281  1  0.30699158  0.56915899  0.54294782  1
  C  C282  1  0.96733285  0.59273862  0.04094275  1
  C  C283  1  0.77969455  0.24301718  0.96204736  1
  C  C284  1  0.71133718  0.09516129  0.46635553  1
  C  C285  1  0.98382065  0.25727724  0.46826257  1
  C  C286  1  0.22048786  0.76228551  0.46039278  1
  C  C287  1  0.44042132  0.07379219  0.54308214  1
  C  C288  1  0.94435681  0.59402033  0.45431463  1
  C  C289  1  0.44299211  0.40951810  0.54302181  1
  C  C290  1  0.53436153  0.25651728  0.03688081  1
  C  C291  1  0.45892909  0.07265915  0.95965272  1
  C  C292  1  0.22829857  0.24352213  0.96514031  1
  C  C293  1  0.48667005  0.92839383  0.46423890  1
  C  C294  1  0.72198536  0.90844081  0.96093271  1
  C  C295  1  0.78054611  0.42547398  0.04199076  1
  C  C296  1  0.56683664  0.93193901  0.45318715  1
  C  C297  1  0.76670903  0.23945268  0.53065801  1
  C  C298  1  0.54104666  0.07265993  0.95970657  1
  C  C299  1  0.30237570  0.76269989  0.45613777  1
  C  C300  1  0.96429929  0.40414999  0.53625430  1
  C  C301  1  0.79155808  0.09606418  0.46683065  1
  C  C302  1  0.19263573  0.90477120  0.54441876  1
  C  C303  1  0.68819592  0.90731489  0.54531498  1
  C  C304  1  0.76970703  0.90950731  0.53767966  1
  C  C305  1  0.80197037  0.76253793  0.04370615  1
  C  C306  1  0.72000060  0.76229709  0.03956483  1
  C  C307  1  0.17822018  0.43008520  0.04732716  1
  C  C308  1  0.03393048  0.25665188  0.03875410  1
  C  C309  1  0.27426810  0.90548529  0.53805165  1
  C  C310  1  0.25794565  0.42680286  0.03388357  1
  C  C311  1  0.27591961  0.56842831  0.96260004  1
  N  N312  1  0.04658048  0.59341799  0.04323875  1
  N  N313  1  0.70238082  0.24053412  0.95817184  1
  N  N314  1  0.51347451  0.74008894  0.53921086  1
  N  N315  1  0.47542816  0.25884039  0.46117338  1
  N  N316  1  0.55101282  0.25988104  0.45537514  1
  N  N317  1  0.81011209  0.57081254  0.95104356  1
  N  N318  1  0.43709784  0.73558551  0.95527732  1
  N  N319  1  0.52150542  0.40882330  0.53705334  1
  N  N320  1  0.80123823  0.90688904  0.95730667  1
  N  N321  1  0.01440896  0.74131006  0.96006970  1
  N  N322  1  0.73286771  0.42412106  0.46162261  1
  N  N323  1  0.72725613  0.75756671  0.46065278  1
  N  N324  1  0.80994305  0.42735630  0.45324446  1
  N  N325  1  0.95502702  0.92648130  0.04120479  1
  N  N326  1  0.93714291  0.73782952  0.95247169  1
  N  N327  1  0.73295392  0.57443436  0.96016658  1
  N  N328  1  0.43643210  0.73579038  0.54718839  1
  N  N329  1  0.98451519  0.92701301  0.46328268  1
  N  N330  1  0.53772268  0.59326367  0.45952243  1
  N  N331  1  0.30853095  0.76686638  0.04181302  1
  N  N332  1  0.21136477  0.09352270  0.03854433  1
  N  N333  1  0.22679670  0.09260612  0.46662778  1
  N  N334  1  0.27452004  0.24082891  0.53892189  1
  N  N335  1  0.96167412  0.07534517  0.96004727  1
  N  N336  1  0.71156968  0.57246207  0.54175246  1
  N  N337  1  0.78902795  0.09397484  0.03870532  1
  N  N338  1  0.47650382  0.40777916  0.96111871  1
  N  N339  1  0.30540338  0.23989227  0.95964282  1
  N  N340  1  0.95554060  0.07659904  0.53712314  1
  N  N341  1  0.03789979  0.07465794  0.96040726  1
  N  N342  1  0.27720548  0.42644997  0.46464745  1
  N  N343  1  0.54651855  0.93037554  0.04192942  1
  N  N344  1  0.95665608  0.25808150  0.03824636  1
  N  N345  1  0.04373629  0.40597047  0.54131991  1
  N  N346  1  0.19885146  0.23818213  0.54407376  1
  N  N347  1  0.94229505  0.73788846  0.54676550  1
  N  N348  1  0.78842424  0.57253060  0.54017617  1
  N  N349  1  0.28724606  0.90584736  0.95907547  1
  N  N350  1  0.05436261  0.40715038  0.95970471  1
  N  N351  1  0.51680084  0.07663953  0.53216721  1
  N  N352  1  0.45968580  0.59209926  0.46271167  1
  N  N353  1  0.30436974  0.09480894  0.45830040  1
  N  N354  1  0.21034689  0.90453081  0.95835373  1
  N  N355  1  0.70129219  0.42673998  0.04234285  1
  N  N356  1  0.23046902  0.75637267  0.03745750  1
  N  N357  1  0.02360856  0.59101676  0.46049464  1
  N  N358  1  0.20139190  0.42785011  0.45783275  1
  N  N359  1  0.45473418  0.25823815  0.03950728  1
  N  N360  1  0.06140678  0.05984946  0.59389741  1
  N  N361  1  0.06419373  0.38886425  0.59943738  1
  N  N362  1  0.05711766  0.72431611  0.59527497  1
  N  N363  1  0.55303867  0.05968204  0.58747485  1
  N  N364  1  0.55669744  0.38745253  0.59032280  1
  N  N365  1  0.55292090  0.72216002  0.59047418  1
  N  N366  1  0.43255562  0.27660606  0.09681349  1
  N  N367  1  0.43387386  0.61157676  0.09972933  1
  N  N368  1  0.43580607  0.94556862  0.09560812  1
  N  N369  1  0.93511858  0.27698809  0.09714768  1
  N  N370  1  0.93620123  0.60900706  0.09686427  1
  N  N371  1  0.93309980  0.94399513  0.09899179  1
  N  N372  1  0.43508615  0.05705740  0.90242254  1
  N  N373  1  0.44326295  0.38979949  0.90678951  1
  N  N374  1  0.42593205  0.72071094  0.89474814  1
  N  N375  1  0.93658606  0.05878874  0.90200464  1
  N  N376  1  0.94478980  0.39162036  0.91131300  1
  N  N377  1  0.92751942  0.72136789  0.89326961  1
  N  N378  1  0.07289454  0.27794238  0.39644547  1
  N  N379  1  0.05814676  0.61088850  0.40724173  1
  N  N380  1  0.07536709  0.94487002  0.39684606  1
  N  N381  1  0.56912607  0.27707497  0.39648966  1
  N  N382  1  0.56264467  0.60824138  0.40237489  1
  N  N383  1  0.57729741  0.94799493  0.39382983  1
  N  N384  1  0.30675204  0.22416154  0.59445251  1
  N  N385  1  0.32273971  0.55407356  0.60153787  1
  N  N386  1  0.30651840  0.89006679  0.59453595  1
  N  N387  1  0.80472465  0.22432392  0.58296372  1
  N  N388  1  0.81540453  0.55597789  0.59758382  1
  N  N389  1  0.80419674  0.89226767  0.59276355  1
  N  N390  1  0.18688189  0.11054885  0.09583320  1
  N  N391  1  0.17116473  0.44563250  0.10734949  1
  N  N392  1  0.19711648  0.77924732  0.08931558  1
  N  N393  1  0.68524521  0.11130193  0.09957593  1
  N  N394  1  0.68170095  0.44399158  0.10114743  1
  N  N395  1  0.69093244  0.77765825  0.09709925  1
  N  N396  1  0.19184448  0.22681426  0.91171924  1
  N  N397  1  0.18132940  0.55448226  0.89297081  1
  N  N398  1  0.18698001  0.88907320  0.89972888  1
  N  N399  1  0.68708527  0.22099436  0.89805642  1
  N  N400  1  0.69244570  0.55579282  0.90954093  1
  N  N401  1  0.68862767  0.89226969  0.90570641  1
  N  N402  1  0.32103152  0.11224255  0.40040253  1
  N  N403  1  0.31151763  0.44250659  0.40933419  1
  N  N404  1  0.32108839  0.77856165  0.39648320  1
  N  N405  1  0.81724667  0.11147410  0.41076670  1
  N  N406  1  0.81825956  0.44466966  0.39429583  1
  N  N407  1  0.82255484  0.77765356  0.39700307  1
  N  N408  1  0.44304098  0.27634203  0.40600462  1
  N  N409  1  0.43540380  0.60863550  0.40592850  1
  N  N410  1  0.44857743  0.94322699  0.40857756  1
  N  N411  1  0.94543736  0.27236281  0.41619580  1
  N  N412  1  0.92982303  0.61152390  0.39560953  1
  N  N413  1  0.94747479  0.94728376  0.41027438  1
  N  N414  1  0.06329831  0.05725089  0.90276658  1
  N  N415  1  0.07246149  0.38755917  0.90125148  1
  N  N416  1  0.05298313  0.72294227  0.90864084  1
  N  N417  1  0.56498101  0.05695373  0.90253180  1
  N  N418  1  0.57184619  0.38779287  0.89738702  1
  N  N419  1  0.55281571  0.72481228  0.90778073  1
  N  N420  1  0.06329556  0.27426710  0.09448646  1
  N  N421  1  0.06396459  0.61029298  0.10223356  1
  N  N422  1  0.06184538  0.94433881  0.09416130  1
  N  N423  1  0.56154606  0.27399073  0.09312453  1
  N  N424  1  0.56414523  0.61186747  0.10298639  1
  N  N425  1  0.56353679  0.94593117  0.10108628  1
  N  N426  1  0.42650916  0.05623779  0.60268621  1
  N  N427  1  0.42844525  0.39110633  0.60100443  1
  N  N428  1  0.42764628  0.71912394  0.60620342  1
  N  N429  1  0.93310733  0.05808935  0.59603093  1
  N  N430  1  0.93560426  0.38769854  0.59234563  1
  N  N431  1  0.92994326  0.72125866  0.60663403  1
  N  N432  1  0.19490770  0.10893455  0.41202150  1
  N  N433  1  0.18604230  0.44406078  0.39759624  1
  N  N434  1  0.19118421  0.77764598  0.40284913  1
  N  N435  1  0.68642676  0.10986272  0.40994444  1
  N  N436  1  0.69312655  0.44316273  0.41087708  1
  N  N437  1  0.69427914  0.77864076  0.40728554  1
  N  N438  1  0.31868174  0.22014304  0.89929839  1
  N  N439  1  0.31050235  0.55494865  0.90620070  1
  N  N440  1  0.31343669  0.89091861  0.90105959  1
  N  N441  1  0.81460102  0.22605287  0.90816859  1
  N  N442  1  0.81753769  0.55438778  0.89196123  1
  N  N443  1  0.81617355  0.88930375  0.89793900  1
  N  N444  1  0.31489162  0.11010888  0.09989332  1
  N  N445  1  0.29908310  0.44156674  0.08822988  1
  N  N446  1  0.32382090  0.77709062  0.10175522  1
  N  N447  1  0.81336407  0.11055478  0.09627584  1
  N  N448  1  0.80970826  0.44177860  0.09841813  1
  N  N449  1  0.82088641  0.77802912  0.10342311  1
  N  N450  1  0.18064954  0.22022635  0.60270529  1
  N  N451  1  0.19320700  0.55555069  0.59272712  1
  N  N452  1  0.17703384  0.88902836  0.60475148  1
  N  N453  1  0.67706739  0.21948777  0.60215019  1
  N  N454  1  0.68893107  0.55654798  0.60040176  1
  N  N455  1  0.67510921  0.88919667  0.60510924  1
  Cl  Cl456  1  0.24563838  0.05443907  0.61935012  1
  Cl  Cl457  1  0.24623968  0.38636945  0.62347757  1
  Cl  Cl458  1  0.24160244  0.71957573  0.62018936  1
  Cl  Cl459  1  0.74409527  0.05715579  0.61477300  1
  Cl  Cl460  1  0.74220927  0.39124298  0.60441396  1
  Cl  Cl461  1  0.73659739  0.72803521  0.60491708  1
  Cl  Cl462  1  0.24916631  0.28040410  0.11666301  1
  Cl  Cl463  1  0.24961165  0.61471489  0.11809986  1
  Cl  Cl464  1  0.24924877  0.94571591  0.12031601  1
  Cl  Cl465  1  0.74815607  0.28082508  0.12017674  1
  Cl  Cl466  1  0.74818210  0.60697673  0.10647098  1
  Cl  Cl467  1  0.74857260  0.94511649  0.11716714  1
  Cl  Cl468  1  0.24857189  0.05523296  0.88319083  1
  Cl  Cl469  1  0.25860524  0.38572401  0.88870405  1
  Cl  Cl470  1  0.23670292  0.73021689  0.89373545  1
  Cl  Cl471  1  0.75095383  0.05533695  0.88095112  1
  Cl  Cl472  1  0.75922077  0.38552091  0.87896080  1
  Cl  Cl473  1  0.73832608  0.72039304  0.88083212  1
  Cl  Cl474  1  0.26046153  0.27785845  0.37978031  1
  Cl  Cl475  1  0.24454654  0.60978139  0.38686259  1
  Cl  Cl476  1  0.26145891  0.94573189  0.38599938  1
  Cl  Cl477  1  0.75905798  0.27811648  0.38772791  1
  Cl  Cl478  1  0.74461215  0.61742516  0.37523393  1
  Cl  Cl479  1  0.76528856  0.94560365  0.38446524  1
  Cl  Cl480  1  -0.00927366  0.22143319  0.61464684  1
  Cl  Cl481  1  0.00449766  0.55745255  0.60240513  1
  Cl  Cl482  1  -0.01143254  0.89355104  0.61061151  1
  Cl  Cl483  1  0.48920148  0.22037593  0.62162707  1
  Cl  Cl484  1  0.50707758  0.54993265  0.61960767  1
  Cl  Cl485  1  0.48965639  0.88510590  0.61899023  1
  Cl  Cl486  1  0.00150110  0.11698624  0.11994007  1
  Cl  Cl487  1  -0.00921316  0.44406371  0.12046203  1
  Cl  Cl488  1  0.01475410  0.77401681  0.10419245  1
  Cl  Cl489  1  0.49992115  0.11572050  0.11740447  1
  Cl  Cl490  1  0.48838861  0.43858231  0.10675155  1
  Cl  Cl491  1  0.50663007  0.78026028  0.11927215  1
  Cl  Cl492  1  0.00393823  0.22567634  0.88249306  1
  Cl  Cl493  1  -0.00190679  0.54752262  0.87291321  1
  Cl  Cl494  1  0.00202670  0.88813639  0.88487902  1
  Cl  Cl495  1  0.50178087  0.21943246  0.88657359  1
  Cl  Cl496  1  0.50318443  0.55645261  0.89103420  1
  Cl  Cl497  1  0.49932164  0.88909219  0.88692195  1
  Cl  Cl498  1  0.00890085  0.11335762  0.38541388  1
  Cl  Cl499  1  0.00311112  0.44461771  0.38743916  1
  Cl  Cl500  1  0.00713402  0.78215804  0.38066939  1
  Cl  Cl501  1  0.50110059  0.11269076  0.37890316  1
  Cl  Cl502  1  0.50767489  0.43999468  0.39518416  1
  Cl  Cl503  1  0.51155824  0.77143464  0.39417953  1
  Cl  Cl504  1  0.35977347  0.14630859  0.75472891  1
  Cl  Cl505  1  0.35941541  0.48017209  0.74761878  1
  Cl  Cl506  1  0.36148397  0.80957191  0.75236336  1
  Cl  Cl507  1  0.85796559  0.14818311  0.74775021  1
  Cl  Cl508  1  0.85948015  0.47973836  0.74982798  1
  Cl  Cl509  1  0.86147447  0.81046424  0.75342897  1
  Cl  Cl510  1  0.14493810  0.18522776  0.25256449  1
  Cl  Cl511  1  0.13300439  0.52297104  0.24543631  1
  Cl  Cl512  1  0.14359206  0.85218817  0.24927364  1
  Cl  Cl513  1  0.63747454  0.18834507  0.25321644  1
  Cl  Cl514  1  0.63938366  0.51965662  0.24532337  1
  Cl  Cl515  1  0.64297007  0.85401447  0.25309101  1
  Cl  Cl516  1  0.13863788  0.14708445  0.74836570  1
  Cl  Cl517  1  0.13655692  0.47973619  0.75190991  1
  Cl  Cl518  1  0.13935415  0.81148259  0.74694655  1
  Cl  Cl519  1  0.63610859  0.14661961  0.75022120  1
  Cl  Cl520  1  0.63876150  0.47915622  0.75098421  1
  Cl  Cl521  1  0.64119926  0.81336403  0.74669533  1
  Cl  Cl522  1  0.36612495  0.18739034  0.24820156  1
  Cl  Cl523  1  0.35700190  0.51987813  0.24763524  1
  Cl  Cl524  1  0.36424535  0.85187966  0.24909960  1
  Cl  Cl525  1  0.85703892  0.18571655  0.24917769  1
  Cl  Cl526  1  0.86334194  0.52092522  0.25784869  1
  Cl  Cl527  1  0.86377128  0.85214030  0.24539654  1
  Cl  Cl528  1  0.11102270  0.31333703  0.74876834  1
  Cl  Cl529  1  0.10739410  0.64598137  0.75203630  1
  Cl  Cl530  1  0.11194303  0.97795372  0.74767015  1
  Cl  Cl531  1  0.61002466  0.31291763  0.75214474  1
  Cl  Cl532  1  0.60646695  0.64793678  0.74962946  1
  Cl  Cl533  1  0.61100529  0.97883634  0.74862231  1
  Cl  Cl534  1  0.39263536  0.01950032  0.25082833  1
  Cl  Cl535  1  0.39412865  0.35374181  0.25006032  1
  Cl  Cl536  1  0.39170894  0.68687164  0.25340600  1
  Cl  Cl537  1  0.89442675  0.01937294  0.24537131  1
  Cl  Cl538  1  0.89111608  0.35211392  0.25415215  1
  Cl  Cl539  1  0.88884578  0.68833967  0.25182685  1
  Cl  Cl540  1  0.39011207  0.31572031  0.75185533  1
  Cl  Cl541  1  0.38428134  0.64461066  0.75102175  1
  Cl  Cl542  1  0.38771411  0.97806961  0.74774200  1
  Cl  Cl543  1  0.89193383  0.31717783  0.74947024  1
  Cl  Cl544  1  0.88572038  0.64512352  0.74921384  1
  Cl  Cl545  1  0.88903923  0.97675754  0.75135641  1
  Cl  Cl546  1  0.11303617  0.01862623  0.25201460  1
  Cl  Cl547  1  0.11435857  0.35442996  0.25431657  1
  Cl  Cl548  1  0.10727321  0.68729710  0.24929462  1
  Cl  Cl549  1  0.61501777  0.01952375  0.25033385  1
  Cl  Cl550  1  0.61039595  0.35768007  0.24950512  1
  Cl  Cl551  1  0.61235183  0.68567714  0.24757454  1
