# generated using pymatgen
data_H8PbC4(N3Cl2)2
_symmetry_space_group_name_H-M   'P 1'
_cell_length_a   16.61988460
_cell_length_b   22.50293919
_cell_length_c   21.58916017
_cell_angle_alpha   89.99923653
_cell_angle_beta   90.00143343
_cell_angle_gamma   89.99940577
_symmetry_Int_Tables_number   1
_chemical_formula_structural   H8PbC4(N3Cl2)2
_chemical_formula_sum   'H192 Pb24 C96 N144 Cl96'
_cell_volume   8074.26499431
_cell_formula_units_Z   24
loop_
 _symmetry_equiv_pos_site_id
 _symmetry_equiv_pos_as_xyz
  1  'x, y, z'
loop_
 _atom_site_type_symbol
 _atom_site_label
 _atom_site_symmetry_multiplicity
 _atom_site_fract_x
 _atom_site_fract_y
 _atom_site_fract_z
 _atom_site_occupancy
  H  H0  1  -0.00606986  0.03276903  0.68145381  1
  H  H1  1  -0.00297069  0.36399548  0.68093619  1
  H  H2  1  0.00856694  0.69865479  0.67780581  1
  H  H3  1  0.49790165  0.03299647  0.67982906  1
  H  H4  1  0.49630192  0.36345006  0.67986112  1
  H  H5  1  0.49301458  0.69802664  0.67813481  1
  H  H6  1  -0.00556573  0.30149573  0.18052818  1
  H  H7  1  0.00006882  0.63410700  0.18178906  1
  H  H8  1  -0.00439779  0.96754251  0.17890561  1
  H  H9  1  0.49882362  0.30153326  0.18015170  1
  H  H10  1  0.49397268  0.63550337  0.18016641  1
  H  H11  1  0.50067214  0.96859791  0.17802490  1
  H  H12  1  -0.00814981  0.03136777  0.81870676  1
  H  H13  1  0.00575328  0.36416274  0.81666497  1
  H  H14  1  -0.00011815  0.69892378  0.81896452  1
  H  H15  1  0.50842504  0.03215815  0.82013056  1
  H  H16  1  0.49918052  0.36435862  0.81878959  1
  H  H17  1  0.50227474  0.69908692  0.81999530  1
  H  H18  1  -0.00152344  0.30217249  0.32048996  1
  H  H19  1  -0.00600976  0.63312579  0.32049641  1
  H  H20  1  -0.01047946  0.96822906  0.31984773  1
  H  H21  1  0.50600598  0.30155781  0.32335829  1
  H  H22  1  0.50685440  0.63596834  0.32035838  1
  H  H23  1  0.50933136  0.96760085  0.31824414  1
  H  H24  1  0.24572449  0.19949283  0.67762198  1
  H  H25  1  0.25221437  0.53154702  0.67931334  1
  H  H26  1  0.25093871  0.86686003  0.67980477  1
  H  H27  1  0.74363729  0.19821896  0.67783738  1
  H  H28  1  0.75810904  0.53055706  0.67939574  1
  H  H29  1  0.74842712  0.86634184  0.68391302  1
  H  H30  1  0.24970569  0.13341158  0.17643779  1
  H  H31  1  0.25295216  0.46811066  0.18111224  1
  H  H32  1  0.24416740  0.80237786  0.18177510  1
  H  H33  1  0.75169174  0.13522761  0.18167762  1
  H  H34  1  0.75061673  0.46864371  0.18154219  1
  H  H35  1  0.74446879  0.80243984  0.17996124  1
  H  H36  1  0.23910857  0.19884878  0.82255590  1
  H  H37  1  0.24152510  0.53192205  0.82014680  1
  H  H38  1  0.24975003  0.86344058  0.82269658  1
  H  H39  1  0.75452265  0.19890217  0.81672377  1
  H  H40  1  0.75138327  0.53184425  0.81833058  1
  H  H41  1  0.75468150  0.86326920  0.82182128  1
  H  H42  1  0.24970246  0.13543956  0.31865945  1
  H  H43  1  0.24813659  0.46926841  0.31977420  1
  H  H44  1  0.24745809  0.80218048  0.31860694  1
  H  H45  1  0.75565832  0.13663122  0.32056514  1
  H  H46  1  0.75064647  0.46750223  0.32033097  1
  H  H47  1  0.74848128  0.79900405  0.32251020  1
  H  H48  1  0.13189976  0.04968004  0.62412235  1
  H  H49  1  0.12578850  0.38521932  0.61400532  1
  H  H50  1  0.11378685  0.72803046  0.59410774  1
  H  H51  1  0.62949124  0.05366808  0.61768402  1
  H  H52  1  0.62259811  0.38610409  0.61053113  1
  H  H53  1  0.62322682  0.71932038  0.61257588  1
  H  H54  1  0.37337776  0.27821797  0.10926295  1
  H  H55  1  0.37093183  0.61082842  0.10706998  1
  H  H56  1  0.37800266  0.94649684  0.10507658  1
  H  H57  1  0.87966847  0.27689100  0.10081307  1
  H  H58  1  0.86904595  0.61532519  0.11703478  1
  H  H59  1  0.88095994  0.94203706  0.10002777  1
  H  H60  1  0.37221285  0.05071156  0.88085395  1
  H  H61  1  0.37733552  0.38735821  0.89371849  1
  H  H62  1  0.37612491  0.71980532  0.88653646  1
  H  H63  1  0.87801425  0.05458860  0.89828927  1
  H  H64  1  0.87656109  0.38686410  0.88409583  1
  H  H65  1  0.87457884  0.72026951  0.88972093  1
  H  H66  1  0.12096793  0.27923838  0.39222770  1
  H  H67  1  0.13397351  0.61496756  0.37366252  1
  H  H68  1  0.12791966  0.94991868  0.37496490  1
  H  H69  1  0.61677833  0.27511676  0.40318037  1
  H  H70  1  0.63104178  0.61230110  0.39289899  1
  H  H71  1  0.61872007  0.94412012  0.39966875  1
  H  H72  1  0.38113067  0.21641733  0.61950956  1
  H  H73  1  0.36750226  0.55623132  0.60147406  1
  H  H74  1  0.37465665  0.88750406  0.60957698  1
  H  H75  1  0.87923590  0.21902631  0.61789366  1
  H  H76  1  0.86678464  0.55783318  0.59664458  1
  H  H77  1  0.87397792  0.88579902  0.61498735  1
  H  H78  1  0.12577851  0.11350960  0.10718967  1
  H  H79  1  0.12683876  0.44694248  0.11120226  1
  H  H80  1  0.12550295  0.77795900  0.10461892  1
  H  H81  1  0.62703094  0.10980880  0.11082907  1
  H  H82  1  0.62343200  0.44675711  0.11251366  1
  H  H83  1  0.62669305  0.77736994  0.10441237  1
  H  H84  1  0.12819500  0.22353361  0.90395167  1
  H  H85  1  0.13258975  0.55801992  0.90348064  1
  H  H86  1  0.12280464  0.88733949  0.89046164  1
  H  H87  1  0.62294427  0.21900086  0.87918222  1
  H  H88  1  0.62713018  0.55630566  0.88875770  1
  H  H89  1  0.62301288  0.88537264  0.88735191  1
  H  H90  1  0.37232213  0.11481955  0.38987907  1
  H  H91  1  0.37427910  0.44543051  0.38989185  1
  H  H92  1  0.38051615  0.78186463  0.38001766  1
  H  H93  1  0.86728385  0.10932590  0.40127130  1
  H  H94  1  0.87313750  0.44568975  0.39360764  1
  H  H95  1  0.88031743  0.78039287  0.38445369  1
  H  H96  1  0.36985275  0.28235053  0.38250939  1
  H  H97  1  0.38253330  0.61135065  0.39081802  1
  H  H98  1  0.37209378  0.95013633  0.37344289  1
  H  H99  1  0.87093100  0.27946299  0.38919043  1
  H  H100  1  0.88756386  0.61020597  0.40354937  1
  H  H101  1  0.88149571  0.94057425  0.40290758  1
  H  H102  1  0.12621928  0.05206071  0.88164036  1
  H  H103  1  0.12541746  0.38692436  0.89164068  1
  H  H104  1  0.12423212  0.72097547  0.89123928  1
  H  H105  1  0.61921600  0.05814613  0.90280723  1
  H  H106  1  0.62585850  0.38783164  0.88880250  1
  H  H107  1  0.62550506  0.72095378  0.89169065  1
  H  H108  1  0.12744517  0.28026911  0.11669597  1
  H  H109  1  0.11811368  0.61269574  0.10763260  1
  H  H110  1  0.12857522  0.94889571  0.11640389  1
  H  H111  1  0.62147410  0.27903807  0.10752424  1
  H  H112  1  0.61947191  0.61458126  0.10947313  1
  H  H113  1  0.62726950  0.94380557  0.11130563  1
  H  H114  1  0.38115908  0.05422640  0.60455820  1
  H  H115  1  0.37392741  0.38753386  0.60632724  1
  H  H116  1  0.37448670  0.72362620  0.60371417  1
  H  H117  1  0.88418629  0.05772609  0.60159858  1
  H  H118  1  0.87667261  0.38869449  0.60595700  1
  H  H119  1  0.86909211  0.71391471  0.62200651  1
  H  H120  1  0.12311751  0.11483235  0.38619473  1
  H  H121  1  0.12526533  0.44482687  0.39050082  1
  H  H122  1  0.13162459  0.77861388  0.39497164  1
  H  H123  1  0.61950322  0.11728939  0.37850992  1
  H  H124  1  0.62441019  0.44430919  0.39097825  1
  H  H125  1  0.63227822  0.77684314  0.39813400  1
  H  H126  1  0.37515964  0.21718092  0.88191092  1
  H  H127  1  0.37815576  0.55188670  0.87809622  1
  H  H128  1  0.37182341  0.88786727  0.89403725  1
  H  H129  1  0.87221030  0.22140861  0.89206492  1
  H  H130  1  0.87647409  0.55446994  0.89065469  1
  H  H131  1  0.87102084  0.88959089  0.89882048  1
  H  H132  1  0.37455441  0.11245511  0.10824571  1
  H  H133  1  0.37560518  0.44493444  0.10733571  1
  H  H134  1  0.37411275  0.78103101  0.11371837  1
  H  H135  1  0.87691632  0.11235601  0.11279474  1
  H  H136  1  0.87325689  0.44721667  0.10956844  1
  H  H137  1  0.87543473  0.78067414  0.11484916  1
  H  H138  1  0.13427436  0.22359706  0.59956680  1
  H  H139  1  0.11895345  0.55328359  0.61698384  1
  H  H140  1  0.12533773  0.88796333  0.61109510  1
  H  H141  1  0.63159526  0.22424553  0.59807367  1
  H  H142  1  0.62137331  0.55145600  0.62157849  1
  H  H143  1  0.62401411  0.88576134  0.61376009  1
  H  H144  1  0.07304293  0.24947739  0.50128231  1
  H  H145  1  0.15953953  0.08482804  0.49751229  1
  H  H146  1  0.16559223  0.91760298  0.99587746  1
  H  H147  1  0.91399996  0.25304379  0.49508902  1
  H  H148  1  0.81681465  0.24796513  1.00180213  1
  H  H149  1  0.82533620  0.42015626  -0.00045793  1
  H  H150  1  0.08440948  0.41468611  0.50394992  1
  H  H151  1  0.88516237  0.74760202  0.51370786  1
  H  H152  1  0.14657112  0.58121995  0.50796713  1
  H  H153  1  0.38907026  0.92253324  0.48801586  1
  H  H154  1  0.79932287  0.08955909  0.50424113  1
  H  H155  1  0.67805838  0.09095282  0.00329244  1
  H  H156  1  0.83024928  0.08614129  0.00040339  1
  H  H157  1  0.42085393  0.25028407  0.00510594  1
  H  H158  1  0.67464106  0.41473071  0.49493096  1
  H  H159  1  0.42309102  0.58525272  0.00325919  1
  H  H160  1  0.95049058  0.08366194  0.49359993  1
  H  H161  1  0.66077417  0.91194336  0.99302301  1
  H  H162  1  0.35134776  0.75555384  0.49351841  1
  H  H163  1  0.18949818  0.75517914  0.50514324  1
  H  H164  1  0.54592326  0.08201662  1.00433122  1
  H  H165  1  0.11080928  0.92020215  0.48835126  1
  H  H166  1  0.31972016  0.41558947  0.00397603  1
  H  H167  1  0.42848041  0.41532632  0.50289909  1
  H  H168  1  0.55173509  0.92232994  0.50776820  1
  H  H169  1  0.07020441  0.41481155  0.99913068  1
  H  H170  1  0.82993635  0.90621974  0.50094347  1
  H  H171  1  0.42875383  0.91716209  0.00159696  1
  H  H172  1  0.30741699  0.58369029  0.49397476  1
  H  H173  1  0.94473973  0.07732645  1.00640097  1
  H  H174  1  0.41724573  0.74957468  0.99931379  1
  H  H175  1  0.95360174  0.92217630  0.50512674  1
  H  H176  1  0.92265229  0.74848994  0.99879264  1
  H  H177  1  0.67025323  0.90800310  0.50035885  1
  H  H178  1  0.79371977  0.58232015  0.49576316  1
  H  H179  1  0.06360530  0.58725425  -0.00398858  1
  H  H180  1  0.64082156  0.08566281  0.49091259  1
  H  H181  1  0.66726202  0.41829598  0.00735738  1
  H  H182  1  0.95747830  0.58348543  0.50958558  1
  H  H183  1  0.58375436  0.75011568  0.50705402  1
  H  H184  1  0.94698168  0.25325704  -0.00219944  1
  H  H185  1  0.58001082  0.58455019  0.49637086  1
  H  H186  1  0.32651594  0.08460543  0.49946469  1
  H  H187  1  0.03701702  0.74032669  0.49311472  1
  H  H188  1  0.67647258  0.58638311  0.99723830  1
  H  H189  1  0.20618857  0.58168548  1.00395667  1
  H  H190  1  0.65478632  0.24776373  0.99153104  1
  H  H191  1  0.39356001  0.25017483  0.49121581  1
  Pb  Pb192  1  0.25194176  0.04515797  0.74771849  1
  Pb  Pb193  1  0.25458692  0.38134201  0.75372780  1
  Pb  Pb194  1  0.24824424  0.71312857  0.74462109  1
  Pb  Pb195  1  0.75316014  0.04910803  0.75138642  1
  Pb  Pb196  1  0.74754323  0.38018458  0.74964875  1
  Pb  Pb197  1  0.75044597  0.71270232  0.75173192  1
  Pb  Pb198  1  0.24852139  0.28770552  0.25022709  1
  Pb  Pb199  1  0.25262395  0.61964147  0.24641840  1
  Pb  Pb200  1  0.24893078  0.95419017  0.24261831  1
  Pb  Pb201  1  0.74815947  0.28688775  0.24821073  1
  Pb  Pb202  1  0.74544293  0.61891572  0.25518425  1
  Pb  Pb203  1  0.75194595  0.95232912  0.25214083  1
  Pb  Pb204  1  0.00529167  0.21563885  0.75174906  1
  Pb  Pb205  1  -0.00046037  0.54572965  0.75192202  1
  Pb  Pb206  1  0.00039556  0.87989693  0.74829311  1
  Pb  Pb207  1  0.50041344  0.21156187  0.74717715  1
  Pb  Pb208  1  0.49989442  0.54884576  0.74888010  1
  Pb  Pb209  1  0.50023978  0.87912603  0.75313459  1
  Pb  Pb210  1  -0.00078526  0.12082402  0.25136564  1
  Pb  Pb211  1  -0.00119682  0.45393933  0.25076581  1
  Pb  Pb212  1  -0.00050574  0.78427476  0.25213963  1
  Pb  Pb213  1  0.49829860  0.11964424  0.24401483  1
  Pb  Pb214  1  0.49650218  0.45176010  0.25308088  1
  Pb  Pb215  1  0.50089255  0.78802258  0.25072580  1
  C  C216  1  0.00319690  0.04649167  0.63389833  1
  C  C217  1  -0.00028066  0.37956264  0.63351114  1
  C  C218  1  -0.00301710  0.71350158  0.63059924  1
  C  C219  1  0.50312081  0.04708380  0.63216212  1
  C  C220  1  0.49726521  0.37910428  0.63238561  1
  C  C221  1  0.49740586  0.71354379  0.63072546  1
  C  C222  1  0.00018058  0.28674172  0.13286786  1
  C  C223  1  -0.00399153  0.62069919  0.13375324  1
  C  C224  1  0.00166404  0.95292566  0.13146906  1
  C  C225  1  0.49760984  0.28637205  0.13250000  1
  C  C226  1  0.49437889  0.62060123  0.13237121  1
  C  C227  1  0.50155538  0.95308994  0.13055066  1
  C  C228  1  -0.00118680  0.04646727  0.86609911  1
  C  C229  1  0.00235964  0.37933056  0.86426307  1
  C  C230  1  -0.00044394  0.71347518  0.86681779  1
  C  C231  1  0.50041998  0.04660062  0.86769702  1
  C  C232  1  0.50074714  0.37933416  0.86650485  1
  C  C233  1  0.50070505  0.71342779  0.86779753  1
  C  C234  1  -0.00368523  0.28672706  0.36822469  1
  C  C235  1  0.00512405  0.61962059  0.36796848  1
  C  C236  1  -0.00065004  0.95388773  0.36743651  1
  C  C237  1  0.49705029  0.28650406  0.37052440  1
  C  C238  1  0.50723271  0.62021767  0.36785771  1
  C  C239  1  0.49966990  0.95381723  0.36594279  1
  C  C240  1  0.25395601  0.21357080  0.63018344  1
  C  C241  1  0.24559255  0.54675652  0.63168958  1
  C  C242  1  0.25029704  0.88095259  0.63190961  1
  C  C243  1  0.75194326  0.21347809  0.63083301  1
  C  C244  1  0.74892972  0.54554375  0.63215916  1
  C  C245  1  0.74884810  0.87988290  0.63559267  1
  C  C246  1  0.25004182  0.11945733  0.12818586  1
  C  C247  1  0.25217853  0.45309917  0.13343705  1
  C  C248  1  0.24797215  0.78722015  0.13417974  1
  C  C249  1  0.75123765  0.11984361  0.13386637  1
  C  C250  1  0.74875943  0.45355838  0.13373202  1
  C  C251  1  0.74912250  0.78707622  0.13270749  1
  C  C252  1  0.24782945  0.21288898  0.86995639  1
  C  C253  1  0.25043301  0.54632974  0.86759515  1
  C  C254  1  0.24774489  0.87915885  0.87004431  1
  C  C255  1  0.74960312  0.21327590  0.86461188  1
  C  C256  1  0.75188471  0.54708119  0.86599793  1
  C  C257  1  0.74915175  0.87924196  0.86902421  1
  C  C258  1  0.24820353  0.12127839  0.36678245  1
  C  C259  1  0.24961168  0.45344988  0.36694308  1
  C  C260  1  0.25358708  0.78762039  0.36638704  1
  C  C261  1  0.74775104  0.12142832  0.36803857  1
  C  C262  1  0.74904397  0.45247457  0.36798045  1
  C  C263  1  0.75390914  0.78563753  0.37042191  1
  C  C264  1  0.31000159  0.23784803  0.54141845  1
  C  C265  1  0.46240681  0.74308461  0.53592293  1
  C  C266  1  0.43970863  0.93168546  0.45479906  1
  C  C267  1  0.97514975  0.07068793  0.96231925  1
  C  C268  1  0.27382675  0.57329553  0.53591290  1
  C  C269  1  0.21055665  0.09513569  0.03573434  1
  C  C270  1  0.71929430  0.75693930  0.03925008  1
  C  C271  1  0.06847603  0.59611248  0.45461262  1
  C  C272  1  0.03449719  0.26008126  0.46194293  1
  C  C273  1  0.72877114  0.24374651  0.53609023  1
  C  C274  1  0.29053166  0.90677609  0.53850087  1
  C  C275  1  0.69928750  0.23783008  0.95599314  1
  C  C276  1  0.30564991  0.76446911  0.45768694  1
  C  C277  1  0.72382888  0.76080065  0.46600873  1
  C  C278  1  0.29088938  0.09480651  0.03610832  1
  C  C279  1  0.70872981  0.90092347  0.54040130  1
  C  C280  1  0.47306027  0.07256273  0.53719298  1
  C  C281  1  0.28617876  0.09536538  0.46128242  1
  C  C282  1  0.22376006  0.76381218  0.46315723  1
  C  C283  1  0.21272860  0.42402451  0.45954866  1
  C  C284  1  0.05119039  0.92710845  0.04138806  1
  C  C285  1  0.52168665  0.25566779  0.46660662  1
  C  C286  1  0.55345028  0.07196424  0.54166199  1
  C  C287  1  0.71517608  0.57442542  0.95861753  1
  C  C288  1  0.22973899  0.24056884  0.53468888  1
  C  C289  1  0.28671126  0.90940296  0.96355991  1
  C  C290  1  0.54681627  0.92380764  0.03856679  1
  C  C291  1  0.54005502  0.73944042  0.96171473  1
  C  C292  1  0.98231938  0.07278991  0.53619583  1
  C  C293  1  0.45834059  0.73941472  0.96157583  1
  C  C294  1  0.80497824  0.76243063  0.46149213  1
  C  C295  1  0.79067967  0.90053522  0.54077478  1
  C  C296  1  0.78125256  0.23816413  0.96080316  1
  C  C297  1  0.78726637  0.42903548  0.03941451  1
  C  C298  1  0.20749439  0.90676274  0.53915296  1
  C  C299  1  0.94654183  0.59732013  0.04239470  1
  C  C300  1  0.79326444  0.09315333  0.04127612  1
  C  C301  1  0.20400661  0.09563227  0.46009374  1
  C  C302  1  0.52095637  0.93024453  0.46415397  1
  C  C303  1  0.06051829  0.92886956  0.45423898  1
  C  C304  1  0.69014784  0.09510916  0.45582613  1
  C  C305  1  0.22627005  0.24047786  0.96578829  1
  C  C306  1  0.03366561  0.40479202  0.95865506  1
  C  C307  1  0.98809152  0.59411850  0.46630472  1
  C  C308  1  0.04204980  0.40529765  0.54180757  1
  C  C309  1  0.96205650  0.73842795  0.95988678  1
  C  C310  1  0.06317550  0.07011170  0.54586292  1
  C  C311  1  0.02774502  0.59647927  0.03706825  1
  N  N312  1  0.70755822  0.42883064  0.04161032  1
  N  N313  1  0.05378390  0.07211960  0.95597283  1
  N  N314  1  0.54132142  0.74118165  0.54020238  1
  N  N315  1  0.78146201  0.90716569  0.96389381  1
  N  N316  1  0.05366197  0.26203285  0.04303816  1
  N  N317  1  0.97596970  0.26039917  0.03897357  1
  N  N318  1  0.04138203  0.73859618  0.96104705  1
  N  N319  1  0.68930542  0.57188208  0.54516425  1
  N  N320  1  0.23297822  0.57472060  0.96176050  1
  N  N321  1  0.46549776  0.40632796  0.96078163  1
  N  N322  1  0.78960115  0.42750674  0.46184271  1
  N  N323  1  0.28516437  0.42818151  0.04092588  1
  N  N324  1  0.44223921  0.07072804  0.95582096  1
  N  N325  1  0.31057478  0.57120371  0.95486929  1
  N  N326  1  0.53854586  0.59595292  0.03930192  1
  N  N327  1  0.54275477  0.40560566  0.54031943  1
  N  N328  1  0.54274847  0.59383122  0.45954065  1
  N  N329  1  0.46435592  0.59350382  0.46065477  1
  N  N330  1  0.71360324  0.09142869  0.04197488  1
  N  N331  1  0.53849842  0.26072431  0.03887108  1
  N  N332  1  0.95427096  0.40453737  0.95669415  1
  N  N333  1  0.46424754  0.40665256  0.54058104  1
  N  N334  1  0.21664830  0.76003357  0.03909046  1
  N  N335  1  0.46009212  0.59505971  0.04010564  1
  N  N336  1  0.70335620  0.90553050  0.95816930  1
  N  N337  1  0.51961400  0.07387320  0.96194216  1
  N  N338  1  0.96279217  0.40691378  0.53862218  1
  N  N339  1  0.79445302  0.57317016  0.95980267  1
  N  N340  1  0.46746744  0.92524116  0.03772962  1
  N  N341  1  0.20746606  0.90857376  0.96110651  1
  N  N342  1  0.29296485  0.76058586  0.04228880  1
  N  N343  1  0.54256100  0.40637420  0.95920700  1
  N  N344  1  0.97392289  0.92479654  0.03468125  1
  N  N345  1  0.71150999  0.42742365  0.45941231  1
  N  N346  1  0.98157674  0.92515761  0.46281622  1
  N  N347  1  0.19450475  0.57219900  0.54226460  1
  N  N348  1  0.76685717  0.57529801  0.53834885  1
  N  N349  1  0.29059052  0.42451850  0.46056856  1
  N  N350  1  0.45988398  0.26045808  0.04088650  1
  N  N351  1  0.95477359  0.26030371  0.45982556  1
  N  N352  1  0.20689383  0.42836787  0.04070977  1
  N  N353  1  0.30349387  0.23878008  0.95999105  1
  N  N354  1  0.76943309  0.09189185  0.46268056  1
  N  N355  1  0.79695759  0.75804150  0.04112106  1
  N  N356  1  0.93599995  0.73256745  0.54392811  1
  N  N357  1  0.80611571  0.24141567  0.54097909  1
  N  N358  1  0.01305077  0.74624150  0.53668085  1
  N  N359  1  0.44358315  0.25881245  0.45828648  1
  N  N360  1  0.07499900  0.05434208  0.60502237  1
  N  N361  1  0.06624214  0.38893598  0.59984121  1
  N  N362  1  0.05171228  0.72455636  0.58739767  1
  N  N363  1  0.57156285  0.05662424  0.60032003  1
  N  N364  1  0.56234435  0.38916636  0.59801388  1
  N  N365  1  0.56344811  0.72286476  0.59845538  1
  N  N366  1  0.43406996  0.27591824  0.09753637  1
  N  N367  1  0.43184868  0.61028261  0.09614592  1
  N  N368  1  0.43906138  0.94407171  0.09418608  1
  N  N369  1  0.94143284  0.27710232  0.09271489  1
  N  N370  1  0.92770412  0.61173151  0.10067520  1
  N  N371  1  0.94285275  0.94130607  0.09212813  1
  N  N372  1  0.43077336  0.05546963  0.89671081  1
  N  N373  1  0.43866211  0.38969912  0.90343712  1
  N  N374  1  0.43515001  0.72330801  0.90189245  1
  N  N375  1  0.93937880  0.05596203  0.90715866  1
  N  N376  1  0.93663936  0.38886911  0.89749934  1
  N  N377  1  0.93484341  0.72324842  0.90236205  1
  N  N378  1  0.06043751  0.27589527  0.40488666  1
  N  N379  1  0.07810155  0.61129902  0.39472080  1
  N  N380  1  0.07114986  0.94509991  0.39471832  1
  N  N381  1  0.55538519  0.27304120  0.41236999  1
  N  N382  1  0.57030717  0.61036085  0.40373007  1
  N  N383  1  0.55726069  0.94371978  0.40826922  1
  N  N384  1  0.32423127  0.22147982  0.60056819  1
  N  N385  1  0.30600175  0.55793689  0.59144632  1
  N  N386  1  0.31481445  0.89101470  0.59571206  1
  N  N387  1  0.82058931  0.22257703  0.60168214  1
  N  N388  1  0.80472772  0.55639994  0.59001092  1
  N  N389  1  0.81436263  0.88774755  0.60040654  1
  N  N390  1  0.18487484  0.10983602  0.09189374  1
  N  N391  1  0.18713488  0.44415558  0.09866038  1
  N  N392  1  0.18720602  0.77634546  0.09595805  1
  N  N393  1  0.68780391  0.11127350  0.09816076  1
  N  N394  1  0.68393777  0.44335697  0.09991398  1
  N  N395  1  0.68748064  0.77441503  0.09409002  1
  N  N396  1  0.18970297  0.22504565  0.91190315  1
  N  N397  1  0.19478065  0.55682268  0.90988364  1
  N  N398  1  0.18296374  0.88940917  0.90359768  1
  N  N399  1  0.68129422  0.22253823  0.89607581  1
  N  N400  1  0.68745970  0.55836157  0.90147472  1
  N  N401  1  0.68260367  0.88808957  0.90104982  1
  N  N402  1  0.31215316  0.11129627  0.40297113  1
  N  N403  1  0.31354030  0.44308488  0.40157941  1
  N  N404  1  0.32251181  0.77920917  0.39724402  1
  N  N405  1  0.80498491  0.11093944  0.40918672  1
  N  N406  1  0.81247455  0.44340554  0.40461094  1
  N  N407  1  0.82253797  0.77727308  0.40225445  1
  N  N408  1  0.42804719  0.27785007  0.39916379  1
  N  N409  1  0.44312767  0.60959353  0.40312693  1
  N  N410  1  0.42853007  0.94622453  0.39363322  1
  N  N411  1  0.93143113  0.27735166  0.40223011  1
  N  N412  1  0.94952141  0.60919433  0.41102641  1
  N  N413  1  0.94368989  0.94365896  0.41000273  1
  N  N414  1  0.06674393  0.05696961  0.89625961  1
  N  N415  1  0.06460980  0.38972252  0.90227284  1
  N  N416  1  0.06304122  0.72317585  0.90266656  1
  N  N417  1  0.55704585  0.05717296  0.90931519  1
  N  N418  1  0.56531727  0.38959077  0.90085373  1
  N  N419  1  0.56530023  0.72386373  0.90509475  1
  N  N420  1  0.06822060  0.27701636  0.10202594  1
  N  N421  1  0.05770117  0.61116240  0.09542261  1
  N  N422  1  0.07051159  0.94413200  0.10010312  1
  N  N423  1  0.56107647  0.27653337  0.09624865  1
  N  N424  1  0.55897808  0.61172917  0.09709381  1
  N  N425  1  0.56788647  0.94067124  0.09615352  1
  N  N426  1  0.44205127  0.05739533  0.59254307  1
  N  N427  1  0.43514186  0.38975204  0.59584962  1
  N  N428  1  0.43482197  0.72596318  0.59203201  1
  N  N429  1  0.94590888  0.05770186  0.59230023  1
  N  N430  1  0.93805235  0.39093331  0.59639427  1
  N  N431  1  0.92602337  0.72178409  0.60419977  1
  N  N432  1  0.18218756  0.11180630  0.40089876  1
  N  N433  1  0.18544373  0.44159188  0.40316312  1
  N  N434  1  0.19273101  0.77795890  0.40599292  1
  N  N435  1  0.67704230  0.11167459  0.39663234  1
  N  N436  1  0.68501194  0.44159395  0.40246412  1
  N  N437  1  0.69326343  0.77507371  0.41016457  1
  N  N438  1  0.31677328  0.22114426  0.89879438  1
  N  N439  1  0.32047322  0.55548035  0.89561011  1
  N  N440  1  0.31170915  0.89124688  0.90709864  1
  N  N441  1  0.81124338  0.22286393  0.90344416  1
  N  N442  1  0.81564456  0.55641719  0.90168561  1
  N  N443  1  0.80951544  0.89148460  0.90773637  1
  N  N444  1  0.31576433  0.10938517  0.09259604  1
  N  N445  1  0.31443420  0.44210720  0.09712156  1
  N  N446  1  0.31375250  0.77728629  0.10113321  1
  N  N447  1  0.81688098  0.10906043  0.09869326  1
  N  N448  1  0.81304095  0.44420944  0.09671728  1
  N  N449  1  0.81558770  0.77727697  0.10087451  1
  N  N450  1  0.19543543  0.22565854  0.58888300  1
  N  N451  1  0.17783312  0.55545329  0.60110275  1
  N  N452  1  0.18492771  0.89094497  0.59678621  1
  N  N453  1  0.69334410  0.22653223  0.58963922  1
  N  N454  1  0.67901424  0.55542036  0.60424926  1
  N  N455  1  0.68392789  0.88837441  0.59975432  1
  Cl  Cl456  1  0.25800919  0.05234084  0.61585291  1
  Cl  Cl457  1  0.25188406  0.38577352  0.62134918  1
  Cl  Cl458  1  0.24096068  0.72335911  0.60884225  1
  Cl  Cl459  1  0.75988803  0.06074659  0.61320355  1
  Cl  Cl460  1  0.74704991  0.38659525  0.61538041  1
  Cl  Cl461  1  0.74594093  0.71658999  0.61750091  1
  Cl  Cl462  1  0.25203671  0.28098292  0.11659253  1
  Cl  Cl463  1  0.24623383  0.60630962  0.10786011  1
  Cl  Cl464  1  0.25426877  0.94572542  0.10668859  1
  Cl  Cl465  1  0.75342090  0.27841240  0.11155647  1
  Cl  Cl466  1  0.74193125  0.61450284  0.12230449  1
  Cl  Cl467  1  0.75168813  0.94621218  0.11826524  1
  Cl  Cl468  1  0.24942502  0.04572913  0.87833032  1
  Cl  Cl469  1  0.25367920  0.38747854  0.89011134  1
  Cl  Cl470  1  0.24753197  0.71706961  0.87552839  1
  Cl  Cl471  1  0.74384237  0.05899257  0.89570575  1
  Cl  Cl472  1  0.74928412  0.38997115  0.88655277  1
  Cl  Cl473  1  0.74973660  0.71998144  0.88161433  1
  Cl  Cl474  1  0.24480528  0.28188339  0.38206097  1
  Cl  Cl475  1  0.26125951  0.60997765  0.38075221  1
  Cl  Cl476  1  0.24859800  0.94888392  0.37009116  1
  Cl  Cl477  1  0.74537365  0.27943210  0.38136642  1
  Cl  Cl478  1  0.75949210  0.60883655  0.39549725  1
  Cl  Cl479  1  0.75363124  0.94302768  0.38825848  1
  Cl  Cl480  1  0.00671838  0.22165528  0.61575215  1
  Cl  Cl481  1  -0.01023727  0.55787530  0.61521879  1
  Cl  Cl482  1  -0.00211577  0.89008627  0.60963097  1
  Cl  Cl483  1  0.50906222  0.22114054  0.61365566  1
  Cl  Cl484  1  0.49395238  0.55489243  0.61470930  1
  Cl  Cl485  1  0.50028844  0.88341956  0.62076483  1
  Cl  Cl486  1  -0.00235669  0.11405373  0.11800644  1
  Cl  Cl487  1  0.00201344  0.44766713  0.11679272  1
  Cl  Cl488  1  0.00142689  0.77998820  0.12015834  1
  Cl  Cl489  1  0.50648914  0.10755350  0.10631689  1
  Cl  Cl490  1  0.49883825  0.44869531  0.12036881  1
  Cl  Cl491  1  0.49918227  0.78244073  0.11683275  1
  Cl  Cl492  1  -0.00284707  0.22412600  0.88961453  1
  Cl  Cl493  1  0.00915100  0.55559504  0.88552956  1
  Cl  Cl494  1  -0.00240978  0.88690715  0.87919812  1
  Cl  Cl495  1  0.49862701  0.21857206  0.88025498  1
  Cl  Cl496  1  0.50237666  0.55636990  0.88253969  1
  Cl  Cl497  1  0.49784659  0.88869722  0.89030528  1
  Cl  Cl498  1  -0.00979992  0.11235787  0.38663326  1
  Cl  Cl499  1  0.00039685  0.44639918  0.38306880  1
  Cl  Cl500  1  0.00876112  0.77432596  0.39086794  1
  Cl  Cl501  1  0.49583332  0.11960880  0.37421492  1
  Cl  Cl502  1  0.49945930  0.44408950  0.38921398  1
  Cl  Cl503  1  0.50885863  0.77590657  0.38513587  1
  Cl  Cl504  1  0.36244325  0.14540417  0.75268574  1
  Cl  Cl505  1  0.35923841  0.47824716  0.75275675  1
  Cl  Cl506  1  0.36209971  0.81211553  0.75070514  1
  Cl  Cl507  1  0.85930196  0.14375787  0.74886445  1
  Cl  Cl508  1  0.86295275  0.47779436  0.75273740  1
  Cl  Cl509  1  0.86032983  0.81229651  0.74614548  1
  Cl  Cl510  1  0.13740565  0.18788286  0.24846992  1
  Cl  Cl511  1  0.13943681  0.52213164  0.25019959  1
  Cl  Cl512  1  0.14139035  0.85545270  0.25027400  1
  Cl  Cl513  1  0.63855346  0.18774507  0.24828859  1
  Cl  Cl514  1  0.64098518  0.52318580  0.25227381  1
  Cl  Cl515  1  0.63724277  0.85491629  0.25099313  1
  Cl  Cl516  1  0.13824973  0.14415576  0.74940975  1
  Cl  Cl517  1  0.13773899  0.47897424  0.74688765  1
  Cl  Cl518  1  0.13604603  0.81208511  0.74890649  1
  Cl  Cl519  1  0.63876813  0.14518851  0.75203232  1
  Cl  Cl520  1  0.63910146  0.47801592  0.74529191  1
  Cl  Cl521  1  0.63679060  0.81145148  0.75284602  1
  Cl  Cl522  1  0.36257804  0.18868550  0.24614617  1
  Cl  Cl523  1  0.36371964  0.52227615  0.24989379  1
  Cl  Cl524  1  0.36414943  0.85602779  0.25158201  1
  Cl  Cl525  1  0.86092324  0.18738209  0.25003231  1
  Cl  Cl526  1  0.86158740  0.52118115  0.24925445  1
  Cl  Cl527  1  0.86422163  0.85416353  0.25171872  1
  Cl  Cl528  1  0.10843648  0.31023113  0.74959676  1
  Cl  Cl529  1  0.11011501  0.64635528  0.74542368  1
  Cl  Cl530  1  0.11300277  0.97837732  0.74806019  1
  Cl  Cl531  1  0.61231670  0.31175726  0.75043179  1
  Cl  Cl532  1  0.61136354  0.64431612  0.74627173  1
  Cl  Cl533  1  0.61270725  0.97848432  0.74841942  1
  Cl  Cl534  1  0.38926640  0.02181959  0.24977999  1
  Cl  Cl535  1  0.38818127  0.35593995  0.25317848  1
  Cl  Cl536  1  0.38934926  0.68763849  0.25163360  1
  Cl  Cl537  1  0.88811143  0.02052270  0.24920760  1
  Cl  Cl538  1  0.88957651  0.35451504  0.25105559  1
  Cl  Cl539  1  0.89235221  0.68972165  0.24930529  1
  Cl  Cl540  1  0.38854299  0.31133552  0.74933421  1
  Cl  Cl541  1  0.38869755  0.64461012  0.74958868  1
  Cl  Cl542  1  0.38903939  0.97879824  0.75356252  1
  Cl  Cl543  1  0.88698385  0.31090384  0.75161944  1
  Cl  Cl544  1  0.88680269  0.64557661  0.74675983  1
  Cl  Cl545  1  0.88770658  0.97958507  0.74848575  1
  Cl  Cl546  1  0.11208836  0.02092734  0.25189508  1
  Cl  Cl547  1  0.11164580  0.35459151  0.24764703  1
  Cl  Cl548  1  0.11525150  0.68792213  0.25477545  1
  Cl  Cl549  1  0.61222803  0.02134525  0.24716657  1
  Cl  Cl550  1  0.61138024  0.35386829  0.24831021  1
  Cl  Cl551  1  0.61105006  0.68674618  0.24941965  1
