# generated using pymatgen
data_H8PbC4(N3Cl2)2
_symmetry_space_group_name_H-M   'P 1'
_cell_length_a   16.62974389
_cell_length_b   22.51304801
_cell_length_c   21.59335084
_cell_angle_alpha   89.99984261
_cell_angle_beta   89.97430109
_cell_angle_gamma   90.00035791
_symmetry_Int_Tables_number   1
_chemical_formula_structural   H8PbC4(N3Cl2)2
_chemical_formula_sum   'H192 Pb24 C96 N144 Cl96'
_cell_volume   8084.25224171
_cell_formula_units_Z   24
loop_
 _symmetry_equiv_pos_site_id
 _symmetry_equiv_pos_as_xyz
  1  'x, y, z'
loop_
 _atom_site_type_symbol
 _atom_site_label
 _atom_site_symmetry_multiplicity
 _atom_site_fract_x
 _atom_site_fract_y
 _atom_site_fract_z
 _atom_site_occupancy
  H  H0  1  0.00849902  0.03114055  0.68239444  1
  H  H1  1  0.01307473  0.36229427  0.67976011  1
  H  H2  1  0.00801015  0.69462982  0.67570431  1
  H  H3  1  0.49822978  0.03248153  0.68358215  1
  H  H4  1  0.49358724  0.36597573  0.67980684  1
  H  H5  1  0.49310470  0.69858988  0.67860567  1
  H  H6  1  -0.00173699  0.30399075  0.17839546  1
  H  H7  1  0.00074577  0.63666569  0.17667160  1
  H  H8  1  0.01064640  0.97131956  0.18041620  1
  H  H9  1  0.49564873  0.30319459  0.17802347  1
  H  H10  1  0.49312268  0.63525040  0.18321736  1
  H  H11  1  0.49491687  0.97360200  0.17618521  1
  H  H12  1  0.00376648  0.03010505  0.82192328  1
  H  H13  1  -0.00399350  0.36244697  0.82041751  1
  H  H14  1  0.00367796  0.69539509  0.82032048  1
  H  H15  1  0.51242112  0.02552375  0.82131231  1
  H  H16  1  0.50578163  0.36005627  0.82341000  1
  H  H17  1  0.50684687  0.69882822  0.82067124  1
  H  H18  1  -0.00807251  0.30514929  0.32366585  1
  H  H19  1  0.00492147  0.63890941  0.32732058  1
  H  H20  1  0.01563903  0.96878629  0.31856552  1
  H  H21  1  0.50452662  0.30422341  0.32251953  1
  H  H22  1  0.49738732  0.63852963  0.31942359  1
  H  H23  1  0.48765521  0.96869112  0.32205887  1
  H  H24  1  0.26786445  0.20062336  0.67451635  1
  H  H25  1  0.26324157  0.53151920  0.68016525  1
  H  H26  1  0.25197515  0.86558118  0.68360183  1
  H  H27  1  0.73776688  0.19651119  0.67783636  1
  H  H28  1  0.73766597  0.53221062  0.67941548  1
  H  H29  1  0.74857595  0.86110661  0.67960029  1
  H  H30  1  0.23950531  0.13287205  0.17779397  1
  H  H31  1  0.26262975  0.47115718  0.17828372  1
  H  H32  1  0.24649815  0.80580788  0.17747101  1
  H  H33  1  0.74351687  0.13781111  0.17737111  1
  H  H34  1  0.74701740  0.46832221  0.18050243  1
  H  H35  1  0.74652624  0.80221003  0.18263425  1
  H  H36  1  0.25083163  0.19276494  0.82436402  1
  H  H37  1  0.26520990  0.53113284  0.81785252  1
  H  H38  1  0.25950165  0.85898808  0.82205105  1
  H  H39  1  0.75558934  0.19793031  0.82142003  1
  H  H40  1  0.73801699  0.53129479  0.82262749  1
  H  H41  1  0.73442797  0.86604788  0.82573272  1
  H  H42  1  0.26281884  0.13966335  0.32176961  1
  H  H43  1  0.25497029  0.46995771  0.32175102  1
  H  H44  1  0.25698352  0.80033209  0.32037428  1
  H  H45  1  0.73440255  0.13575158  0.32037439  1
  H  H46  1  0.75094022  0.46842020  0.31948000  1
  H  H47  1  0.74410801  0.80480849  0.32306210  1
  H  H48  1  0.12314358  0.05874671  0.60257371  1
  H  H49  1  0.12779722  0.38754525  0.59898792  1
  H  H50  1  0.12658533  0.72130119  0.60124693  1
  H  H51  1  0.62353380  0.05265766  0.61434426  1
  H  H52  1  0.63153849  0.38505159  0.62215857  1
  H  H53  1  0.63076117  0.71782906  0.62052124  1
  H  H54  1  0.38801560  0.27480963  0.09434208  1
  H  H55  1  0.37171793  0.61191375  0.11160201  1
  H  H56  1  0.37231608  0.94503807  0.10664981  1
  H  H57  1  0.88309900  0.27720801  0.10208973  1
  H  H58  1  0.86990134  0.61249631  0.11376233  1
  H  H59  1  0.87638956  0.94921630  0.11892426  1
  H  H60  1  0.37258351  0.04931534  0.87425130  1
  H  H61  1  0.37098015  0.38554363  0.88012201  1
  H  H62  1  0.36754590  0.71869506  0.87623015  1
  H  H63  1  0.87399048  0.05163595  0.88400500  1
  H  H64  1  0.87434551  0.38723861  0.89479750  1
  H  H65  1  0.87261799  0.72021546  0.88472781  1
  H  H66  1  0.12307942  0.28221537  0.38521439  1
  H  H67  1  0.12082692  0.61065026  0.40269879  1
  H  H68  1  0.12083268  0.94456269  0.40374602  1
  H  H69  1  0.61460831  0.27408492  0.40349142  1
  H  H70  1  0.62352249  0.61377558  0.38885654  1
  H  H71  1  0.62514447  0.94596195  0.37733944  1
  H  H72  1  0.37264346  0.22650007  0.59123599  1
  H  H73  1  0.37435659  0.55756613  0.59963415  1
  H  H74  1  0.37469655  0.88782863  0.61278611  1
  H  H75  1  0.87933429  0.21681224  0.62709459  1
  H  H76  1  0.87819384  0.55120753  0.62471048  1
  H  H77  1  0.87463825  0.88381855  0.61006970  1
  H  H78  1  0.13018365  0.11022675  0.09524334  1
  H  H79  1  0.12884755  0.44889799  0.11646284  1
  H  H80  1  0.13309722  0.77685549  0.09725353  1
  H  H81  1  0.63748926  0.10501198  0.09481716  1
  H  H82  1  0.63110784  0.44371926  0.10545648  1
  H  H83  1  0.63164543  0.78183475  0.10500917  1
  H  H84  1  0.12011537  0.21399779  0.88972040  1
  H  H85  1  0.12660025  0.54971974  0.87055456  1
  H  H86  1  0.13222721  0.88602684  0.89014874  1
  H  H87  1  0.61700901  0.21767325  0.87602541  1
  H  H88  1  0.63637467  0.55683623  0.90866890  1
  H  H89  1  0.63207786  0.89362774  0.91053213  1
  H  H90  1  0.37098432  0.11139335  0.40456370  1
  H  H91  1  0.36596092  0.43912230  0.40252026  1
  H  H92  1  0.36628926  0.77565389  0.40462058  1
  H  H93  1  0.87379457  0.11719620  0.37262863  1
  H  H94  1  0.86838892  0.44587227  0.39599398  1
  H  H95  1  0.87206522  0.77872013  0.38945176  1
  H  H96  1  0.36784745  0.28066225  0.37820984  1
  H  H97  1  0.37411496  0.61137341  0.38827989  1
  H  H98  1  0.37867051  0.94308740  0.40484950  1
  H  H99  1  0.87513337  0.27552109  0.39955840  1
  H  H100  1  0.87312577  0.61523004  0.38969111  1
  H  H101  1  0.87543270  0.94891247  0.37328858  1
  H  H102  1  0.12200680  0.05533748  0.89589918  1
  H  H103  1  0.12324205  0.38602881  0.88759053  1
  H  H104  1  0.12080199  0.72248383  0.89500891  1
  H  H105  1  0.61688884  0.05620136  0.90634937  1
  H  H106  1  0.61817983  0.38941915  0.90251335  1
  H  H107  1  0.61454866  0.72518254  0.90264872  1
  H  H108  1  0.13049854  0.28129675  0.11494916  1
  H  H109  1  0.11804759  0.61013681  0.10027413  1
  H  H110  1  0.12435047  0.94614187  0.10152980  1
  H  H111  1  0.63350412  0.28100636  0.12097840  1
  H  H112  1  0.62122463  0.61398337  0.11729917  1
  H  H113  1  0.62152142  0.94732649  0.10789496  1
  H  H114  1  0.37399229  0.05595399  0.61461141  1
  H  H115  1  0.38407796  0.38831638  0.59729042  1
  H  H116  1  0.38454450  0.72565602  0.59445587  1
  H  H117  1  0.87573990  0.05401144  0.61792669  1
  H  H118  1  0.88058888  0.38605843  0.61660659  1
  H  H119  1  0.87818349  0.71975785  0.61111751  1
  H  H120  1  0.12485190  0.11815795  0.37673495  1
  H  H121  1  0.11936888  0.45131102  0.38229449  1
  H  H122  1  0.11969443  0.78154455  0.37975325  1
  H  H123  1  0.62876901  0.10675162  0.40418662  1
  H  H124  1  0.61977734  0.44531207  0.38445152  1
  H  H125  1  0.62328804  0.77821417  0.39554520  1
  H  H126  1  0.36801934  0.22470932  0.89720832  1
  H  H127  1  0.37207965  0.55350839  0.90077887  1
  H  H128  1  0.38087935  0.88966626  0.89465862  1
  H  H129  1  0.86415966  0.22242039  0.90233380  1
  H  H130  1  0.88052623  0.55030316  0.87282851  1
  H  H131  1  0.87510537  0.88144323  0.87430980  1
  H  H132  1  0.37569174  0.11456949  0.12371913  1
  H  H133  1  0.37671220  0.44098361  0.10139135  1
  H  H134  1  0.38053372  0.78322939  0.11534782  1
  H  H135  1  0.88338564  0.11806253  0.12328819  1
  H  H136  1  0.87982171  0.44845341  0.11814856  1
  H  H137  1  0.87992616  0.78283595  0.12179632  1
  H  H138  1  0.12841552  0.21639545  0.62277715  1
  H  H139  1  0.12696518  0.55305277  0.62012586  1
  H  H140  1  0.12498048  0.88370530  0.61556349  1
  H  H141  1  0.63667394  0.22735737  0.59031045  1
  H  H142  1  0.63266440  0.55979354  0.59528611  1
  H  H143  1  0.62569408  0.88779392  0.60749513  1
  H  H144  1  0.15779994  0.25265323  0.99158944  1
  H  H145  1  0.29639268  0.08988133  0.50646488  1
  H  H146  1  0.09470602  0.24905626  0.49686379  1
  H  H147  1  0.14291134  0.57765468  0.98475531  1
  H  H148  1  0.61107964  0.25183635  0.01044097  1
  H  H149  1  0.30696694  0.24227052  1.00209664  1
  H  H150  1  0.29344132  0.40868807  0.50196068  1
  H  H151  1  0.71335231  0.08132151  -0.00600149  1
  H  H152  1  0.58208836  0.58812418  0.00429801  1
  H  H153  1  0.68891375  0.41439058  -0.00436079  1
  H  H154  1  0.42220902  0.58186194  0.49888399  1
  H  H155  1  0.57862092  0.07483065  0.50076741  1
  H  H156  1  0.32653168  0.91350986  0.50076231  1
  H  H157  1  0.53768940  0.07942107  1.00534698  1
  H  H158  1  0.07880593  0.41746801  0.99708812  1
  H  H159  1  0.85627138  0.08337406  0.48532106  1
  H  H160  1  0.79677312  0.25455508  1.00772716  1
  H  H161  1  0.71907625  0.25133482  0.49312498  1
  H  H162  1  0.30472763  0.58440410  0.49351646  1
  H  H163  1  0.45143704  0.41686645  0.49200081  1
  H  H164  1  0.54928616  0.41570449  1.00469808  1
  H  H165  1  0.70334552  0.08680856  0.50522335  1
  H  H166  1  0.54502222  0.75587283  1.00713141  1
  H  H167  1  0.39119234  0.74877681  0.98459473  1
  H  H168  1  0.93224801  0.25024887  0.50205170  1
  H  H169  1  0.41919265  0.08029023  0.50188662  1
  H  H170  1  0.60595945  0.41356588  0.51382165  1
  H  H171  1  0.45152621  0.91619930  0.50581184  1
  H  H172  1  0.30208355  0.57666919  1.00817328  1
  H  H173  1  0.86324176  0.91409962  -0.01023017  1
  H  H174  1  0.90605908  0.08281518  0.99748885  1
  H  H175  1  0.05997928  0.91556163  -0.00380211  1
  H  H176  1  0.54322674  0.24756063  0.50469269  1
  H  H177  1  0.90932177  0.58436109  0.49699226  1
  H  H178  1  0.16669577  0.90866678  0.50242780  1
  H  H179  1  0.86720446  0.57794843  0.98381972  1
  H  H180  1  0.85129246  0.75628183  0.00867227  1
  H  H181  1  0.45954260  0.75480318  0.49581537  1
  H  H182  1  0.69082620  0.75709520  -0.00489670  1
  H  H183  1  0.42180157  0.58728281  -0.00019472  1
  H  H184  1  0.35511722  0.08435598  1.00806434  1
  H  H185  1  0.57405743  0.59811878  0.49707967  1
  H  H186  1  0.81098047  0.41699941  0.50272369  1
  H  H187  1  0.70821934  0.58769864  0.49231239  1
  H  H188  1  0.71340853  0.58302337  1.01229564  1
  H  H189  1  0.82807873  0.91372563  0.50108832  1
  H  H190  1  0.04483958  0.91697621  0.50692735  1
  H  H191  1  0.29205685  0.74718128  0.50394536  1
  Pb  Pb192  1  0.24705931  0.04704628  0.74237447  1
  Pb  Pb193  1  0.24619272  0.38182337  0.74009120  1
  Pb  Pb194  1  0.24897305  0.71301553  0.73996151  1
  Pb  Pb195  1  0.74615811  0.04934660  0.75227768  1
  Pb  Pb196  1  0.75112051  0.37992825  0.75509317  1
  Pb  Pb197  1  0.75323421  0.71541383  0.75611783  1
  Pb  Pb198  1  0.24645785  0.28414998  0.23832623  1
  Pb  Pb199  1  0.24462568  0.61836779  0.25051321  1
  Pb  Pb200  1  0.24630279  0.95249661  0.25643362  1
  Pb  Pb201  1  0.75166760  0.28704602  0.25675385  1
  Pb  Pb202  1  0.74916057  0.61949036  0.25163934  1
  Pb  Pb203  1  0.74768106  0.95131372  0.24653994  1
  Pb  Pb204  1  -0.00025544  0.21257256  0.75486555  1
  Pb  Pb205  1  -0.00041600  0.54659160  0.74490749  1
  Pb  Pb206  1  -0.00027083  0.87950593  0.74901205  1
  Pb  Pb207  1  0.49467201  0.21685290  0.74078930  1
  Pb  Pb208  1  0.50537808  0.55031034  0.75179074  1
  Pb  Pb209  1  0.50039991  0.88066191  0.75043815  1
  Pb  Pb210  1  -0.00205248  0.11915089  0.24253187  1
  Pb  Pb211  1  -0.00014569  0.45439659  0.25017503  1
  Pb  Pb212  1  0.00017026  0.78625934  0.24611427  1
  Pb  Pb213  1  0.50044323  0.11765181  0.25283035  1
  Pb  Pb214  1  0.49683920  0.45031490  0.24693879  1
  Pb  Pb215  1  0.49520289  0.78551259  0.25334926  1
  C  C216  1  0.00252594  0.04632181  0.63491243  1
  C  C217  1  0.00738436  0.37832831  0.63262100  1
  C  C218  1  0.00414328  0.71182447  0.62911218  1
  C  C219  1  0.49861366  0.04677264  0.63548813  1
  C  C220  1  0.50379719  0.38048991  0.63236320  1
  C  C221  1  0.50235833  0.71394753  0.63149223  1
  C  C222  1  0.00443291  0.28786723  0.13158085  1
  C  C223  1  -0.00367069  0.62067338  0.12953995  1
  C  C224  1  0.00353466  0.95548894  0.13322661  1
  C  C225  1  0.50622596  0.28667314  0.13146097  1
  C  C226  1  0.49548088  0.62053448  0.13534755  1
  C  C227  1  0.49652766  0.95532421  0.12995298  1
  C  C228  1  -0.00083143  0.04543539  0.86932810  1
  C  C229  1  -0.00232311  0.37836871  0.86777642  1
  C  C230  1  -0.00136491  0.71213302  0.86703049  1
  C  C231  1  0.50075650  0.04208812  0.86765150  1
  C  C232  1  0.49862028  0.37706090  0.86997833  1
  C  C233  1  0.49558068  0.71407278  0.86773404  1
  C  C234  1  -0.00374392  0.28844697  0.37081769  1
  C  C235  1  -0.00080319  0.62231500  0.37419712  1
  C  C236  1  0.00372259  0.95428136  0.36559365  1
  C  C237  1  0.49603077  0.28759434  0.36911147  1
  C  C238  1  0.49911015  0.62224674  0.36677151  1
  C  C239  1  0.49695243  0.95349262  0.36912031  1
  C  C240  1  0.25591774  0.21452970  0.62742442  1
  C  C241  1  0.25465868  0.54654232  0.63289669  1
  C  C242  1  0.25045892  0.87976453  0.63550016  1
  C  C243  1  0.75080583  0.21221446  0.63141991  1
  C  C244  1  0.74989177  0.54675053  0.63240126  1
  C  C245  1  0.74958422  0.87752670  0.63243080  1
  C  C246  1  0.24944848  0.11940481  0.13027100  1
  C  C247  1  0.25576477  0.45420481  0.13176696  1
  C  C248  1  0.25332785  0.78947782  0.13041011  1
  C  C249  1  0.75450555  0.12190699  0.13067189  1
  C  C250  1  0.75240396  0.45359661  0.13294044  1
  C  C251  1  0.75303496  0.78875233  0.13456117  1
  C  C252  1  0.24629655  0.21000468  0.87128559  1
  C  C253  1  0.25419184  0.54502182  0.86533097  1
  C  C254  1  0.25770898  0.87714458  0.86856333  1
  C  C255  1  0.74576222  0.21293239  0.86862327  1
  C  C256  1  0.75240456  0.54598945  0.86942112  1
  C  C257  1  0.74834843  0.88059542  0.87238182  1
  C  C258  1  0.25326369  0.12448743  0.36875103  1
  C  C259  1  0.24715027  0.45381156  0.36864808  1
  C  C260  1  0.24800536  0.78578371  0.36777367  1
  C  C261  1  0.74549874  0.12101066  0.36762926  1
  C  C262  1  0.74599556  0.45289645  0.36696214  1
  C  C263  1  0.74661951  0.78740397  0.36964269  1
  C  C264  1  0.72434343  0.76558863  0.03743456  1
  C  C265  1  0.97721730  0.25761903  0.03724972  1
  C  C266  1  0.22683763  0.09271783  0.03357819  1
  C  C267  1  0.73560946  0.57511742  0.53626028  1
  C  C268  1  0.71359309  0.75495212  0.46143352  1
  C  C269  1  0.43671082  0.25592639  0.45531709  1
  C  C270  1  0.77509129  0.42687165  0.46174755  1
  C  C271  1  0.78827478  0.90433375  0.53993118  1
  C  C272  1  0.27266501  0.24180036  0.53074050  1
  C  C273  1  0.73322579  0.90975461  0.96912274  1
  C  C274  1  0.19186921  0.09611458  0.45533742  1
  C  C275  1  0.55726850  0.92284260  0.45531431  1
  C  C276  1  0.02828464  0.74404064  0.96010938  1
  C  C277  1  0.03446674  0.74408695  0.53675103  1
  C  C278  1  0.53989702  0.06837530  0.54074560  1
  C  C279  1  0.95100526  0.07282561  0.96121635  1
  C  C280  1  0.48125022  0.40671723  0.53562795  1
  C  C281  1  0.45901443  0.59293774  0.45896459  1
  C  C282  1  0.68449339  0.23849862  0.95568185  1
  C  C283  1  0.27298632  0.56879863  0.96386430  1
  C  C284  1  0.51625775  0.74354717  0.96373180  1
  C  C285  1  0.19307016  0.23825778  0.54142083  1
  C  C286  1  0.45881543  0.59658992  0.04008735  1
  C  C287  1  0.01808108  0.92729344  0.46215723  1
  C  C288  1  0.46114368  0.92082662  0.03959737  1
  C  C289  1  0.02768359  0.92638953  0.03866233  1
  C  C290  1  0.44155023  0.40929247  0.95677408  1
  C  C291  1  0.72340200  0.42599841  0.03674817  1
  C  C292  1  0.80831407  0.09273816  0.45231828  1
  C  C293  1  0.54064981  0.59736349  0.04206523  1
  C  C294  1  0.94987810  0.59266609  0.03922837  1
  C  C295  1  0.04754485  0.25952240  0.46037352  1
  C  C296  1  0.28880556  0.90352995  0.54056907  1
  C  C297  1  0.03218690  0.07359222  0.96361473  1
  C  C298  1  0.03829277  0.40639687  0.95921507  1
  C  C299  1  0.81776412  0.09387215  0.04523839  1
  C  C300  1  0.30768757  0.09390046  0.04162260  1
  C  C301  1  0.27529179  0.57376024  0.53715824  1
  C  C302  1  0.20678026  0.90170358  0.54149231  1
  C  C303  1  0.03077921  0.58974684  0.46824876  1
  C  C304  1  0.76523508  0.24150239  0.96567779  1
  C  C305  1  0.19218989  0.56830229  0.95283996  1
  C  C306  1  0.80446944  0.42785863  0.04307755  1
  C  C307  1  0.73891173  0.57259632  0.96709545  1
  C  C308  1  0.45789605  0.07025173  0.54109620  1
  C  C309  1  0.80603497  0.76541322  0.04382568  1
  C  C310  1  0.81322832  0.90583841  0.95817148  1
  C  C311  1  0.28162409  0.42126389  0.03830064  1
  N  N312  1  0.70913011  0.90671150  0.53900620  1
  N  N313  1  0.79084919  0.75489277  0.46080043  1
  N  N314  1  0.74006279  0.08999584  0.03623971  1
  N  N315  1  0.29204313  0.91141247  0.96035042  1
  N  N316  1  0.22847286  0.75884579  0.03561918  1
  N  N317  1  0.47914925  0.92334284  0.46390270  1
  N  N318  1  0.02938547  0.07416628  0.53926680  1
  N  N319  1  0.53853835  0.92133453  0.03877033  1
  N  N320  1  0.26997730  0.09510076  0.46374739  1
  N  N321  1  0.95727459  0.74378758  0.53855789  1
  N  N322  1  0.19672185  0.57284859  0.54433168  1
  N  N323  1  0.02757033  0.59160216  0.03378563  1
  N  N324  1  0.03400974  0.40805035  0.53750612  1
  N  N325  1  0.56270079  0.73826362  0.54420365  1
  N  N326  1  0.96780200  0.25671851  0.46363410  1
  N  N327  1  0.43750005  0.07192148  0.95123881  1
  N  N328  1  0.51424650  0.07435074  0.96097076  1
  N  N329  1  0.26590281  0.76119999  0.46292688  1
  N  N330  1  0.81827913  0.23887609  0.54798840  1
  N  N331  1  0.95094871  0.74334539  0.95770438  1
  N  N332  1  0.18921414  0.42593318  0.45569262  1
  N  N333  1  0.53878166  0.59420807  0.45839404  1
  N  N334  1  0.05449071  0.25943362  0.04048445  1
  N  N335  1  0.69574876  0.42692848  0.45854332  1
  N  N336  1  0.94899529  0.92637632  0.04487855  1
  N  N337  1  0.55983920  0.40607975  0.54528836  1
  N  N338  1  0.94008737  0.92811863  0.45193060  1
  N  N339  1  0.72968094  0.08915144  0.46223867  1
  N  N340  1  0.95788114  0.40749683  0.54292195  1
  N  N341  1  0.19908653  0.23438379  0.96108541  1
  N  N342  1  0.95212230  0.59241742  0.46304193  1
  N  N343  1  0.18859173  0.76268710  0.45570021  1
  N  N344  1  0.51499324  0.25506387  0.46272201  1
  N  N345  1  0.26658466  0.42148756  0.46098120  1
  N  N346  1  0.95360791  0.07213724  0.54413303  1
  N  N347  1  0.74167029  0.24319754  0.53735426  1
  N  N348  1  0.95908465  0.40677024  0.96187990  1
  N  N349  1  0.27698330  0.24738760  0.96082904  1
  N  N350  1  0.81654546  0.57075356  0.95354925  1
  N  N351  1  0.48453441  0.25746709  0.03540906  1
  N  N352  1  0.43788455  0.74124542  0.95349145  1
  N  N353  1  0.21574858  0.90996682  0.95904060  1
  N  N354  1  0.52007307  0.40913814  0.96333488  1
  N  N355  1  0.81369566  0.57175474  0.54589082  1
  N  N356  1  0.56164756  0.25970784  0.04524843  1
  N  N357  1  0.30461262  0.76144525  0.04137650  1
  N  N358  1  0.20419166  0.42389177  0.04180281  1
  N  N359  1  0.48546746  0.74100421  0.53697234  1
  N  N360  1  0.06130143  0.05812230  0.59524754  1
  N  N361  1  0.06607250  0.38951792  0.59274856  1
  N  N362  1  0.06628307  0.72499853  0.59116746  1
  N  N363  1  0.56392757  0.05408460  0.59981735  1
  N  N364  1  0.57346946  0.39032320  0.60495165  1
  N  N365  1  0.57279336  0.72174375  0.60324011  1
  N  N366  1  0.45050642  0.27383948  0.08929216  1
  N  N367  1  0.43188364  0.61080127  0.09849151  1
  N  N368  1  0.43247409  0.94124515  0.09441163  1
  N  N369  1  0.94415830  0.27487924  0.09189662  1
  N  N370  1  0.92859170  0.60980970  0.09763730  1
  N  N371  1  0.93538314  0.94458226  0.10380147  1
  N  N372  1  0.42959334  0.05384132  0.89268036  1
  N  N373  1  0.42821144  0.39027407  0.89867593  1
  N  N374  1  0.42532115  0.72234140  0.89473894  1
  N  N375  1  0.93167294  0.05523096  0.90100993  1
  N  N376  1  0.93547424  0.38915493  0.90458736  1
  N  N377  1  0.93217919  0.72335119  0.89837798  1
  N  N378  1  0.06472389  0.27805710  0.40229106  1
  N  N379  1  0.06025006  0.60806055  0.41341020  1
  N  N380  1  0.05874166  0.94313885  0.40958870  1
  N  N381  1  0.55267783  0.27647826  0.41054992  1
  N  N382  1  0.56315904  0.61590871  0.40231732  1
  N  N383  1  0.56840201  0.94100851  0.39660723  1
  N  N384  1  0.31123197  0.22729515  0.58348633  1
  N  N385  1  0.31275269  0.55788967  0.59123030  1
  N  N386  1  0.31458207  0.89003579  0.59939146  1
  N  N387  1  0.82318594  0.22147147  0.60709154  1
  N  N388  1  0.82074360  0.55418090  0.60599418  1
  N  N389  1  0.81464661  0.88724237  0.59723054  1
  N  N390  1  0.19202673  0.10821447  0.08693952  1
  N  N391  1  0.18816380  0.44450847  0.10145025  1
  N  N392  1  0.19545215  0.77634720  0.09057433  1
  N  N393  1  0.69985203  0.11006442  0.08805154  1
  N  N394  1  0.69185513  0.44239743  0.09406904  1
  N  N395  1  0.69261891  0.77996540  0.09435178  1
  N  N396  1  0.17955415  0.22055449  0.90280168  1
  N  N397  1  0.18226682  0.55366623  0.89169317  1
  N  N398  1  0.19301914  0.88856594  0.90232139  1
  N  N399  1  0.67349494  0.22177081  0.89625891  1
  N  N400  1  0.69849262  0.55745256  0.91487071  1
  N  N401  1  0.69399706  0.89446237  0.91749947  1
  N  N402  1  0.30912200  0.11478266  0.41123186  1
  N  N403  1  0.30379823  0.43953582  0.40899061  1
  N  N404  1  0.30389654  0.77413913  0.40966592  1
  N  N405  1  0.81802919  0.11091458  0.39330400  1
  N  N406  1  0.80706071  0.44226917  0.40591399  1
  N  N407  1  0.81170436  0.77538115  0.40236417  1
  N  N408  1  0.42479900  0.27530237  0.39706532  1
  N  N409  1  0.43431168  0.60839339  0.40174433  1
  N  N410  1  0.44075287  0.94415260  0.41142153  1
  N  N411  1  0.93624310  0.27676034  0.40910606  1
  N  N412  1  0.93197941  0.61333170  0.40527744  1
  N  N413  1  0.93297356  0.94482604  0.39174327  1
  N  N414  1  0.06133313  0.05712497  0.90849517  1
  N  N415  1  0.06353687  0.38940860  0.90165848  1
  N  N416  1  0.05995149  0.72506655  0.90576212  1
  N  N417  1  0.55424991  0.05334770  0.91142222  1
  N  N418  1  0.55635034  0.38739113  0.91068491  1
  N  N419  1  0.55247521  0.72700899  0.91038756  1
  N  N420  1  0.07155008  0.27806099  0.10071073  1
  N  N421  1  0.05638575  0.60984930  0.09121229  1
  N  N422  1  0.06265325  0.94396708  0.09267019  1
  N  N423  1  0.57578090  0.27741790  0.10353932  1
  N  N424  1  0.56214984  0.61212715  0.10162874  1
  N  N425  1  0.56084368  0.94269974  0.09651168  1
  N  N426  1  0.43358334  0.05691214  0.60031165  1
  N  N427  1  0.44607403  0.39113357  0.58973724  1
  N  N428  1  0.44694423  0.72692954  0.58973144  1
  N  N429  1  0.93526740  0.05464195  0.60332369  1
  N  N430  1  0.94009678  0.38972822  0.60206760  1
  N  N431  1  0.93814877  0.72346776  0.59735256  1
  N  N432  1  0.18145321  0.11331407  0.39626541  1
  N  N433  1  0.17759628  0.44531421  0.39783355  1
  N  N434  1  0.17799900  0.77826733  0.39658615  1
  N  N435  1  0.69079712  0.11041944  0.41077909  1
  N  N436  1  0.67929305  0.44293643  0.39871690  1
  N  N437  1  0.68336228  0.77436316  0.40654769  1
  N  N438  1  0.30710456  0.22215022  0.90880533  1
  N  N439  1  0.31058724  0.55455746  0.90879149  1
  N  N440  1  0.31958373  0.89129275  0.90430510  1
  N  N441  1  0.80249930  0.22509029  0.91022390  1
  N  N442  1  0.82428424  0.55423710  0.89364099  1
  N  N443  1  0.82111771  0.88788753  0.89695388  1
  N  N444  1  0.32036868  0.11064210  0.10280713  1
  N  N445  1  0.31556390  0.43952392  0.09223041  1
  N  N446  1  0.32141959  0.78020797  0.10010849  1
  N  N447  1  0.82704703  0.11256397  0.10404383  1
  N  N448  1  0.82158532  0.44414964  0.10107533  1
  N  N449  1  0.82225544  0.77959387  0.10423761  1
  N  N450  1  0.18338152  0.22198609  0.60074660  1
  N  N451  1  0.18572649  0.55583593  0.60372192  1
  N  N452  1  0.18435783  0.88733229  0.60075060  1
  N  N453  1  0.69908351  0.22443821  0.58677248  1
  N  N454  1  0.69497637  0.55954570  0.58884710  1
  N  N455  1  0.68675093  0.88983225  0.59690964  1
  Cl  Cl456  1  0.24879891  0.06212975  0.60532352  1
  Cl  Cl457  1  0.26000749  0.38831592  0.60157265  1
  Cl  Cl458  1  0.26346024  0.72342151  0.59999723  1
  Cl  Cl459  1  0.74814568  0.06142159  0.61406702  1
  Cl  Cl460  1  0.75598069  0.38514529  0.61998735  1
  Cl  Cl461  1  0.75450528  0.71741455  0.62569156  1
  Cl  Cl462  1  0.26342507  0.27454351  0.10139349  1
  Cl  Cl463  1  0.24484601  0.60845899  0.11636952  1
  Cl  Cl464  1  0.24630312  0.94863758  0.12458857  1
  Cl  Cl465  1  0.75911759  0.28056785  0.12332260  1
  Cl  Cl466  1  0.74519141  0.60858933  0.11773174  1
  Cl  Cl467  1  0.74639746  0.95088448  0.11427842  1
  Cl  Cl468  1  0.24402300  0.05686091  0.87361032  1
  Cl  Cl469  1  0.24684323  0.38159016  0.87103747  1
  Cl  Cl470  1  0.24394463  0.71885102  0.87106560  1
  Cl  Cl471  1  0.73506489  0.06148505  0.89559302  1
  Cl  Cl472  1  0.74239971  0.39100515  0.88927812  1
  Cl  Cl473  1  0.73942128  0.72105194  0.89133191  1
  Cl  Cl474  1  0.24528761  0.28328972  0.36876029  1
  Cl  Cl475  1  0.25046100  0.61238002  0.38610571  1
  Cl  Cl476  1  0.25158055  0.94585092  0.39354829  1
  Cl  Cl477  1  0.73989935  0.27168500  0.39901871  1
  Cl  Cl478  1  0.74625040  0.61012687  0.38690509  1
  Cl  Cl479  1  0.75014763  0.94928882  0.37782047  1
  Cl  Cl480  1  0.00221775  0.22207168  0.61984103  1
  Cl  Cl481  1  0.00241820  0.56009146  0.61158402  1
  Cl  Cl482  1  0.00092882  0.88590711  0.61448639  1
  Cl  Cl483  1  0.51332753  0.22907299  0.59941722  1
  Cl  Cl484  1  0.50540168  0.56127682  0.60506282  1
  Cl  Cl485  1  0.49808309  0.89006362  0.61040545  1
  Cl  Cl486  1  0.00798636  0.11252971  0.10743318  1
  Cl  Cl487  1  0.00492202  0.44819561  0.11817901  1
  Cl  Cl488  1  0.01104896  0.77833914  0.11400065  1
  Cl  Cl489  1  0.51828862  0.10066492  0.10554919  1
  Cl  Cl490  1  0.50478266  0.43880403  0.10880053  1
  Cl  Cl491  1  0.50596538  0.77894594  0.11784321  1
  Cl  Cl492  1  -0.00517001  0.21783801  0.88667406  1
  Cl  Cl493  1  0.00220962  0.55174326  0.87185942  1
  Cl  Cl494  1  0.01111512  0.88695625  0.88255737  1
  Cl  Cl495  1  0.48871472  0.22150981  0.87298660  1
  Cl  Cl496  1  0.50662862  0.55454137  0.88726591  1
  Cl  Cl497  1  0.50761263  0.88869808  0.88293650  1
  Cl  Cl498  1  0.00071800  0.12026872  0.37205972  1
  Cl  Cl499  1  -0.00830318  0.45213834  0.38140556  1
  Cl  Cl500  1  -0.00414864  0.78004798  0.37777990  1
  Cl  Cl501  1  0.49975519  0.10825888  0.39111803  1
  Cl  Cl502  1  0.48874430  0.44201131  0.38865897  1
  Cl  Cl503  1  0.48773962  0.77731325  0.39738996  1
  Cl  Cl504  1  0.36074123  0.14706916  0.74621164  1
  Cl  Cl505  1  0.35999401  0.47936230  0.74833005  1
  Cl  Cl506  1  0.36384515  0.81174810  0.74661801  1
  Cl  Cl507  1  0.86218333  0.14624193  0.74599554  1
  Cl  Cl508  1  0.86198526  0.48130799  0.74989151  1
  Cl  Cl509  1  0.85912656  0.81348343  0.76132661  1
  Cl  Cl510  1  0.14774447  0.18540691  0.24759848  1
  Cl  Cl511  1  0.14391399  0.51747290  0.25246958  1
  Cl  Cl512  1  0.14195145  0.85246649  0.25754742  1
  Cl  Cl513  1  0.64249412  0.18560956  0.24680020  1
  Cl  Cl514  1  0.63531374  0.51996779  0.25650380  1
  Cl  Cl515  1  0.64500974  0.85365899  0.25187400  1
  Cl  Cl516  1  0.14096906  0.15043006  0.74458867  1
  Cl  Cl517  1  0.13877991  0.47974565  0.74615543  1
  Cl  Cl518  1  0.14093452  0.81567456  0.74466087  1
  Cl  Cl519  1  0.64258984  0.14718347  0.75083835  1
  Cl  Cl520  1  0.64152566  0.48264351  0.74862861  1
  Cl  Cl521  1  0.63994000  0.81560284  0.74800631  1
  Cl  Cl522  1  0.36817348  0.18785942  0.23906781  1
  Cl  Cl523  1  0.36423639  0.52143254  0.24956496  1
  Cl  Cl524  1  0.36162062  0.85278155  0.25039700  1
  Cl  Cl525  1  0.86401870  0.18733175  0.25247602  1
  Cl  Cl526  1  0.85820207  0.51768570  0.24541808  1
  Cl  Cl527  1  0.86591710  0.85621354  0.24714157  1
  Cl  Cl528  1  0.11043503  0.31386596  0.74991672  1
  Cl  Cl529  1  0.11097483  0.64661215  0.74563080  1
  Cl  Cl530  1  0.10818478  0.98193446  0.74900651  1
  Cl  Cl531  1  0.61360117  0.31313856  0.74840991  1
  Cl  Cl532  1  0.60284661  0.64879280  0.74807854  1
  Cl  Cl533  1  0.61012222  0.98261624  0.74528612  1
  Cl  Cl534  1  0.39528158  0.02126956  0.24935206  1
  Cl  Cl535  1  0.39484245  0.35260387  0.24898080  1
  Cl  Cl536  1  0.39403789  0.68811048  0.25198506  1
  Cl  Cl537  1  0.88733540  0.02440741  0.24646294  1
  Cl  Cl538  1  0.88996584  0.35263471  0.25288444  1
  Cl  Cl539  1  0.88615049  0.68686388  0.24840103  1
  Cl  Cl540  1  0.39486559  0.31413878  0.74723446  1
  Cl  Cl541  1  0.38475921  0.64536859  0.75358562  1
  Cl  Cl542  1  0.38657791  0.98030986  0.74942354  1
  Cl  Cl543  1  0.88809603  0.31296310  0.74740105  1
  Cl  Cl544  1  0.88786921  0.64625695  0.75152058  1
  Cl  Cl545  1  0.88604857  0.97954830  0.75430794  1
  Cl  Cl546  1  0.10901771  0.01849861  0.25035177  1
  Cl  Cl547  1  0.10937051  0.35122411  0.24625268  1
  Cl  Cl548  1  0.10712715  0.68278022  0.25409840  1
  Cl  Cl549  1  0.61453395  0.01960203  0.25619776  1
  Cl  Cl550  1  0.61295859  0.35245367  0.25225627  1
  Cl  Cl551  1  0.61306400  0.68814551  0.24985593  1
