# generated using pymatgen
data_H8PbC4(N3Cl2)2
_symmetry_space_group_name_H-M   'P 1'
_cell_length_a   16.62169583
_cell_length_b   22.50122998
_cell_length_c   21.58814192
_cell_angle_alpha   90.00099467
_cell_angle_beta   90.00326818
_cell_angle_gamma   90.00185523
_symmetry_Int_Tables_number   1
_chemical_formula_structural   H8PbC4(N3Cl2)2
_chemical_formula_sum   'H192 Pb24 C96 N144 Cl96'
_cell_volume   8074.15072903
_cell_formula_units_Z   24
loop_
 _symmetry_equiv_pos_site_id
 _symmetry_equiv_pos_as_xyz
  1  'x, y, z'
loop_
 _atom_site_type_symbol
 _atom_site_label
 _atom_site_symmetry_multiplicity
 _atom_site_fract_x
 _atom_site_fract_y
 _atom_site_fract_z
 _atom_site_occupancy
  H  H0  1  -0.00974451  0.03161852  0.68378202  1
  H  H1  1  0.00307612  0.36457719  0.68115917  1
  H  H2  1  0.00359982  0.69849059  0.68181052  1
  H  H3  1  0.50166290  0.03059138  0.68248039  1
  H  H4  1  0.50245744  0.36463783  0.68178248  1
  H  H5  1  0.49421253  0.69993983  0.67827519  1
  H  H6  1  0.00307768  0.30024252  0.18015909  1
  H  H7  1  -0.00720121  0.63509170  0.17894245  1
  H  H8  1  -0.00498929  0.96711361  0.18078526  1
  H  H9  1  0.50333512  0.30015129  0.17998231  1
  H  H10  1  0.50553846  0.63510232  0.17986358  1
  H  H11  1  0.50135562  0.96846056  0.17906385  1
  H  H12  1  0.00487023  0.03218853  0.81958016  1
  H  H13  1  0.00592323  0.36479179  0.81746477  1
  H  H14  1  -0.00502673  0.69871879  0.82037735  1
  H  H15  1  0.49895612  0.03070024  0.81929528  1
  H  H16  1  0.49152116  0.36759379  0.82018066  1
  H  H17  1  0.50086809  0.69941296  0.82020063  1
  H  H18  1  0.00209720  0.30080690  0.31890417  1
  H  H19  1  -0.00426423  0.63357505  0.32025832  1
  H  H20  1  0.00032611  0.96796280  0.31870339  1
  H  H21  1  0.50275301  0.30134980  0.31910702  1
  H  H22  1  0.50318127  0.63456159  0.32053712  1
  H  H23  1  0.50219982  0.96704192  0.31860010  1
  H  H24  1  0.24784319  0.19905082  0.67979633  1
  H  H25  1  0.25234965  0.53234907  0.67935658  1
  H  H26  1  0.25515079  0.86561360  0.68289347  1
  H  H27  1  0.74790246  0.19857495  0.68317318  1
  H  H28  1  0.74516109  0.53274493  0.68012259  1
  H  H29  1  0.75066090  0.86407123  0.67946760  1
  H  H30  1  0.24674733  0.13452409  0.18287864  1
  H  H31  1  0.24720051  0.46755311  0.18064497  1
  H  H32  1  0.25514273  0.80084175  0.18054850  1
  H  H33  1  0.74984305  0.13455408  0.17876425  1
  H  H34  1  0.75750029  0.46941968  0.17708613  1
  H  H35  1  0.74806282  0.79910512  0.17661101  1
  H  H36  1  0.24744347  0.19924235  0.82001331  1
  H  H37  1  0.25278512  0.53376516  0.81954435  1
  H  H38  1  0.25250093  0.86556451  0.81987969  1
  H  H39  1  0.74696016  0.19825912  0.82062628  1
  H  H40  1  0.75001890  0.53268452  0.82092491  1
  H  H41  1  0.75067240  0.86399644  0.81880534  1
  H  H42  1  0.25566741  0.13495206  0.31687665  1
  H  H43  1  0.24942519  0.46891553  0.32109132  1
  H  H44  1  0.24589545  0.80080360  0.31848130  1
  H  H45  1  0.74621432  0.13390183  0.31594860  1
  H  H46  1  0.74992408  0.46829610  0.32052186  1
  H  H47  1  0.75771303  0.80084568  0.31899503  1
  H  H48  1  0.12699645  0.05074930  0.62360268  1
  H  H49  1  0.12381677  0.38866344  0.60773941  1
  H  H50  1  0.12204840  0.72014945  0.60552190  1
  H  H51  1  0.62559199  0.05500097  0.61086955  1
  H  H52  1  0.62340615  0.38806958  0.60812109  1
  H  H53  1  0.62489745  0.72042379  0.61326368  1
  H  H54  1  0.36970109  0.27983972  0.11779945  1
  H  H55  1  0.37506546  0.61370132  0.11492479  1
  H  H56  1  0.37713824  0.94563461  0.10910882  1
  H  H57  1  0.86948340  0.27951220  0.11828137  1
  H  H58  1  0.87900374  0.61193451  0.09893692  1
  H  H59  1  0.87840232  0.94350205  0.10421067  1
  H  H60  1  0.37660648  0.05473397  0.89208891  1
  H  H61  1  0.38627891  0.39144233  0.90380631  1
  H  H62  1  0.38249625  0.72097707  0.89413949  1
  H  H63  1  0.86960313  0.05296901  0.88010117  1
  H  H64  1  0.87725023  0.38652667  0.88384931  1
  H  H65  1  0.88055298  0.72211910  0.90103892  1
  H  H66  1  0.12615577  0.27987264  0.39014638  1
  H  H67  1  0.12298913  0.61230943  0.38946835  1
  H  H68  1  0.12296236  0.94538451  0.39027378  1
  H  H69  1  0.62387990  0.27862159  0.39201040  1
  H  H70  1  0.61866834  0.60885393  0.39873877  1
  H  H71  1  0.62692019  0.94476553  0.39061399  1
  H  H72  1  0.37604172  0.22070788  0.61122224  1
  H  H73  1  0.37579673  0.55660745  0.60811127  1
  H  H74  1  0.37342713  0.88653061  0.60862823  1
  H  H75  1  0.87290614  0.22057566  0.61176045  1
  H  H76  1  0.87907172  0.55239411  0.61737097  1
  H  H77  1  0.87541575  0.88656714  0.61029091  1
  H  H78  1  0.12911736  0.11276866  0.10742237  1
  H  H79  1  0.12580805  0.44384319  0.10727064  1
  H  H80  1  0.12030445  0.78138618  0.11877253  1
  H  H81  1  0.62859624  0.11046818  0.10688306  1
  H  H82  1  0.61958136  0.45234291  0.11942559  1
  H  H83  1  0.62255835  0.77984548  0.10847116  1
  H  H84  1  0.13231134  0.22333821  0.89883506  1
  H  H85  1  0.12280755  0.55324671  0.88503614  1
  H  H86  1  0.12112944  0.88617225  0.88309459  1
  H  H87  1  0.63217082  0.22367066  0.89926821  1
  H  H88  1  0.62348834  0.55461161  0.89039515  1
  H  H89  1  0.62221795  0.88525519  0.88870727  1
  H  H90  1  0.37073753  0.11228032  0.39408822  1
  H  H91  1  0.37531223  0.44679326  0.39076284  1
  H  H92  1  0.37697340  0.77951852  0.38504929  1
  H  H93  1  0.87497646  0.11466123  0.38135912  1
  H  H94  1  0.87580162  0.44643168  0.39006938  1
  H  H95  1  0.87249651  0.77606895  0.39976050  1
  H  H96  1  0.37499240  0.27980096  0.38745651  1
  H  H97  1  0.37020029  0.61445935  0.38287298  1
  H  H98  1  0.37838366  0.94540446  0.39063345  1
  H  H99  1  0.87682532  0.28093640  0.38680269  1
  H  H100  1  0.87400129  0.61057423  0.39335766  1
  H  H101  1  0.87323447  0.94606534  0.38791587  1
  H  H102  1  0.11798800  0.05631722  0.89850859  1
  H  H103  1  0.12712194  0.38985846  0.89151302  1
  H  H104  1  0.12853857  0.72002105  0.88505772  1
  H  H105  1  0.62476847  0.05459325  0.88942929  1
  H  H106  1  0.63215647  0.38380848  0.87278846  1
  H  H107  1  0.63185697  0.71771493  0.88573003  1
  H  H108  1  0.11787046  0.27608979  0.10111928  1
  H  H109  1  0.12644009  0.61371817  0.11597554  1
  H  H110  1  0.12745783  0.94674444  0.11673960  1
  H  H111  1  0.61811282  0.27580180  0.10103886  1
  H  H112  1  0.62365700  0.61322561  0.10239842  1
  H  H113  1  0.62645104  0.94517283  0.10892403  1
  H  H114  1  0.37578380  0.05257546  0.61395056  1
  H  H115  1  0.37452189  0.38821157  0.61407579  1
  H  H116  1  0.37623002  0.72275579  0.60250902  1
  H  H117  1  0.87958682  0.05600239  0.60242244  1
  H  H118  1  0.87493765  0.38707203  0.61287951  1
  H  H119  1  0.87290044  0.71960365  0.61477550  1
  H  H120  1  0.12226343  0.11658747  0.37737325  1
  H  H121  1  0.12632298  0.44610662  0.39173309  1
  H  H122  1  0.12805498  0.77787564  0.39535541  1
  H  H123  1  0.62522268  0.11296949  0.38886768  1
  H  H124  1  0.62665800  0.44508076  0.39122012  1
  H  H125  1  0.62500760  0.78025774  0.38382384  1
  H  H126  1  0.38069671  0.22073624  0.88214305  1
  H  H127  1  0.37223999  0.55509931  0.89249095  1
  H  H128  1  0.36991236  0.88825589  0.89451935  1
  H  H129  1  0.88047495  0.21949570  0.88231577  1
  H  H130  1  0.87264575  0.55591063  0.89281416  1
  H  H131  1  0.87063703  0.88737482  0.89445281  1
  H  H132  1  0.37801933  0.11525301  0.12010073  1
  H  H133  1  0.37410572  0.44760358  0.11203680  1
  H  H134  1  0.36922881  0.77842156  0.10218801  1
  H  H135  1  0.87729639  0.11350092  0.10961455  1
  H  H136  1  0.86488117  0.43969125  0.09488557  1
  H  H137  1  0.87155524  0.77985969  0.10707267  1
  H  H138  1  0.12764549  0.22263240  0.60494391  1
  H  H139  1  0.12681107  0.55361518  0.60873356  1
  H  H140  1  0.12434699  0.88533431  0.61816398  1
  H  H141  1  0.62372102  0.22133104  0.61196769  1
  H  H142  1  0.63131091  0.55828604  0.59941830  1
  H  H143  1  0.62658160  0.88725457  0.60784669  1
  H  H144  1  0.94932205  0.08216540  0.49640161  1
  H  H145  1  0.55405149  0.58381344  0.50248716  1
  H  H146  1  0.57188926  0.06967919  0.50278630  1
  H  H147  1  0.57854820  0.91415608  0.00489632  1
  H  H148  1  0.57063335  0.41580827  0.50001933  1
  H  H149  1  0.32022591  0.91414923  0.49837179  1
  H  H150  1  0.18420421  0.08566591  -0.00221910  1
  H  H151  1  0.09572530  0.91814945  0.00977277  1
  H  H152  1  0.05246276  0.24863735  -0.00187552  1
  H  H153  1  0.33055936  0.24918008  0.50596155  1
  H  H154  1  0.64085625  0.41831047  0.00999167  1
  H  H155  1  0.19742088  0.24826705  1.00262853  1
  H  H156  1  0.31691746  0.91739258  1.00343510  1
  H  H157  1  0.31079098  0.08828893  0.50428692  1
  H  H158  1  0.34597546  0.08650170  0.00765257  1
  H  H159  1  0.67260790  0.24972184  0.50277472  1
  H  H160  1  0.91963643  0.25180034  0.49942155  1
  H  H161  1  0.42272740  0.07569453  0.50013295  1
  H  H162  1  0.91620453  0.91713661  0.49288762  1
  H  H163  1  0.67826372  0.09385075  0.50235345  1
  H  H164  1  0.78990096  0.42613259  -0.00712453  1
  H  H165  1  0.83560763  0.09040330  0.49611698  1
  H  H166  1  0.57602126  0.08152418  0.99464732  1
  H  H167  1  0.32447814  0.40636832  0.01253781  1
  H  H168  1  0.09298797  0.58647529  0.00942633  1
  H  H169  1  0.69741734  0.24890386  1.00274943  1
  H  H170  1  0.58619444  0.74937654  0.50649198  1
  H  H171  1  0.07065030  0.40558148  0.99855605  1
  H  H172  1  0.18517295  0.44225178  0.00101090  1
  H  H173  1  0.07121653  0.41711988  0.49983351  1
  H  H174  1  0.82964239  0.41822709  0.49528542  1
  H  H175  1  0.55279990  0.25083841  -0.00261318  1
  H  H176  1  0.32266751  0.58373205  1.00262232  1
  H  H177  1  0.15088742  0.08818827  0.49069893  1
  H  H178  1  0.70035708  0.58329960  0.49768979  1
  H  H179  1  0.07713988  0.91702890  0.49971103  1
  H  H180  1  0.45872677  0.41892142  1.00953691  1
  H  H181  1  0.15247512  0.75239742  0.01142402  1
  H  H182  1  0.18852962  0.75037959  0.50318744  1
  H  H183  1  0.06225647  0.74565930  0.49667746  1
  H  H184  1  0.91828125  0.41270428  0.99626792  1
  H  H185  1  0.43726681  0.74805216  1.00557553  1
  H  H186  1  0.89978106  0.08102218  0.98749110  1
  H  H187  1  0.32928225  0.41825404  0.49570256  1
  H  H188  1  0.57582952  0.91476985  0.49408471  1
  H  H189  1  0.93556613  0.91283244  -0.00299783  1
  H  H190  1  0.30744973  0.75154042  -0.00635789  1
  H  H191  1  0.05510948  0.08195729  1.00658791  1
  Pb  Pb192  1  0.25140686  0.04558157  0.75403514  1
  Pb  Pb193  1  0.25100502  0.38472878  0.75351883  1
  Pb  Pb194  1  0.24895111  0.71450283  0.75039265  1
  Pb  Pb195  1  0.74756657  0.04778130  0.74567044  1
  Pb  Pb196  1  0.75360378  0.38121109  0.74759921  1
  Pb  Pb197  1  0.75124754  0.71120146  0.75096833  1
  Pb  Pb198  1  0.25043836  0.28643809  0.24834967  1
  Pb  Pb199  1  0.24859733  0.62107901  0.25033281  1
  Pb  Pb200  1  0.25052093  0.95118508  0.25107706  1
  Pb  Pb201  1  0.74731602  0.28724357  0.24768000  1
  Pb  Pb202  1  0.75073558  0.62056487  0.25237871  1
  Pb  Pb203  1  0.75190932  0.95267377  0.24886713  1
  Pb  Pb204  1  0.00351939  0.21354296  0.75178676  1
  Pb  Pb205  1  0.00061012  0.54776442  0.75138943  1
  Pb  Pb206  1  -0.00493216  0.88112419  0.74990266  1
  Pb  Pb207  1  0.49963309  0.21520419  0.75388859  1
  Pb  Pb208  1  0.50281521  0.54903803  0.74466546  1
  Pb  Pb209  1  0.50111975  0.87809010  0.75033031  1
  Pb  Pb210  1  -0.00030613  0.12030998  0.24516389  1
  Pb  Pb211  1  -0.00087729  0.45350900  0.24585942  1
  Pb  Pb212  1  -0.00248869  0.78640428  0.25537971  1
  Pb  Pb213  1  0.50278229  0.11786966  0.25281476  1
  Pb  Pb214  1  0.49845200  0.45555441  0.25288612  1
  Pb  Pb215  1  0.50282201  0.78529751  0.25031433  1
  C  C216  1  -0.00074355  0.04602666  0.63628942  1
  C  C217  1  0.00040925  0.37980556  0.63357178  1
  C  C218  1  -0.00058382  0.71302406  0.63404346  1
  C  C219  1  0.50163879  0.04570013  0.63462909  1
  C  C220  1  0.49999007  0.38012077  0.63427119  1
  C  C221  1  0.49884044  0.71453923  0.63061503  1
  C  C222  1  -0.00310357  0.28588069  0.13255921  1
  C  C223  1  -0.00014639  0.62018271  0.13150549  1
  C  C224  1  0.00087958  0.95260982  0.13288645  1
  C  C225  1  0.49713079  0.28600301  0.13229526  1
  C  C226  1  0.50158863  0.62070715  0.13219525  1
  C  C227  1  0.50203523  0.95320436  0.13151173  1
  C  C228  1  -0.00306337  0.04739409  0.86699196  1
  C  C229  1  0.00401715  0.37962390  0.86538799  1
  C  C230  1  0.00152020  0.71315752  0.86811358  1
  C  C231  1  0.50049190  0.04641633  0.86674676  1
  C  C232  1  0.50337985  0.38069564  0.86780323  1
  C  C233  1  0.50476767  0.71304079  0.86819685  1
  C  C234  1  0.00115548  0.28684192  0.36689043  1
  C  C235  1  -0.00223842  0.61901161  0.36791724  1
  C  C236  1  -0.00159020  0.95271569  0.36650036  1
  C  C237  1  0.50024472  0.28637351  0.36655879  1
  C  C238  1  0.49757922  0.62025691  0.36819465  1
  C  C239  1  0.50284118  0.95214681  0.36639044  1
  C  C240  1  0.25082138  0.21431527  0.63217892  1
  C  C241  1  0.25156028  0.54726204  0.63184520  1
  C  C242  1  0.25129013  0.87947184  0.63494781  1
  C  C243  1  0.74825962  0.21359866  0.63540759  1
  C  C244  1  0.75145117  0.54707796  0.63240161  1
  C  C245  1  0.75066909  0.87932112  0.63211064  1
  C  C246  1  0.25156145  0.12029969  0.13495662  1
  C  C247  1  0.24890192  0.45292615  0.13257967  1
  C  C248  1  0.24756491  0.78609094  0.13289218  1
  C  C249  1  0.75229757  0.11948821  0.13134886  1
  C  C250  1  0.74714855  0.45395061  0.12999448  1
  C  C251  1  0.74733861  0.78572439  0.12816131  1
  C  C252  1  0.25338749  0.21368328  0.86764271  1
  C  C253  1  0.24963565  0.54743594  0.86758619  1
  C  C254  1  0.24806957  0.87995027  0.86764731  1
  C  C255  1  0.75313390  0.21305350  0.86808718  1
  C  C256  1  0.74851828  0.54751510  0.86848348  1
  C  C257  1  0.74771680  0.87817656  0.86683241  1
  C  C258  1  0.24927056  0.12109231  0.36481849  1
  C  C259  1  0.25075748  0.45368535  0.36863821  1
  C  C260  1  0.25046840  0.78614494  0.36625343  1
  C  C261  1  0.74889154  0.11996146  0.36407480  1
  C  C262  1  0.75120214  0.45332999  0.36813546  1
  C  C263  1  0.75197548  0.78624971  0.36671923  1
  C  C264  1  0.78617592  0.76189558  0.03539799  1
  C  C265  1  0.56799148  0.40284939  0.95446151  1
  C  C266  1  0.53274911  0.40597105  0.54016722  1
  C  C267  1  0.30173880  0.09620697  0.04338182  1
  C  C268  1  0.94242076  0.25938343  0.04247583  1
  C  C269  1  0.80743516  0.24081230  0.95778885  1
  C  C270  1  0.27551940  0.76093118  0.03661471  1
  C  C271  1  0.04155389  0.26164852  0.46058143  1
  C  C272  1  0.45864898  0.07154630  0.54201042  1
  C  C273  1  0.20203324  0.90342790  0.54347265  1
  C  C274  1  0.02845018  0.73752028  0.53896544  1
  C  C275  1  0.44280092  0.25957249  0.04212663  1
  C  C276  1  0.71042028  0.42481879  0.46173020  1
  C  C277  1  0.71734958  0.09087144  0.03787709  1
  C  C278  1  0.45999688  0.92470090  0.03822245  1
  C  C279  1  0.79523238  0.09828701  0.45733703  1
  C  C280  1  0.22214012  0.76081433  0.46130556  1
  C  C281  1  0.96368733  0.59198299  0.46135131  1
  C  C282  1  0.20999529  0.42579327  0.46245371  1
  C  C283  1  0.79000042  0.90716902  0.53970206  1
  C  C284  1  0.55430306  0.73720870  0.95967267  1
  C  C285  1  0.28765804  0.57564934  0.53926851  1
  C  C286  1  0.27759217  0.09690407  0.46177678  1
  C  C287  1  0.45603239  0.59394230  0.04140578  1
  C  C288  1  0.95794545  0.40531385  0.95692876  1
  C  C289  1  0.46487447  0.74203272  0.53516447  1
  C  C290  1  0.53457147  0.25858234  0.46024525  1
  C  C291  1  0.19596576  0.09788825  0.45557004  1
  C  C292  1  0.21980014  0.09545497  0.03876530  1
  C  C293  1  0.97042665  0.92506350  0.03777759  1
  C  C294  1  0.03318912  0.40609937  0.53958435  1
  C  C295  1  0.71184994  0.23927789  0.54209354  1
  C  C296  1  0.48781329  0.40643691  0.96621813  1
  C  C297  1  0.71325858  0.09852663  0.46009640  1
  C  C298  1  0.03714405  0.92714068  0.46047630  1
  C  C299  1  0.95999146  0.26168494  0.46118966  1
  C  C300  1  0.28295123  0.57328899  0.96346329  1
  C  C301  1  0.27868679  0.90633769  0.96385839  1
  C  C302  1  0.78369493  0.57596356  0.96110783  1
  C  C303  1  0.70598179  0.76189974  0.03597643  1
  C  C304  1  0.44390057  0.59318085  0.45818682  1
  C  C305  1  0.30741617  0.24099833  0.95762390  1
  C  C306  1  0.47294289  0.73827050  0.96457260  1
  C  C307  1  0.19682855  0.90505553  0.95871985  1
  C  C308  1  0.28330856  0.90431750  0.53859114  1
  C  C309  1  0.20109834  0.57247587  0.95929951  1
  C  C310  1  0.02355460  0.07304230  0.96336336  1
  C  C311  1  0.97874228  0.07195562  0.54018442  1
  N  N312  1  0.68883246  0.43251046  0.04300113  1
  N  N313  1  0.95371668  0.40536271  0.54063893  1
  N  N314  1  0.78964567  0.42616021  0.46022408  1
  N  N315  1  0.45994051  0.07328788  0.95998446  1
  N  N316  1  0.45328334  0.40656139  0.54164539  1
  N  N317  1  0.72867408  0.24156052  0.96245046  1
  N  N318  1  0.54379052  0.74046229  0.53976304  1
  N  N319  1  0.04992579  0.92715525  0.04296393  1
  N  N320  1  0.02120281  0.25905345  0.03764949  1
  N  N321  1  0.52156327  0.25885469  0.03752295  1
  N  N322  1  0.05725622  0.07017409  0.54726602  1
  N  N323  1  0.95734659  0.92778600  0.45867622  1
  N  N324  1  0.94945749  0.73873836  0.54237187  1
  N  N325  1  0.80653556  0.57159670  0.54298123  1
  N  N326  1  0.29269836  0.43544264  0.03961086  1
  N  N327  1  0.19646911  0.76135035  0.04388629  1
  N  N328  1  0.53898576  0.92865976  0.45877753  1
  N  N329  1  0.21339973  0.24016338  0.53769217  1
  N  N330  1  0.76621304  0.42101030  0.03656563  1
  N  N331  1  0.53329195  0.59349470  0.03612000  1
  N  N332  1  0.70481425  0.90378882  0.95966853  1
  N  N333  1  0.53844080  0.07428040  0.54224438  1
  N  N334  1  0.79132034  0.23861144  0.54154080  1
  N  N335  1  0.04100715  0.59232981  0.46142971  1
  N  N336  1  0.28923334  0.42623292  0.46069037  1
  N  N337  1  0.70223145  0.76085408  0.45759490  1
  N  N338  1  0.22863915  0.24096848  0.96233377  1
  N  N339  1  0.05093744  0.73903207  0.95884177  1
  N  N340  1  0.04853724  0.59442424  0.04312212  1
  N  N341  1  0.21037443  0.57472688  0.53808324  1
  N  N342  1  0.21228206  0.42557792  0.04001597  1
  N  N343  1  0.46054348  0.92779844  0.46007575  1
  N  N344  1  0.03772049  0.40737366  0.95859841  1
  N  N345  1  0.94455094  0.07228032  0.95560775  1
  N  N346  1  0.71198658  0.90809945  0.53785019  1
  N  N347  1  0.72889346  0.57397268  0.53862170  1
  N  N348  1  0.78142696  0.90460243  0.96166958  1
  N  N349  1  0.53813289  0.07308970  0.95808004  1
  N  N350  1  0.97470803  0.74012055  0.96402137  1
  N  N351  1  0.29150352  0.23866599  0.54114917  1
  N  N352  1  0.52262884  0.59209433  0.46250434  1
  N  N353  1  0.77844648  0.75893869  0.46266442  1
  N  N354  1  0.30117724  0.76160136  0.45803575  1
  N  N355  1  0.79534423  0.09215898  0.03789754  1
  N  N356  1  0.70636273  0.57508482  0.96185922  1
  N  N357  1  0.97069940  0.59377329  0.03557660  1
  N  N358  1  0.45653924  0.25882538  0.45975114  1
  N  N359  1  0.53922261  0.92491707  0.03953524  1
  N  N360  1  0.06838962  0.05403242  0.60724710  1
  N  N361  1  0.06310213  0.39051854  0.59621328  1
  N  N362  1  0.06091760  0.72254859  0.59505453  1
  N  N363  1  0.56486618  0.05427969  0.59872200  1
  N  N364  1  0.56270972  0.39026156  0.59674646  1
  N  N365  1  0.56533583  0.72368094  0.59875858  1
  N  N366  1  0.42750298  0.27597236  0.10096455  1
  N  N367  1  0.43396425  0.61025448  0.09954337  1
  N  N368  1  0.43687969  0.94229152  0.09518699  1
  N  N369  1  0.92722649  0.27590403  0.10127182  1
  N  N370  1  0.94076676  0.60965602  0.09113890  1
  N  N371  1  0.93954973  0.94108760  0.09354457  1
  N  N372  1  0.43721004  0.05711683  0.90292464  1
  N  N373  1  0.44814359  0.39215131  0.91096866  1
  N  N374  1  0.44293191  0.72324167  0.90626920  1
  N  N375  1  0.92844237  0.05675040  0.89630357  1
  N  N376  1  0.93697878  0.38993561  0.89879995  1
  N  N377  1  0.94274572  0.72411666  0.90806987  1
  N  N378  1  0.06613709  0.27665716  0.40367596  1
  N  N379  1  0.06246930  0.60938296  0.40195855  1
  N  N380  1  0.06274301  0.94269919  0.40319362  1
  N  N381  1  0.56338271  0.27515890  0.40397019  1
  N  N382  1  0.55692274  0.61044765  0.40773789  1
  N  N383  1  0.56607214  0.94151371  0.40177519  1
  N  N384  1  0.31583337  0.22386812  0.59836046  1
  N  N385  1  0.31593686  0.55899417  0.59575114  1
  N  N386  1  0.31299286  0.88932921  0.59678959  1
  N  N387  1  0.81215503  0.22274026  0.60001640  1
  N  N388  1  0.82013097  0.55597230  0.60201102  1
  N  N389  1  0.81571877  0.89008789  0.59671706  1
  N  N390  1  0.18991142  0.11045549  0.09622859  1
  N  N391  1  0.18620484  0.44753973  0.09518586  1
  N  N392  1  0.17944923  0.77633872  0.10320576  1
  N  N393  1  0.68902615  0.10760685  0.09426265  1
  N  N394  1  0.67698454  0.44438207  0.10282406  1
  N  N395  1  0.68133202  0.77624262  0.09269370  1
  N  N396  1  0.19423591  0.22277190  0.90748088  1
  N  N397  1  0.18182390  0.55703291  0.90100469  1
  N  N398  1  0.17941373  0.88940040  0.90007824  1
  N  N399  1  0.69408319  0.22307026  0.90778176  1
  N  N400  1  0.68409402  0.55717251  0.90287666  1
  N  N401  1  0.68280334  0.88732903  0.90095707  1
  N  N402  1  0.30969691  0.11125231  0.40469733  1
  N  N403  1  0.31496224  0.44355116  0.40290045  1
  N  N404  1  0.31698149  0.77718877  0.39878361  1
  N  N405  1  0.81600463  0.11159164  0.39747099  1
  N  N406  1  0.81541386  0.44423493  0.40270846  1
  N  N407  1  0.81066890  0.77456360  0.40651930  1
  N  N408  1  0.43534805  0.27621143  0.40011264  1
  N  N409  1  0.42826267  0.61006598  0.39969708  1
  N  N410  1  0.43893011  0.94336120  0.40245620  1
  N  N411  1  0.93597114  0.27747271  0.40161854  1
  N  N412  1  0.93411154  0.60806942  0.40513171  1
  N  N413  1  0.93375385  0.94295160  0.40053761  1
  N  N414  1  0.05655832  0.05793701  0.90817292  1
  N  N415  1  0.06612285  0.38762789  0.90282523  1
  N  N416  1  0.06887375  0.72233048  0.89929843  1
  N  N417  1  0.56418625  0.05635390  0.90172524  1
  N  N418  1  0.57675296  0.38754315  0.89441283  1
  N  N419  1  0.57296477  0.72203395  0.90148773  1
  N  N420  1  0.05589888  0.27586098  0.09282370  1
  N  N421  1  0.06736876  0.61016539  0.10108157  1
  N  N422  1  0.06804817  0.94434672  0.10145599  1
  N  N423  1  0.55616588  0.27652238  0.09246495  1
  N  N424  1  0.56202072  0.61077258  0.09378114  1
  N  N425  1  0.56582512  0.94255083  0.09693677  1
  N  N426  1  0.43559942  0.05603270  0.59959059  1
  N  N427  1  0.43482077  0.39034677  0.60080039  1
  N  N428  1  0.43674010  0.72587654  0.59117382  1
  N  N429  1  0.94143029  0.05736529  0.59448026  1
  N  N430  1  0.93522494  0.38899844  0.59975782  1
  N  N431  1  0.93309531  0.72330863  0.60158804  1
  N  N432  1  0.17995766  0.11285545  0.39534128  1
  N  N433  1  0.18608929  0.44258761  0.40540603  1
  N  N434  1  0.18928473  0.77569147  0.40531039  1
  N  N435  1  0.68552692  0.11164474  0.40164016  1
  N  N436  1  0.68651731  0.44152061  0.40466122  1
  N  N437  1  0.68463446  0.77775315  0.39816837  1
  N  N438  1  0.32284598  0.22463393  0.89882979  1
  N  N439  1  0.31182337  0.55744086  0.90511940  1
  N  N440  1  0.30922756  0.89036510  0.90601797  1
  N  N441  1  0.82271296  0.22373363  0.89914443  1
  N  N442  1  0.81250350  0.55899084  0.90504174  1
  N  N443  1  0.80922078  0.88852902  0.90437668  1
  N  N444  1  0.31989009  0.11144140  0.10331296  1
  N  N445  1  0.31397830  0.44071614  0.09967054  1
  N  N446  1  0.30761702  0.77598008  0.09203564  1
  N  N447  1  0.81697440  0.11009725  0.09735817  1
  N  N448  1  0.80319461  0.44313679  0.08773965  1
  N  N449  1  0.81234997  0.77621556  0.09159606  1
  N  N450  1  0.18864015  0.22468218  0.59471813  1
  N  N451  1  0.18760932  0.55684661  0.59695991  1
  N  N452  1  0.18301828  0.88856669  0.60180548  1
  N  N453  1  0.68406532  0.22418442  0.59949655  1
  N  N454  1  0.69338532  0.55746702  0.59196588  1
  N  N455  1  0.68759751  0.89042695  0.59685041  1
  Cl  Cl456  1  0.25373197  0.05374895  0.62058788  1
  Cl  Cl457  1  0.25013930  0.38885418  0.61787447  1
  Cl  Cl458  1  0.24783823  0.72027789  0.61732454  1
  Cl  Cl459  1  0.75231646  0.05540349  0.61021373  1
  Cl  Cl460  1  0.74984968  0.38939077  0.61381212  1
  Cl  Cl461  1  0.74794110  0.71706732  0.61920551  1
  Cl  Cl462  1  0.23951891  0.27802140  0.10581884  1
  Cl  Cl463  1  0.25022103  0.61353516  0.11508023  1
  Cl  Cl464  1  0.25203118  0.94560110  0.11750229  1
  Cl  Cl465  1  0.73941593  0.27587274  0.10675358  1
  Cl  Cl466  1  0.75285672  0.61389614  0.11988998  1
  Cl  Cl467  1  0.75092389  0.94884954  0.11778525  1
  Cl  Cl468  1  0.24709876  0.05599819  0.88793969  1
  Cl  Cl469  1  0.25396022  0.39199107  0.89757963  1
  Cl  Cl470  1  0.25392890  0.72307677  0.88714467  1
  Cl  Cl471  1  0.74573565  0.05426226  0.87896479  1
  Cl  Cl472  1  0.75870068  0.38980712  0.88781480  1
  Cl  Cl473  1  0.75841759  0.71659156  0.88352037  1
  Cl  Cl474  1  0.25131544  0.28287136  0.38126538  1
  Cl  Cl475  1  0.24606694  0.61434967  0.37836953  1
  Cl  Cl476  1  0.25152668  0.94627593  0.38334937  1
  Cl  Cl477  1  0.74657675  0.28348006  0.37957781  1
  Cl  Cl478  1  0.74122689  0.60580737  0.39159451  1
  Cl  Cl479  1  0.74991254  0.94802960  0.38287504  1
  Cl  Cl480  1  0.00038872  0.22018230  0.61920931  1
  Cl  Cl481  1  0.00342744  0.55049801  0.62089463  1
  Cl  Cl482  1  -0.00150863  0.88854449  0.61501168  1
  Cl  Cl483  1  0.49904618  0.21737627  0.62168049  1
  Cl  Cl484  1  0.50955167  0.56007118  0.60453500  1
  Cl  Cl485  1  0.50287959  0.88545614  0.61562266  1
  Cl  Cl486  1  0.00291268  0.11308228  0.10866208  1
  Cl  Cl487  1  -0.00219264  0.43781028  0.10250353  1
  Cl  Cl488  1  -0.00222458  0.78464165  0.12361304  1
  Cl  Cl489  1  0.50669891  0.11424294  0.11842583  1
  Cl  Cl490  1  0.49404816  0.44872063  0.11680772  1
  Cl  Cl491  1  0.49130528  0.78311747  0.11746497  1
  Cl  Cl492  1  0.01081136  0.22330943  0.89447500  1
  Cl  Cl493  1  -0.00138392  0.55002987  0.88392057  1
  Cl  Cl494  1  -0.00581361  0.89051729  0.88571295  1
  Cl  Cl495  1  0.51061142  0.22386013  0.89435533  1
  Cl  Cl496  1  0.49870069  0.55225576  0.87490085  1
  Cl  Cl497  1  0.49905446  0.88892229  0.88636077  1
  Cl  Cl498  1  -0.00269075  0.11338776  0.37733515  1
  Cl  Cl499  1  0.00032976  0.44693431  0.37876365  1
  Cl  Cl500  1  0.00168784  0.77965174  0.39034239  1
  Cl  Cl501  1  0.49859976  0.10900730  0.38982424  1
  Cl  Cl502  1  0.50141119  0.44906882  0.38570321  1
  Cl  Cl503  1  0.50196859  0.77788942  0.38619525  1
  Cl  Cl504  1  0.36420053  0.14585923  0.75278503  1
  Cl  Cl505  1  0.36131694  0.47517747  0.74766243  1
  Cl  Cl506  1  0.36261936  0.81115903  0.75091480  1
  Cl  Cl507  1  0.86326530  0.14521094  0.75348295  1
  Cl  Cl508  1  0.86170430  0.47618171  0.74843732  1
  Cl  Cl509  1  0.86304696  0.81099220  0.74735622  1
  Cl  Cl510  1  0.13581494  0.18862786  0.25071871  1
  Cl  Cl511  1  0.13722175  0.52038499  0.24623834  1
  Cl  Cl512  1  0.13874272  0.85787983  0.24678752  1
  Cl  Cl513  1  0.63765496  0.18935583  0.24988212  1
  Cl  Cl514  1  0.63687309  0.52073879  0.24847437  1
  Cl  Cl515  1  0.63542236  0.85586875  0.25009424  1
  Cl  Cl516  1  0.13831655  0.14494696  0.74891414  1
  Cl  Cl517  1  0.13985301  0.47542097  0.75392603  1
  Cl  Cl518  1  0.14000900  0.81034552  0.75138856  1
  Cl  Cl519  1  0.63862640  0.14280718  0.74906461  1
  Cl  Cl520  1  0.63768854  0.47634694  0.75225371  1
  Cl  Cl521  1  0.63703315  0.81016980  0.74965884  1
  Cl  Cl522  1  0.35898473  0.19006935  0.24715985  1
  Cl  Cl523  1  0.36082376  0.52131736  0.24920079  1
  Cl  Cl524  1  0.35888782  0.85723634  0.25256419  1
  Cl  Cl525  1  0.86243590  0.18910817  0.24721777  1
  Cl  Cl526  1  0.86100093  0.52009687  0.24924328  1
  Cl  Cl527  1  0.86193091  0.85619070  0.24950242  1
  Cl  Cl528  1  0.11018391  0.31023526  0.75334842  1
  Cl  Cl529  1  0.11303268  0.64270473  0.75490896  1
  Cl  Cl530  1  0.11405769  0.97758050  0.74906968  1
  Cl  Cl531  1  0.61419566  0.31083998  0.75430786  1
  Cl  Cl532  1  0.61150921  0.64331144  0.74788203  1
  Cl  Cl533  1  0.61263536  0.97894259  0.74904838  1
  Cl  Cl534  1  0.38898249  0.02246592  0.24947351  1
  Cl  Cl535  1  0.38613994  0.35507790  0.24702573  1
  Cl  Cl536  1  0.38413956  0.68897940  0.25182107  1
  Cl  Cl537  1  0.88769425  0.02164675  0.25118663  1
  Cl  Cl538  1  0.88607649  0.35472535  0.24559131  1
  Cl  Cl539  1  0.88979886  0.68717573  0.25040259  1
  Cl  Cl540  1  0.39161557  0.31006130  0.75124221  1
  Cl  Cl541  1  0.38889470  0.64329429  0.74813651  1
  Cl  Cl542  1  0.38951588  0.97890382  0.75136566  1
  Cl  Cl543  1  0.88750483  0.31123970  0.75059158  1
  Cl  Cl544  1  0.88869417  0.64260957  0.74623708  1
  Cl  Cl545  1  0.89148706  0.97828566  0.75282100  1
  Cl  Cl546  1  0.11142101  0.02249165  0.24742019  1
  Cl  Cl547  1  0.11212771  0.35559171  0.24765389  1
  Cl  Cl548  1  0.11375434  0.68949930  0.24742109  1
  Cl  Cl549  1  0.61083995  0.02446793  0.25203823  1
  Cl  Cl550  1  0.61173514  0.35590562  0.24801304  1
  Cl  Cl551  1  0.60819400  0.68905963  0.25095990  1
