# generated using pymatgen
data_H8PbC4(N3Cl2)2
_symmetry_space_group_name_H-M   'P 1'
_cell_length_a   16.62108150
_cell_length_b   22.50228297
_cell_length_c   21.58953876
_cell_angle_alpha   89.99913311
_cell_angle_beta   90.00309182
_cell_angle_gamma   90.00115802
_symmetry_Int_Tables_number   1
_chemical_formula_structural   H8PbC4(N3Cl2)2
_chemical_formula_sum   'H192 Pb24 C96 N144 Cl96'
_cell_volume   8074.75258132
_cell_formula_units_Z   24
loop_
 _symmetry_equiv_pos_site_id
 _symmetry_equiv_pos_as_xyz
  1  'x, y, z'
loop_
 _atom_site_type_symbol
 _atom_site_label
 _atom_site_symmetry_multiplicity
 _atom_site_fract_x
 _atom_site_fract_y
 _atom_site_fract_z
 _atom_site_occupancy
  H  H0  1  -0.00757316  0.03260817  0.68211250  1
  H  H1  1  -0.00650351  0.36545636  0.68290041  1
  H  H2  1  -0.00205992  0.69717960  0.67834128  1
  H  H3  1  0.49704887  0.03175815  0.68177962  1
  H  H4  1  0.49673732  0.36600971  0.67827543  1
  H  H5  1  0.49907150  0.69677900  0.68160255  1
  H  H6  1  -0.00233361  0.30209557  0.17840631  1
  H  H7  1  -0.00022715  0.63479262  0.18367697  1
  H  H8  1  0.00466907  0.96836600  0.17890193  1
  H  H9  1  0.49564355  0.30076860  0.18180254  1
  H  H10  1  0.50730061  0.63509836  0.17786410  1
  H  H11  1  0.49738756  0.96759555  0.18255891  1
  H  H12  1  -0.00026939  0.03115573  0.82142407  1
  H  H13  1  -0.00578873  0.36659355  0.82337326  1
  H  H14  1  -0.01077378  0.69871170  0.81963041  1
  H  H15  1  0.50603782  0.03214814  0.81767753  1
  H  H16  1  0.49404944  0.36657992  0.82036565  1
  H  H17  1  0.51072357  0.69763711  0.82251715  1
  H  H18  1  -0.00161127  0.30039709  0.32134501  1
  H  H19  1  -0.00556457  0.63428886  0.32133120  1
  H  H20  1  -0.00262371  0.96736776  0.31659449  1
  H  H21  1  0.50580935  0.30194703  0.32007860  1
  H  H22  1  0.49683189  0.63369873  0.32033739  1
  H  H23  1  0.50039551  0.96746315  0.32010734  1
  H  H24  1  0.25536363  0.19801412  0.68013683  1
  H  H25  1  0.25801190  0.53278975  0.68134406  1
  H  H26  1  0.25568728  0.86577801  0.68356598  1
  H  H27  1  0.74196204  0.19915788  0.68177290  1
  H  H28  1  0.74536916  0.53282415  0.67945668  1
  H  H29  1  0.75127133  0.86672908  0.68065945  1
  H  H30  1  0.25073044  0.13609872  0.17961327  1
  H  H31  1  0.25312241  0.46756575  0.18142342  1
  H  H32  1  0.24919541  0.79973684  0.17757091  1
  H  H33  1  0.74888116  0.13576967  0.18187268  1
  H  H34  1  0.75443414  0.46711593  0.17793102  1
  H  H35  1  0.75048652  0.80377949  0.18172556  1
  H  H36  1  0.24192437  0.19919484  0.81941958  1
  H  H37  1  0.24925210  0.53083103  0.82043820  1
  H  H38  1  0.25440056  0.86443762  0.82036749  1
  H  H39  1  0.75363482  0.19759025  0.81861556  1
  H  H40  1  0.74948365  0.53009405  0.81811999  1
  H  H41  1  0.74859857  0.86662323  0.81831805  1
  H  H42  1  0.25092214  0.13491410  0.32099906  1
  H  H43  1  0.24674535  0.46800625  0.31850299  1
  H  H44  1  0.26004716  0.80108744  0.31815847  1
  H  H45  1  0.75266406  0.13410456  0.31701625  1
  H  H46  1  0.75698778  0.46795321  0.32142603  1
  H  H47  1  0.73968907  0.80144958  0.32265594  1
  H  H48  1  0.12921091  0.05301408  0.62275904  1
  H  H49  1  0.12882118  0.38488397  0.62066099  1
  H  H50  1  0.11966630  0.72009635  0.60443116  1
  H  H51  1  0.62672818  0.05165672  0.61225333  1
  H  H52  1  0.62911918  0.38909675  0.61405597  1
  H  H53  1  0.62444494  0.72225274  0.61167662  1
  H  H54  1  0.37614039  0.27925166  0.10859126  1
  H  H55  1  0.37215250  0.61589967  0.11715095  1
  H  H56  1  0.38007666  0.94354915  0.10589514  1
  H  H57  1  0.87559854  0.27997200  0.10568305  1
  H  H58  1  0.87477693  0.61222706  0.11125790  1
  H  H59  1  0.87706209  0.94658132  0.11053734  1
  H  H60  1  0.37506901  0.05351485  0.88348909  1
  H  H61  1  0.38843681  0.38928895  0.90379814  1
  H  H62  1  0.37091467  0.71475906  0.87660098  1
  H  H63  1  0.87518505  0.05427791  0.89211689  1
  H  H64  1  0.88319588  0.38939746  0.90195855  1
  H  H65  1  0.88332125  0.72442468  0.90326508  1
  H  H66  1  0.12260929  0.27526279  0.39060802  1
  H  H67  1  0.12591945  0.61495056  0.38231969  1
  H  H68  1  0.12852674  0.94810938  0.37975333  1
  H  H69  1  0.61903962  0.27630550  0.39997323  1
  H  H70  1  0.62923450  0.61299105  0.38347512  1
  H  H71  1  0.63161770  0.94659259  0.38384739  1
  H  H72  1  0.37807069  0.22160479  0.60871416  1
  H  H73  1  0.36641818  0.55559510  0.59958420  1
  H  H74  1  0.36977882  0.88944080  0.60524925  1
  H  H75  1  0.87908960  0.21858216  0.62240682  1
  H  H76  1  0.87158806  0.55450532  0.60894906  1
  H  H77  1  0.86692520  0.88766330  0.60436313  1
  H  H78  1  0.12592306  0.11365550  0.10970622  1
  H  H79  1  0.11840417  0.44828442  0.12259209  1
  H  H80  1  0.12789929  0.77948906  0.10528648  1
  H  H81  1  0.62754049  0.11262649  0.10641870  1
  H  H82  1  0.61911412  0.44737710  0.11596559  1
  H  H83  1  0.62597190  0.77947887  0.11267552  1
  H  H84  1  0.12573732  0.22313492  0.89682481  1
  H  H85  1  0.12829257  0.55280830  0.89387283  1
  H  H86  1  0.12158569  0.88580211  0.88447112  1
  H  H87  1  0.62557199  0.21996942  0.88568190  1
  H  H88  1  0.62569887  0.55445235  0.88988626  1
  H  H89  1  0.62454363  0.88836614  0.89200882  1
  H  H90  1  0.37102525  0.11176126  0.39561121  1
  H  H91  1  0.37196728  0.44649518  0.39015809  1
  H  H92  1  0.37119012  0.77713737  0.39882558  1
  H  H93  1  0.87055774  0.11232357  0.39195733  1
  H  H94  1  0.86510156  0.44324843  0.40508614  1
  H  H95  1  0.87992093  0.78126396  0.37321674  1
  H  H96  1  0.37092483  0.28216506  0.37966664  1
  H  H97  1  0.38022807  0.60975181  0.39776044  1
  H  H98  1  0.38271088  0.94690093  0.39443770  1
  H  H99  1  0.87445376  0.28229628  0.39383173  1
  H  H100  1  0.87797991  0.61095802  0.39749156  1
  H  H101  1  0.87925499  0.94524887  0.39157891  1
  H  H102  1  0.12433265  0.05431706  0.89082990  1
  H  H103  1  0.13021525  0.38321466  0.88109007  1
  H  H104  1  0.12908172  0.71708024  0.87423681  1
  H  H105  1  0.62375499  0.05543041  0.89354275  1
  H  H106  1  0.63509400  0.38290439  0.87340691  1
  H  H107  1  0.61490411  0.72746793  0.90669017  1
  H  H108  1  0.12472293  0.27987420  0.10885754  1
  H  H109  1  0.12329822  0.61298604  0.11004999  1
  H  H110  1  0.12603017  0.94390302  0.10580939  1
  H  H111  1  0.62575235  0.28174381  0.11578393  1
  H  H112  1  0.61955863  0.60810374  0.09841468  1
  H  H113  1  0.62902421  0.94708113  0.11667262  1
  H  H114  1  0.37826164  0.05614843  0.60485054  1
  H  H115  1  0.38139538  0.38972035  0.59948135  1
  H  H116  1  0.37464027  0.71945498  0.61152431  1
  H  H117  1  0.88207587  0.05553532  0.60037831  1
  H  H118  1  0.88093299  0.39108451  0.60345860  1
  H  H119  1  0.87186158  0.72060788  0.60831850  1
  H  H120  1  0.12230671  0.11275940  0.38948590  1
  H  H121  1  0.12279175  0.44640553  0.39066420  1
  H  H122  1  0.12350421  0.78042201  0.37710430  1
  H  H123  1  0.62142446  0.11396389  0.38004705  1
  H  H124  1  0.61905298  0.44974662  0.37657156  1
  H  H125  1  0.63571151  0.77414407  0.40840982  1
  H  H126  1  0.37431646  0.22008489  0.88327461  1
  H  H127  1  0.37814287  0.55399551  0.88726386  1
  H  H128  1  0.36950330  0.88845976  0.90000019  1
  H  H129  1  0.87474769  0.22168291  0.89315016  1
  H  H130  1  0.87498376  0.55118824  0.88873732  1
  H  H131  1  0.87327557  0.88823934  0.89117796  1
  H  H132  1  0.37567464  0.11277142  0.10875274  1
  H  H133  1  0.36646935  0.44442831  0.10315004  1
  H  H134  1  0.37639519  0.77859137  0.11107222  1
  H  H135  1  0.87611561  0.11298103  0.11243581  1
  H  H136  1  0.86642334  0.44192987  0.09661853  1
  H  H137  1  0.87574079  0.77994750  0.11103448  1
  H  H138  1  0.12935450  0.22129582  0.61038374  1
  H  H139  1  0.11894255  0.55050666  0.62542197  1
  H  H140  1  0.12133955  0.88532551  0.61997767  1
  H  H141  1  0.63206019  0.22400912  0.59987507  1
  H  H142  1  0.62238742  0.55593518  0.60754915  1
  H  H143  1  0.61824186  0.88607746  0.61867228  1
  H  H144  1  0.53686756  0.73928593  1.00695419  1
  H  H145  1  0.45980673  0.41567828  1.00989277  1
  H  H146  1  0.09515054  0.92080877  0.49289406  1
  H  H147  1  0.44093474  0.91798803  -0.00232251  1
  H  H148  1  0.93434321  0.92001696  0.50209399  1
  H  H149  1  0.14025812  0.41763078  0.00912856  1
  H  H150  1  0.30261803  0.91129425  1.00324290  1
  H  H151  1  0.94611498  0.41949614  0.49790401  1
  H  H152  1  0.91489782  0.74683726  0.50292198  1
  H  H153  1  0.81595304  0.08498825  0.50190584  1
  H  H154  1  0.66666424  0.24925818  0.99556365  1
  H  H155  1  0.39754858  0.25208168  0.49235986  1
  H  H156  1  0.95538690  0.74956456  1.00873404  1
  H  H157  1  0.42727873  0.25227042  -0.00209463  1
  H  H158  1  0.80765797  0.91594689  0.49397911  1
  H  H159  1  0.71329593  0.74989112  0.50772389  1
  H  H160  1  0.79281667  0.42014218  0.50639183  1
  H  H161  1  0.38630947  0.74873869  0.98430083  1
  H  H162  1  0.32903081  0.08655457  0.00381620  1
  H  H163  1  0.15188316  0.75191031  0.48443711  1
  H  H164  1  0.92147763  0.24515912  0.49339748  1
  H  H165  1  0.59399439  0.41638011  0.50691170  1
  H  H166  1  0.67251472  0.75528895  0.00054670  1
  H  H167  1  0.17942747  0.58271539  1.00261114  1
  H  H168  1  0.82705431  0.57934152  0.99777845  1
  H  H169  1  0.16901680  0.08409103  0.00016531  1
  H  H170  1  0.30603154  0.91806862  0.49823279  1
  H  H171  1  0.82585937  0.76249572  0.00346977  1
  H  H172  1  0.64740296  0.41764778  0.00759304  1
  H  H173  1  0.92389300  0.08226077  0.99703200  1
  H  H174  1  0.42221171  0.74696669  0.50030653  1
  H  H175  1  0.11046803  0.74710922  0.98218045  1
  H  H176  1  0.55397811  0.25240840  0.50278132  1
  H  H177  1  0.70090129  0.24833556  0.49448178  1
  H  H178  1  0.17253175  0.41896148  0.49933665  1
  H  H179  1  0.30514003  0.41554212  -0.00453020  1
  H  H180  1  0.95084237  0.08087429  0.49440338  1
  H  H181  1  0.29868614  0.58138306  0.49224161  1
  H  H182  1  0.07460047  0.26190483  0.49663480  1
  H  H183  1  0.65430965  0.08348266  0.49184986  1
  H  H184  1  0.16748578  0.08532315  0.49495154  1
  H  H185  1  0.33743396  0.58223303  0.99327596  1
  H  H186  1  0.30571899  0.75208474  0.50637326  1
  H  H187  1  0.09807123  0.58370140  0.49615994  1
  H  H188  1  0.44347659  0.58082514  0.50119995  1
  H  H189  1  0.43844805  0.92095969  0.50644901  1
  H  H190  1  0.56559314  0.08287212  1.00117299  1
  H  H191  1  0.57494585  0.74440918  0.50457182  1
  Pb  Pb192  1  0.25292311  0.04761729  0.75118945  1
  Pb  Pb193  1  0.25324791  0.37871100  0.75059764  1
  Pb  Pb194  1  0.24729727  0.71372330  0.74203269  1
  Pb  Pb195  1  0.75351317  0.04798194  0.74722275  1
  Pb  Pb196  1  0.75570221  0.38121868  0.74414466  1
  Pb  Pb197  1  0.75031469  0.71374549  0.75653860  1
  Pb  Pb198  1  0.24853958  0.28837954  0.24861594  1
  Pb  Pb199  1  0.24800412  0.61958534  0.24905024  1
  Pb  Pb200  1  0.25602143  0.95106606  0.24646823  1
  Pb  Pb201  1  0.74993971  0.28691206  0.25447554  1
  Pb  Pb202  1  0.75306756  0.61866917  0.24706033  1
  Pb  Pb203  1  0.75130891  0.95497205  0.25024324  1
  Pb  Pb204  1  0.00437144  0.21346182  0.74859655  1
  Pb  Pb205  1  0.00021122  0.54539275  0.75183489  1
  Pb  Pb206  1  -0.00296825  0.88174434  0.74821490  1
  Pb  Pb207  1  0.50501916  0.21491578  0.74442357  1
  Pb  Pb208  1  0.49948148  0.54682357  0.74501580  1
  Pb  Pb209  1  0.49924407  0.88076285  0.75331244  1
  Pb  Pb210  1  0.00339727  0.11916656  0.24805896  1
  Pb  Pb211  1  -0.00537032  0.45244113  0.25471417  1
  Pb  Pb212  1  0.00065078  0.78858273  0.24585299  1
  Pb  Pb213  1  0.49927496  0.12148909  0.24698394  1
  Pb  Pb214  1  0.49804918  0.45433796  0.24991862  1
  Pb  Pb215  1  0.50543111  0.78343794  0.25462408  1
  C  C216  1  0.00162113  0.04691863  0.63460150  1
  C  C217  1  0.00137686  0.38005216  0.63538595  1
  C  C218  1  -0.00383166  0.71241769  0.63064669  1
  C  C219  1  0.50084351  0.04623564  0.63390602  1
  C  C220  1  0.50301929  0.38142756  0.63091735  1
  C  C221  1  0.49989203  0.71220237  0.63387225  1
  C  C222  1  -0.00044894  0.28750274  0.13071097  1
  C  C223  1  -0.00072254  0.62023969  0.13573695  1
  C  C224  1  0.00244133  0.95314246  0.13151395  1
  C  C225  1  0.49873591  0.28701417  0.13376008  1
  C  C226  1  0.49928630  0.62000684  0.13078147  1
  C  C227  1  0.50235704  0.95276914  0.13491452  1
  C  C228  1  -0.00063333  0.04632107  0.86903897  1
  C  C229  1  0.00280131  0.38002648  0.87106132  1
  C  C230  1  0.00109287  0.71350777  0.86675226  1
  C  C231  1  0.50130933  0.04687984  0.86535754  1
  C  C232  1  0.50574929  0.37966641  0.86789374  1
  C  C233  1  0.49891169  0.71273166  0.86958464  1
  C  C234  1  -0.00163128  0.28544977  0.36925582  1
  C  C235  1  0.00014021  0.61967602  0.36892792  1
  C  C236  1  0.00205047  0.95335841  0.36462064  1
  C  C237  1  0.49882189  0.28714408  0.36771466  1
  C  C238  1  0.50187229  0.61921949  0.36799457  1
  C  C239  1  0.50467246  0.95350926  0.36799447  1
  C  C240  1  0.25401041  0.21317951  0.63276425  1
  C  C241  1  0.24804913  0.54631592  0.63377371  1
  C  C242  1  0.24857814  0.88039843  0.63594598  1
  C  C243  1  0.75150945  0.21374732  0.63440847  1
  C  C244  1  0.74670035  0.54756730  0.63181974  1
  C  C245  1  0.74560816  0.88041318  0.63277692  1
  C  C246  1  0.25119824  0.12065305  0.13187657  1
  C  C247  1  0.24565014  0.45311988  0.13375602  1
  C  C248  1  0.25118188  0.78617320  0.12953822  1
  C  C249  1  0.75072723  0.12087777  0.13418031  1
  C  C250  1  0.74619669  0.45252608  0.13041612  1
  C  C251  1  0.75132501  0.78843331  0.13401710  1
  C  C252  1  0.24761203  0.21390308  0.86686192  1
  C  C253  1  0.25233507  0.54634131  0.86813435  1
  C  C254  1  0.24881454  0.87916601  0.86803775  1
  C  C255  1  0.75135806  0.21310039  0.86603901  1
  C  C256  1  0.75002482  0.54550641  0.86564605  1
  C  C257  1  0.74864962  0.88086100  0.86629758  1
  C  C258  1  0.24758327  0.11980120  0.36859894  1
  C  C259  1  0.24714533  0.45340154  0.36633844  1
  C  C260  1  0.25109111  0.78650609  0.36571258  1
  C  C261  1  0.74794635  0.11973732  0.36492426  1
  C  C262  1  0.74721808  0.45404334  0.36897557  1
  C  C263  1  0.75163976  0.78661615  0.36962646  1
  C  C264  1  0.21431755  0.76209212  0.03492554  1
  C  C265  1  0.54668044  0.26315754  0.04179220  1
  C  C266  1  0.78024224  0.09465325  0.46093073  1
  C  C267  1  0.48965667  0.40497552  0.96637283  1
  C  C268  1  0.73171121  0.23815454  0.53778559  1
  C  C269  1  0.97921391  0.40584399  0.96648096  1
  C  C270  1  0.21130375  0.42881147  0.46006877  1
  C  C271  1  0.03598984  0.92504526  0.03831193  1
  C  C272  1  0.96487753  0.26048542  0.03738306  1
  C  C273  1  0.69250643  0.90506152  0.54245656  1
  C  C274  1  0.96971511  0.92953852  0.46092001  1
  C  C275  1  0.81757903  0.75979756  0.45469958  1
  C  C276  1  0.47456808  0.92765906  0.03977372  1
  C  C277  1  0.98133499  0.07182929  0.53808838  1
  C  C278  1  0.77386381  0.90571572  0.53585541  1
  C  C279  1  0.21637910  0.57286530  0.96231502  1
  C  C280  1  0.27353540  0.90675480  0.54052410  1
  C  C281  1  0.44359185  0.26097085  0.45639982  1
  C  C282  1  0.19005952  0.42801071  0.04424526  1
  C  C283  1  0.78770091  0.57065026  0.95858788  1
  C  C284  1  0.04221948  0.07433332  0.96220563  1
  C  C285  1  0.20991588  0.09404537  0.03885445  1
  C  C286  1  0.98303445  0.74022583  0.96411085  1
  C  C287  1  0.46528378  0.26204936  0.03763892  1
  C  C288  1  0.55430879  0.59079523  0.45803501  1
  C  C289  1  0.18696657  0.56982797  0.54635820  1
  C  C290  1  0.55514694  0.92862684  0.45908317  1
  C  C291  1  0.97816164  0.40738579  0.54009061  1
  C  C292  1  0.05163136  0.93024620  0.45659322  1
  C  C293  1  0.05935012  0.40389432  0.95977267  1
  C  C294  1  0.71076537  0.57515140  0.53886893  1
  C  C295  1  0.68568455  0.42917440  0.45631177  1
  C  C296  1  0.22001848  0.24221898  0.96128290  1
  C  C297  1  0.52261042  0.58934469  0.03612522  1
  C  C298  1  0.29583268  0.76245965  0.03662105  1
  C  C299  1  0.96943602  0.59240297  0.46400375  1
  C  C300  1  0.26736769  0.57154169  0.53529658  1
  C  C301  1  0.56981688  0.40229121  0.95434028  1
  C  C302  1  0.70993787  0.76240235  0.04111239  1
  C  C303  1  0.47370974  0.92911238  0.46477017  1
  C  C304  1  0.45899826  0.73949081  0.54119187  1
  C  C305  1  0.69831783  0.09453789  0.45632550  1
  C  C306  1  0.53032178  0.07249543  0.96013460  1
  C  C307  1  0.27172810  0.42669018  0.03726754  1
  C  C308  1  0.70953523  0.23932100  0.95779494  1
  C  C309  1  0.27569107  0.76109096  0.46256586  1
  C  C310  1  0.29058084  0.24174710  0.53977223  1
  C  C311  1  0.05078424  0.59370238  0.46051199  1
  N  N312  1  0.27335597  0.90511189  0.96199822  1
  N  N313  1  0.04211356  0.25993242  0.03730858  1
  N  N314  1  0.81049061  0.23606027  0.54485817  1
  N  N315  1  0.44533680  0.59243558  0.04069304  1
  N  N316  1  0.45091966  0.07181133  0.95723368  1
  N  N317  1  0.47222791  0.40745938  0.53536751  1
  N  N318  1  0.77263180  0.42543146  0.03445368  1
  N  N319  1  0.96005109  0.59409451  0.04200753  1
  N  N320  1  0.03690296  0.59437839  0.04152929  1
  N  N321  1  0.95855357  0.92579600  0.03841363  1
  N  N322  1  0.78715730  0.90464948  0.96076179  1
  N  N323  1  0.71091395  0.90464393  0.96097690  1
  N  N324  1  0.43674269  0.73396916  0.95514273  1
  N  N325  1  0.71653719  0.09435968  0.03955288  1
  N  N326  1  0.06126408  0.73857380  0.95259609  1
  N  N327  1  0.95684463  0.73813156  0.53920435  1
  N  N328  1  0.19699490  0.76233130  0.45381763  1
  N  N329  1  0.55014329  0.40739821  0.54188176  1
  N  N330  1  0.73967981  0.75763846  0.46539652  1
  N  N331  1  0.69528064  0.42757232  0.04234456  1
  N  N332  1  0.96285997  0.07389693  0.96147826  1
  N  N333  1  0.29747657  0.24095656  0.95839758  1
  N  N334  1  0.78814172  0.57441668  0.53781010  1
  N  N335  1  0.52300505  0.25769823  0.46194265  1
  N  N336  1  0.95982016  0.26698506  0.46330586  1
  N  N337  1  0.53853262  0.74167012  0.54263837  1
  N  N338  1  0.79341313  0.09449408  0.04158369  1
  N  N339  1  0.21265781  0.24215086  0.53910271  1
  N  N340  1  0.54495498  0.06987667  0.54084137  1
  N  N341  1  0.03820322  0.25347602  0.45916241  1
  N  N342  1  0.03562946  0.73777826  0.53673831  1
  N  N343  1  0.05712074  0.40505054  0.54549726  1
  N  N344  1  0.28502433  0.09348746  0.46280115  1
  N  N345  1  0.78973488  0.76082027  0.04182109  1
  N  N346  1  0.47547623  0.59072871  0.46195359  1
  N  N347  1  0.28974037  0.09298587  0.03988662  1
  N  N348  1  0.06003995  0.07163961  0.54553843  1
  N  N349  1  0.46894968  0.07135301  0.53831522  1
  N  N350  1  0.19466066  0.90486503  0.54530292  1
  N  N351  1  0.70836196  0.57244652  0.95940973  1
  N  N352  1  0.78878011  0.24068651  0.96075797  1
  N  N353  1  0.20689606  0.09419941  0.45920290  1
  N  N354  1  0.51401730  0.74675687  0.96331275  1
  N  N355  1  0.29050653  0.42872688  0.46033825  1
  N  N356  1  0.19578153  0.90420637  0.95790076  1
  N  N357  1  0.76406219  0.42715995  0.46490749  1
  N  N358  1  0.29598593  0.57357873  0.95881007  1
  N  N359  1  0.55369393  0.92831234  0.04326884  1
  N  N360  1  0.07078552  0.05607564  0.60593912  1
  N  N361  1  0.06977635  0.38840748  0.60515296  1
  N  N362  1  0.05891352  0.72232592  0.59375264  1
  N  N363  1  0.56633558  0.05432962  0.60006012  1
  N  N364  1  0.56991750  0.39132829  0.59969353  1
  N  N365  1  0.56375410  0.72179770  0.59885516  1
  N  N366  1  0.43651932  0.27710144  0.09612906  1
  N  N367  1  0.43081901  0.61187518  0.10114383  1
  N  N368  1  0.44142142  0.94204548  0.09574068  1
  N  N369  1  0.93579523  0.27686747  0.09358045  1
  N  N370  1  0.93572425  0.60975943  0.10035309  1
  N  N371  1  0.93747919  0.94355262  0.09775371  1
  N  N372  1  0.43485291  0.05590807  0.89766960  1
  N  N373  1  0.45056201  0.39057086  0.91118283  1
  N  N374  1  0.42772076  0.72195337  0.89509246  1
  N  N375  1  0.93584422  0.05586738  0.90423031  1
  N  N376  1  0.94425055  0.39145954  0.91273708  1
  N  N377  1  0.94508783  0.72485703  0.91076253  1
  N  N378  1  0.06239467  0.27614987  0.40417044  1
  N  N379  1  0.06840698  0.61079415  0.39992123  1
  N  N380  1  0.07026806  0.94486711  0.39659141  1
  N  N381  1  0.55704680  0.27627067  0.40787705  1
  N  N382  1  0.57083097  0.60834310  0.39984269  1
  N  N383  1  0.57311900  0.94326918  0.40051104  1
  N  N384  1  0.31814172  0.22428481  0.59632679  1
  N  N385  1  0.30458422  0.55666039  0.59136801  1
  N  N386  1  0.30813697  0.89171856  0.59574279  1
  N  N387  1  0.82078232  0.22137278  0.60542609  1
  N  N388  1  0.81074594  0.55724219  0.59713297  1
  N  N389  1  0.80603871  0.89028126  0.59328495  1
  N  N390  1  0.18599943  0.11027779  0.09635654  1
  N  N391  1  0.17579104  0.44438707  0.10437425  1
  N  N392  1  0.18783902  0.77664339  0.09205056  1
  N  N393  1  0.68896713  0.11077177  0.09682407  1
  N  N394  1  0.67795929  0.44397855  0.10046867  1
  N  N395  1  0.68596888  0.77739624  0.09865523  1
  N  N396  1  0.18684952  0.22588788  0.90649747  1
  N  N397  1  0.18895296  0.55647813  0.90580741  1
  N  N398  1  0.18091959  0.88934879  0.89897970  1
  N  N399  1  0.68513433  0.22290040  0.89986745  1
  N  N400  1  0.68672670  0.55662218  0.90118233  1
  N  N401  1  0.68543075  0.88992353  0.90246023  1
  N  N402  1  0.30983894  0.10918198  0.40592617  1
  N  N403  1  0.31100161  0.44382812  0.40169805  1
  N  N404  1  0.30986568  0.77615396  0.40775527  1
  N  N405  1  0.80984962  0.11023947  0.40356853  1
  N  N406  1  0.80273117  0.44450060  0.41147811  1
  N  N407  1  0.82484258  0.77679134  0.39507366  1
  N  N408  1  0.42871413  0.27807433  0.39757804  1
  N  N409  1  0.44200149  0.60919571  0.40697595  1
  N  N410  1  0.44323702  0.94439482  0.40669461  1
  N  N411  1  0.93460587  0.27530866  0.40443416  1
  N  N412  1  0.93886271  0.60789527  0.40893398  1
  N  N413  1  0.94022715  0.94383097  0.40328521  1
  N  N414  1  0.06475507  0.05768053  0.90491691  1
  N  N415  1  0.07363326  0.38798701  0.90042414  1
  N  N416  1  0.07174634  0.72244290  0.89280273  1
  N  N417  1  0.56263090  0.05743161  0.90418636  1
  N  N418  1  0.57897642  0.38710021  0.89439910  1
  N  N419  1  0.55315500  0.72352954  0.91315507  1
  N  N420  1  0.06405174  0.27736152  0.09667064  1
  N  N421  1  0.06220418  0.61083973  0.09940215  1
  N  N422  1  0.06580092  0.94144966  0.09431908  1
  N  N423  1  0.56659399  0.27811055  0.09992367  1
  N  N424  1  0.55810726  0.60608891  0.08993710  1
  N  N425  1  0.56912147  0.94390272  0.10262854  1
  N  N426  1  0.43997606  0.05699239  0.59579778  1
  N  N427  1  0.44324606  0.39193323  0.59113857  1
  N  N428  1  0.43457298  0.72275817  0.59822955  1
  N  N429  1  0.94399217  0.05707247  0.59238962  1
  N  N430  1  0.94258182  0.39189078  0.59472429  1
  N  N431  1  0.93217427  0.72229718  0.59596683  1
  N  N432  1  0.18247976  0.11015317  0.40224965  1
  N  N433  1  0.18298969  0.44380434  0.40262684  1
  N  N434  1  0.18205495  0.77755621  0.39429956  1
  N  N435  1  0.67982226  0.11010772  0.39653574  1
  N  N436  1  0.67524015  0.44468919  0.39660846  1
  N  N437  1  0.69808208  0.77643019  0.41354081  1
  N  N438  1  0.31473179  0.22316749  0.89805671  1
  N  N439  1  0.31792749  0.55680401  0.90092926  1
  N  N440  1  0.30764439  0.88827425  0.90823347  1
  N  N441  1  0.81318745  0.22429681  0.90299218  1
  N  N442  1  0.81486494  0.55475523  0.90127862  1
  N  N443  1  0.81216990  0.89044564  0.90202865  1
  N  N444  1  0.31496154  0.11041401  0.09692277  1
  N  N445  1  0.30517155  0.44236957  0.09338231  1
  N  N446  1  0.31737154  0.77678431  0.09520885  1
  N  N447  1  0.81560813  0.11090177  0.10011493  1
  N  N448  1  0.80422338  0.44106805  0.08945169  1
  N  N449  1  0.81504657  0.78024488  0.09849546  1
  N  N450  1  0.19007652  0.22385847  0.59842318  1
  N  N451  1  0.17583676  0.55477026  0.60590804  1
  N  N452  1  0.18069934  0.88870859  0.60518704  1
  N  N453  1  0.69417380  0.22476568  0.59227131  1
  N  N454  1  0.68245851  0.55892974  0.59544031  1
  N  N455  1  0.67620005  0.88983634  0.60116234  1
  Cl  Cl456  1  0.25551658  0.05454280  0.61849422  1
  Cl  Cl457  1  0.25744228  0.38628456  0.61734943  1
  Cl  Cl458  1  0.24728712  0.72198665  0.60632930  1
  Cl  Cl459  1  0.75520030  0.05415530  0.61182372  1
  Cl  Cl460  1  0.75561028  0.39213940  0.60481706  1
  Cl  Cl461  1  0.74721130  0.72491766  0.60893276  1
  Cl  Cl462  1  0.24893080  0.27892299  0.11792328  1
  Cl  Cl463  1  0.24666707  0.61233369  0.11305082  1
  Cl  Cl464  1  0.25658500  0.94311998  0.10808020  1
  Cl  Cl465  1  0.74997085  0.28275281  0.12293688  1
  Cl  Cl466  1  0.74926539  0.61388352  0.11227238  1
  Cl  Cl467  1  0.75339746  0.94661590  0.12258937  1
  Cl  Cl468  1  0.24971309  0.05504313  0.88767549  1
  Cl  Cl469  1  0.26420540  0.38745506  0.88424965  1
  Cl  Cl470  1  0.25087320  0.71432405  0.87422462  1
  Cl  Cl471  1  0.75098063  0.05460097  0.87833506  1
  Cl  Cl472  1  0.76023782  0.38567415  0.87418649  1
  Cl  Cl473  1  0.74859407  0.72750407  0.89461423  1
  Cl  Cl474  1  0.24500004  0.27859222  0.38072919  1
  Cl  Cl475  1  0.25865805  0.61490755  0.38224488  1
  Cl  Cl476  1  0.25766569  0.94610076  0.37996092  1
  Cl  Cl477  1  0.74551022  0.28118135  0.39186872  1
  Cl  Cl478  1  0.75348158  0.61851895  0.37835971  1
  Cl  Cl479  1  0.75736150  0.94448471  0.38403903  1
  Cl  Cl480  1  0.00487641  0.22247733  0.61183557  1
  Cl  Cl481  1  -0.00582692  0.55369180  0.61799795  1
  Cl  Cl482  1  -0.00687034  0.88571828  0.61427582  1
  Cl  Cl483  1  0.50830443  0.22690784  0.60464545  1
  Cl  Cl484  1  0.49261233  0.55803824  0.60669843  1
  Cl  Cl485  1  0.49131924  0.88398756  0.61982365  1
  Cl  Cl486  1  0.00003503  0.11170052  0.11312953  1
  Cl  Cl487  1  -0.01241788  0.44664808  0.12312943  1
  Cl  Cl488  1  -0.00073967  0.77866874  0.11022478  1
  Cl  Cl489  1  0.50290542  0.11283054  0.11145876  1
  Cl  Cl490  1  0.49347452  0.44695693  0.11524047  1
  Cl  Cl491  1  0.50343155  0.77255803  0.11357063  1
  Cl  Cl492  1  -0.00034588  0.21631601  0.87983339  1
  Cl  Cl493  1  0.00300389  0.55090528  0.88110994  1
  Cl  Cl494  1  -0.00295712  0.88398058  0.88046797  1
  Cl  Cl495  1  0.49951173  0.22018989  0.87625618  1
  Cl  Cl496  1  0.50110389  0.55434887  0.87747850  1
  Cl  Cl497  1  0.49301674  0.88713541  0.88939425  1
  Cl  Cl498  1  -0.00278616  0.11359794  0.38426996  1
  Cl  Cl499  1  -0.01117639  0.44308048  0.39121735  1
  Cl  Cl500  1  0.00238502  0.77786826  0.37807951  1
  Cl  Cl501  1  0.49360412  0.11703780  0.37802090  1
  Cl  Cl502  1  0.49533158  0.45010551  0.38218596  1
  Cl  Cl503  1  0.50767272  0.77273989  0.39690540  1
  Cl  Cl504  1  0.36215109  0.14411939  0.75360878  1
  Cl  Cl505  1  0.36198300  0.48061868  0.75028868  1
  Cl  Cl506  1  0.36064898  0.81064615  0.75089963  1
  Cl  Cl507  1  0.86295385  0.14418984  0.74552492  1
  Cl  Cl508  1  0.86109909  0.47782502  0.74564692  1
  Cl  Cl509  1  0.86095467  0.81037823  0.74934299  1
  Cl  Cl510  1  0.13698879  0.18812933  0.25156652  1
  Cl  Cl511  1  0.14059201  0.52340826  0.24794219  1
  Cl  Cl512  1  0.13682859  0.85493279  0.25232104  1
  Cl  Cl513  1  0.63564125  0.18931692  0.25281682  1
  Cl  Cl514  1  0.63511856  0.52232068  0.25226167  1
  Cl  Cl515  1  0.63814249  0.85469724  0.24941664  1
  Cl  Cl516  1  0.13635347  0.14331335  0.74581768  1
  Cl  Cl517  1  0.13786555  0.47783915  0.74682583  1
  Cl  Cl518  1  0.13962468  0.80977222  0.75105880  1
  Cl  Cl519  1  0.63820424  0.14529410  0.74829943  1
  Cl  Cl520  1  0.63609630  0.47687679  0.74924820  1
  Cl  Cl521  1  0.63604159  0.81019683  0.74613151  1
  Cl  Cl522  1  0.36124132  0.18835106  0.24895077  1
  Cl  Cl523  1  0.36241970  0.52225543  0.24982260  1
  Cl  Cl524  1  0.35812165  0.85453225  0.24879904  1
  Cl  Cl525  1  0.86064429  0.18928745  0.25329404  1
  Cl  Cl526  1  0.85722225  0.52165975  0.25014252  1
  Cl  Cl527  1  0.86331582  0.85445218  0.25299388  1
  Cl  Cl528  1  0.11264049  0.31148519  0.74904310  1
  Cl  Cl529  1  0.11172582  0.64534532  0.74895798  1
  Cl  Cl530  1  0.11414627  0.97686775  0.74883121  1
  Cl  Cl531  1  0.61164388  0.31062446  0.74833726  1
  Cl  Cl532  1  0.61281264  0.64618054  0.74949990  1
  Cl  Cl533  1  0.60997434  0.97591401  0.74721449  1
  Cl  Cl534  1  0.38758514  0.02107138  0.24780130  1
  Cl  Cl535  1  0.38618254  0.35567355  0.25382523  1
  Cl  Cl536  1  0.38817196  0.68930678  0.24737958  1
  Cl  Cl537  1  0.88825668  0.02133911  0.24893113  1
  Cl  Cl538  1  0.88780895  0.35519565  0.25418534  1
  Cl  Cl539  1  0.88739362  0.68893266  0.24996623  1
  Cl  Cl540  1  0.39072990  0.31248264  0.74683401  1
  Cl  Cl541  1  0.38892547  0.64577137  0.75142479  1
  Cl  Cl542  1  0.38656913  0.97769465  0.75409919  1
  Cl  Cl543  1  0.88834798  0.31079138  0.74720383  1
  Cl  Cl544  1  0.88774817  0.64617356  0.75064885  1
  Cl  Cl545  1  0.89134924  0.97845859  0.75006803  1
  Cl  Cl546  1  0.11090880  0.02351262  0.25110957  1
  Cl  Cl547  1  0.11117892  0.35514983  0.25039308  1
  Cl  Cl548  1  0.11363500  0.68895045  0.25374814  1
  Cl  Cl549  1  0.61293434  0.02170568  0.25194035  1
  Cl  Cl550  1  0.61038218  0.35536094  0.25078090  1
  Cl  Cl551  1  0.60844788  0.69070150  0.25026826  1
