# generated using pymatgen
data_H8PbC4(N3Cl2)2
_symmetry_space_group_name_H-M   'P 1'
_cell_length_a   16.62633061
_cell_length_b   22.51401284
_cell_length_c   21.59353534
_cell_angle_alpha   90.00143176
_cell_angle_beta   90.00505144
_cell_angle_gamma   90.00609698
_symmetry_Int_Tables_number   1
_chemical_formula_structural   H8PbC4(N3Cl2)2
_chemical_formula_sum   'H192 Pb24 C96 N144 Cl96'
_cell_volume   8083.00912367
_cell_formula_units_Z   24
loop_
 _symmetry_equiv_pos_site_id
 _symmetry_equiv_pos_as_xyz
  1  'x, y, z'
loop_
 _atom_site_type_symbol
 _atom_site_label
 _atom_site_symmetry_multiplicity
 _atom_site_fract_x
 _atom_site_fract_y
 _atom_site_fract_z
 _atom_site_occupancy
  H  H0  1  0.00075130  0.03028691  0.68029691  1
  H  H1  1  -0.00267329  0.36342329  0.68103394  1
  H  H2  1  -0.00846053  0.69306876  0.67597734  1
  H  H3  1  0.49433840  0.03099683  0.67634798  1
  H  H4  1  0.49760223  0.36393765  0.68233229  1
  H  H5  1  0.50652347  0.69665830  0.67804131  1
  H  H6  1  -0.00669135  0.30660410  0.17420678  1
  H  H7  1  -0.00296508  0.63731667  0.18092260  1
  H  H8  1  -0.00929786  0.96772465  0.18262404  1
  H  H9  1  0.49473843  0.30207553  0.18108656  1
  H  H10  1  0.49863537  0.63534579  0.17552935  1
  H  H11  1  0.50715096  0.97047533  0.17821095  1
  H  H12  1  -0.00851751  0.02797683  0.82050916  1
  H  H13  1  -0.01099712  0.36432061  0.82157714  1
  H  H14  1  -0.00660173  0.69567840  0.82356135  1
  H  H15  1  0.49922591  0.02832921  0.82196494  1
  H  H16  1  0.49984213  0.36238555  0.82247331  1
  H  H17  1  0.50253732  0.69791047  0.82134459  1
  H  H18  1  0.00526184  0.30251863  0.31864224  1
  H  H19  1  0.00970325  0.63670085  0.32327943  1
  H  H20  1  -0.00698470  0.97151370  0.32240419  1
  H  H21  1  0.49599049  0.30316901  0.32160693  1
  H  H22  1  0.49595113  0.63874460  0.31881105  1
  H  H23  1  0.49513181  0.97051479  0.32448402  1
  H  H24  1  0.25720074  0.19779976  0.67650861  1
  H  H25  1  0.25091621  0.53014453  0.67852554  1
  H  H26  1  0.25357364  0.86188789  0.67573735  1
  H  H27  1  0.75131895  0.19634882  0.67971881  1
  H  H28  1  0.74743418  0.53204166  0.67949335  1
  H  H29  1  0.75371252  0.86407118  0.67929142  1
  H  H30  1  0.25563768  0.13413805  0.18214642  1
  H  H31  1  0.26319139  0.47072478  0.17965550  1
  H  H32  1  0.24705544  0.80324628  0.18096456  1
  H  H33  1  0.75417444  0.13851650  0.17671182  1
  H  H34  1  0.74243241  0.46946611  0.17724798  1
  H  H35  1  0.75664663  0.80293338  0.17992323  1
  H  H36  1  0.25532506  0.20046045  0.82114264  1
  H  H37  1  0.24032887  0.52853744  0.82190961  1
  H  H38  1  0.24882870  0.86180096  0.81872351  1
  H  H39  1  0.74541246  0.19935230  0.82319986  1
  H  H40  1  0.75890751  0.52866567  0.81998877  1
  H  H41  1  0.75436472  0.86574445  0.81952907  1
  H  H42  1  0.24631764  0.13769910  0.32208992  1
  H  H43  1  0.25279724  0.47206934  0.32419100  1
  H  H44  1  0.23201360  0.80319980  0.32956231  1
  H  H45  1  0.75470105  0.13558971  0.32073302  1
  H  H46  1  0.75678083  0.47316092  0.32156682  1
  H  H47  1  0.76476705  0.80213664  0.31904961  1
  H  H48  1  0.13360265  0.05152456  0.61518482  1
  H  H49  1  0.13499033  0.38320887  0.62278655  1
  H  H50  1  0.12570517  0.71925386  0.61574377  1
  H  H51  1  0.62995053  0.05301767  0.61746575  1
  H  H52  1  0.63173383  0.38628683  0.62419205  1
  H  H53  1  0.62159846  0.72000312  0.60170982  1
  H  H54  1  0.38662249  0.27546043  0.09918012  1
  H  H55  1  0.37807395  0.60735094  0.10364807  1
  H  H56  1  0.37573316  0.94647055  0.11676480  1
  H  H57  1  0.88144221  0.27763424  0.09498765  1
  H  H58  1  0.87678694  0.61089659  0.10595392  1
  H  H59  1  0.87844910  0.94455158  0.10344138  1
  H  H60  1  0.38701070  0.05694001  0.90087976  1
  H  H61  1  0.38865289  0.39187871  0.90271360  1
  H  H62  1  0.38211837  0.72179575  0.89420664  1
  H  H63  1  0.88425904  0.05853294  0.90412880  1
  H  H64  1  0.87839805  0.38832169  0.90190057  1
  H  H65  1  0.88543630  0.72506707  0.90506893  1
  H  H66  1  0.13048230  0.27763576  0.38760683  1
  H  H67  1  0.12218800  0.61195150  0.40229429  1
  H  H68  1  0.13257993  0.95089369  0.37669843  1
  H  H69  1  0.62994387  0.28185001  0.38221554  1
  H  H70  1  0.62504728  0.61538781  0.38519959  1
  H  H71  1  0.63080657  0.94622829  0.38281300  1
  H  H72  1  0.37158394  0.22112486  0.59888078  1
  H  H73  1  0.37609514  0.55628088  0.60776350  1
  H  H74  1  0.37096963  0.88903571  0.60152804  1
  H  H75  1  0.87058615  0.22097698  0.60695749  1
  H  H76  1  0.87668913  0.55239757  0.61514263  1
  H  H77  1  0.86406704  0.88980994  0.59841675  1
  H  H78  1  0.11747048  0.11817688  0.12779416  1
  H  H79  1  0.12263283  0.44933658  0.12722510  1
  H  H80  1  0.11479766  0.77790144  0.11622791  1
  H  H81  1  0.61519404  0.11514732  0.12333253  1
  H  H82  1  0.62168112  0.44222176  0.10492661  1
  H  H83  1  0.61772728  0.78435351  0.12344559  1
  H  H84  1  0.11565001  0.21802589  0.87365264  1
  H  H85  1  0.12274059  0.55550824  0.89876168  1
  H  H86  1  0.12479611  0.88783296  0.88971170  1
  H  H87  1  0.61599372  0.22327688  0.89074127  1
  H  H88  1  0.62487834  0.55071343  0.88187380  1
  H  H89  1  0.62103698  0.88527348  0.88100144  1
  H  H90  1  0.37051327  0.11407064  0.39215805  1
  H  H91  1  0.36426183  0.44181132  0.40245242  1
  H  H92  1  0.37539497  0.78649655  0.37805791  1
  H  H93  1  0.86479529  0.11046809  0.40149994  1
  H  H94  1  0.86460962  0.44487306  0.40443128  1
  H  H95  1  0.86649084  0.77421562  0.40358004  1
  H  H96  1  0.38256578  0.27571033  0.40116970  1
  H  H97  1  0.37575561  0.61323252  0.39370320  1
  H  H98  1  0.38385173  0.94386392  0.40474342  1
  H  H99  1  0.88152303  0.27987731  0.39102975  1
  H  H100  1  0.87516920  0.61677583  0.37987001  1
  H  H101  1  0.88642438  0.94047776  0.40473869  1
  H  H102  1  0.12883074  0.05203786  0.87557430  1
  H  H103  1  0.12394249  0.38325055  0.87653047  1
  H  H104  1  0.13112352  0.71467096  0.88013681  1
  H  H105  1  0.63390484  0.04776880  0.88294504  1
  H  H106  1  0.63584633  0.38657461  0.87890689  1
  H  H107  1  0.63141670  0.72381122  0.88745482  1
  H  H108  1  0.12905079  0.28274202  0.11533574  1
  H  H109  1  0.12504495  0.61196631  0.11261115  1
  H  H110  1  0.12611209  0.94992712  0.12485441  1
  H  H111  1  0.63334998  0.28415582  0.12310126  1
  H  H112  1  0.62600013  0.61288368  0.10780961  1
  H  H113  1  0.62364648  0.94367940  0.10069904  1
  H  H114  1  0.38291568  0.05685013  0.59606098  1
  H  H115  1  0.38431432  0.38572959  0.60348300  1
  H  H116  1  0.37329789  0.71911231  0.61772876  1
  H  H117  1  0.88478246  0.05699343  0.60395333  1
  H  H118  1  0.88822868  0.39210222  0.59964303  1
  H  H119  1  0.87849451  0.72075524  0.59585590  1
  H  H120  1  0.12167669  0.11263701  0.39265360  1
  H  H121  1  0.11763647  0.45221368  0.38429942  1
  H  H122  1  0.13337582  0.77007075  0.41542014  1
  H  H123  1  0.61719217  0.11431804  0.37809074  1
  H  H124  1  0.61824983  0.44976904  0.37577218  1
  H  H125  1  0.62226943  0.78731240  0.36853889  1
  H  H126  1  0.36147160  0.22505839  0.90509073  1
  H  H127  1  0.37072666  0.55243694  0.88614464  1
  H  H128  1  0.37373525  0.88529036  0.88826194  1
  H  H129  1  0.86466141  0.22398677  0.89824506  1
  H  H130  1  0.87267736  0.55296772  0.89909910  1
  H  H131  1  0.86958901  0.88795642  0.89544385  1
  H  H132  1  0.36325231  0.10865625  0.09976287  1
  H  H133  1  0.36624058  0.44176158  0.09267843  1
  H  H134  1  0.36271341  0.77704026  0.10184754  1
  H  H135  1  0.85936803  0.10960246  0.09144808  1
  H  H136  1  0.87053074  0.44558174  0.10982085  1
  H  H137  1  0.86330910  0.77446927  0.09725876  1
  H  H138  1  0.12399700  0.21541207  0.61706136  1
  H  H139  1  0.12724524  0.55636430  0.60622980  1
  H  H140  1  0.12302780  0.88319206  0.61446201  1
  H  H141  1  0.62126531  0.21788103  0.61596094  1
  H  H142  1  0.62823092  0.55516491  0.60648790  1
  H  H143  1  0.61635572  0.88441866  0.62117030  1
  H  H144  1  0.56781864  0.75007713  0.49388039  1
  H  H145  1  0.78137917  0.08489632  -0.00760930  1
  H  H146  1  0.79721231  0.91694660  0.49220727  1
  H  H147  1  0.96052181  0.08479339  1.00367368  1
  H  H148  1  0.64241075  0.91087924  0.51247921  1
  H  H149  1  0.58390558  0.57345224  0.00810202  1
  H  H150  1  0.14748499  0.41550952  0.48927354  1
  H  H151  1  0.60712830  0.41304476  0.51023696  1
  H  H152  1  0.29437647  0.42692643  0.50613726  1
  H  H153  1  0.15063906  0.24509221  0.50242551  1
  H  H154  1  0.10220510  0.92089708  0.01152958  1
  H  H155  1  0.95951490  0.73767887  1.00672114  1
  H  H156  1  0.94158913  0.91720333  -0.00451863  1
  H  H157  1  0.45623369  0.07367146  1.00452076  1
  H  H158  1  0.18530823  0.58238556  1.00069980  1
  H  H159  1  0.79768299  0.08349704  0.50812730  1
  H  H160  1  0.80899264  0.57929951  1.00533281  1
  H  H161  1  0.65950678  0.25241429  0.99578750  1
  H  H162  1  0.59099972  0.75266023  0.99339152  1
  H  H163  1  0.95780024  0.41935662  0.49539859  1
  H  H164  1  0.13078397  0.24571448  -0.01318478  1
  H  H165  1  0.81909100  0.25214238  0.49821679  1
  H  H166  1  0.45741109  0.24686263  -0.00504122  1
  H  H167  1  0.65399657  0.24903468  0.50447853  1
  H  H168  1  0.43259607  0.59125233  -0.00082747  1
  H  H169  1  0.29518211  0.08451699  -0.00653945  1
  H  H170  1  0.15422002  0.91653327  0.50141795  1
  H  H171  1  0.89702720  0.58414182  0.49377843  1
  H  H172  1  0.45852811  0.41736279  1.00459894  1
  H  H173  1  0.79050736  0.42043664  0.50556043  1
  H  H174  1  0.96153204  0.91487679  0.50548790  1
  H  H175  1  0.94728062  0.08798165  0.49741072  1
  H  H176  1  0.10626787  0.75062873  0.98576209  1
  H  H177  1  0.10167521  0.41386498  -0.00777142  1
  H  H178  1  0.29057257  0.25137078  1.01017695  1
  H  H179  1  0.32812533  0.91519539  0.99733462  1
  H  H180  1  0.44589944  0.40996693  0.49447267  1
  H  H181  1  0.43403210  0.75608656  1.00184938  1
  H  H182  1  0.81038439  0.91645601  1.00576843  1
  H  H183  1  0.58350652  0.58512196  0.49467073  1
  H  H184  1  0.94857826  0.74748779  0.49469060  1
  H  H185  1  0.79033086  0.74322817  0.50651882  1
  H  H186  1  0.28552940  0.41953435  -0.00595593  1
  H  H187  1  0.13591550  0.09176931  1.01309105  1
  H  H188  1  0.64332715  0.08807084  0.48714928  1
  H  H189  1  0.79107324  0.75006250  -0.00728635  1
  H  H190  1  0.36514989  0.75225630  0.48792144  1
  H  H191  1  0.60306474  0.08204156  0.98897796  1
  Pb  Pb192  1  0.25787620  0.04980275  0.74974311  1
  Pb  Pb193  1  0.26034393  0.38319212  0.75283911  1
  Pb  Pb194  1  0.25168522  0.71335171  0.74986417  1
  Pb  Pb195  1  0.75465070  0.04803500  0.75123747  1
  Pb  Pb196  1  0.75551469  0.38144073  0.74255108  1
  Pb  Pb197  1  0.75749693  0.71669761  0.74931521  1
  Pb  Pb198  1  0.24444784  0.28325275  0.25123770  1
  Pb  Pb199  1  0.24497000  0.61824723  0.24742447  1
  Pb  Pb200  1  0.25117147  0.95439767  0.25471308  1
  Pb  Pb201  1  0.75178053  0.28718888  0.24860225  1
  Pb  Pb202  1  0.74640227  0.61941073  0.24534035  1
  Pb  Pb203  1  0.74427824  0.94965124  0.24976686  1
  Pb  Pb204  1  0.00116684  0.21490883  0.75107232  1
  Pb  Pb205  1  0.00279418  0.54680954  0.75091518  1
  Pb  Pb206  1  0.00510615  0.88327530  0.74682069  1
  Pb  Pb207  1  0.50193045  0.21365559  0.75448481  1
  Pb  Pb208  1  0.50563861  0.55038772  0.75342145  1
  Pb  Pb209  1  0.49905303  0.88062853  0.74696839  1
  Pb  Pb210  1  -0.00991590  0.11657151  0.24986853  1
  Pb  Pb211  1  -0.00514983  0.45311455  0.25468408  1
  Pb  Pb212  1  -0.00228066  0.78560468  0.25645889  1
  Pb  Pb213  1  0.49612340  0.12007491  0.24317719  1
  Pb  Pb214  1  0.49288511  0.44921959  0.24651051  1
  Pb  Pb215  1  0.49058741  0.78549046  0.24165810  1
  C  C216  1  0.00654896  0.04574772  0.63291460  1
  C  C217  1  0.00728482  0.37814775  0.63378477  1
  C  C218  1  -0.00179303  0.70986618  0.62917975  1
  C  C219  1  0.50288114  0.04651915  0.62946269  1
  C  C220  1  0.50499630  0.37799422  0.63452892  1
  C  C221  1  0.50085216  0.71171646  0.63055571  1
  C  C222  1  0.00153852  0.28953634  0.12794015  1
  C  C223  1  -0.00035894  0.62085693  0.13372372  1
  C  C224  1  -0.00119077  0.95379476  0.13485172  1
  C  C225  1  0.50527768  0.28729113  0.13390738  1
  C  C226  1  0.50097676  0.61849298  0.12833773  1
  C  C227  1  0.50250127  0.95378783  0.13142502  1
  C  C228  1  0.00133133  0.04448785  0.86704795  1
  C  C229  1  -0.00188010  0.37853636  0.86896289  1
  C  C230  1  0.00355390  0.71140941  0.87054529  1
  C  C231  1  0.50709821  0.04395420  0.86922509  1
  C  C232  1  0.50797275  0.37827145  0.86936478  1
  C  C233  1  0.50599596  0.71405438  0.86871487  1
  C  C234  1  0.00544521  0.28681370  0.36591027  1
  C  C235  1  0.00157543  0.62160276  0.37049633  1
  C  C236  1  0.00371453  0.95544581  0.36902556  1
  C  C237  1  0.50272769  0.28714502  0.36855084  1
  C  C238  1  0.49885475  0.62248137  0.36602892  1
  C  C239  1  0.50375295  0.95401268  0.37097626  1
  C  C240  1  0.25018896  0.21191723  0.62885098  1
  C  C241  1  0.25146206  0.54654454  0.63130181  1
  C  C242  1  0.24847300  0.87823596  0.62876795  1
  C  C243  1  0.74751307  0.21218353  0.63221864  1
  C  C244  1  0.75082355  0.54650155  0.63174202  1
  C  C245  1  0.74399664  0.87912952  0.63200841  1
  C  C246  1  0.24487581  0.12094185  0.13448116  1
  C  C247  1  0.25095737  0.45528848  0.13300919  1
  C  C248  1  0.24136997  0.78748416  0.13361472  1
  C  C249  1  0.74270323  0.12278038  0.13001514  1
  C  C250  1  0.74505187  0.45290840  0.13031859  1
  C  C251  1  0.74534930  0.78848895  0.13273259  1
  C  C252  1  0.24374441  0.21454496  0.86841584  1
  C  C253  1  0.24429686  0.54521355  0.86892363  1
  C  C254  1  0.24899165  0.87812370  0.86598629  1
  C  C255  1  0.74132974  0.21517814  0.87051024  1
  C  C256  1  0.75182189  0.54380939  0.86738720  1
  C  C257  1  0.74846959  0.87977214  0.86727440  1
  C  C258  1  0.24594717  0.12183333  0.36930102  1
  C  C259  1  0.24464754  0.45583432  0.37120904  1
  C  C260  1  0.24743793  0.78702555  0.37531715  1
  C  C261  1  0.74489623  0.12049433  0.36799478  1
  C  C262  1  0.74682377  0.45733354  0.36838363  1
  C  C263  1  0.75102681  0.78803735  0.36586745  1
  C  C264  1  0.78148295  0.24036165  0.53748177  1
  C  C265  1  0.48715512  0.25890091  0.03824131  1
  C  C266  1  0.71664752  0.57305099  0.53747157  1
  C  C267  1  0.76187465  0.76144606  0.03640032  1
  C  C268  1  0.05528975  0.92977354  0.04548893  1
  C  C269  1  0.19936146  0.90673660  0.53757423  1
  C  C270  1  0.56607094  0.40975396  0.95603467  1
  C  C271  1  0.76718461  0.90655873  0.53570763  1
  C  C272  1  0.47870339  0.40169428  0.53719443  1
  C  C273  1  0.18078506  0.23779089  0.95507382  1
  C  C274  1  0.28320799  0.09315100  0.46144367  1
  C  C275  1  0.98782932  0.40584605  0.53805310  1
  C  C276  1  0.04472156  0.25754352  0.45788653  1
  C  C277  1  0.06619765  0.92651159  0.45441464  1
  C  C278  1  0.77655711  0.90618039  0.96396097  1
  C  C279  1  0.77601375  0.56934267  0.96299665  1
  C  C280  1  0.79839004  0.57219014  0.54051680  1
  C  C281  1  0.27873127  0.23899407  0.53315110  1
  C  C282  1  0.52887857  0.73901764  0.53396487  1
  C  C283  1  0.71195578  0.42121470  0.03816840  1
  C  C284  1  0.19743233  0.23680794  0.53779463  1
  C  C285  1  0.98005423  0.07540756  0.53901722  1
  C  C286  1  0.97380815  0.92763280  0.03786981  1
  C  C287  1  0.55359288  0.25961230  0.45774063  1
  C  C288  1  0.28055489  0.90858644  0.53502285  1
  C  C289  1  0.97392173  0.40559988  0.96526855  1
  C  C290  1  0.05487093  0.40442758  0.95816407  1
  C  C291  1  0.18392561  0.09935041  0.04638902  1
  C  C292  1  0.44773279  0.73787649  0.54091757  1
  C  C293  1  0.68552203  0.42858877  0.45417828  1
  C  C294  1  0.94612782  0.59397028  0.45973695  1
  C  C295  1  0.47017159  0.74379017  0.96184174  1
  C  C296  1  0.26122025  0.24047811  0.96652506  1
  C  C297  1  0.76802642  0.09330786  0.46437472  1
  C  C298  1  0.02740484  0.59241177  0.46593496  1
  C  C299  1  0.28727931  0.90544222  0.95842967  1
  C  C300  1  0.97833180  0.25653148  0.03423883  1
  C  C301  1  0.69929125  0.23908147  0.54067403  1
  C  C302  1  0.54123956  0.59495971  0.45706555  1
  C  C303  1  0.76291540  0.75781798  0.46328624  1
  C  C304  1  0.45450329  0.92326368  0.04257432  1
  C  C305  1  0.48008690  0.07684614  0.53461862  1
  C  C306  1  0.48093398  0.92252654  0.46546079  1
  C  C307  1  0.23598430  0.75335643  0.47181551  1
  C  C308  1  0.26476404  0.09585778  0.03654352  1
  C  C309  1  0.56021170  0.40292528  0.54484289  1
  C  C310  1  0.68330744  0.76295713  0.44972507  1
  C  C311  1  0.69554566  0.90506663  0.95694720  1
  N  N312  1  0.06140258  0.73316205  0.95727062  1
  N  N313  1  0.26263883  0.42589593  0.03854878  1
  N  N314  1  0.98358806  0.74526496  0.96346738  1
  N  N315  1  0.98832464  0.92295276  0.46320823  1
  N  N316  1  0.29556057  0.57393588  0.95844704  1
  N  N317  1  0.04278356  0.59218323  0.04193522  1
  N  N318  1  0.68939679  0.09377174  0.45483311  1
  N  N319  1  0.56567719  0.26216002  0.04616687  1
  N  N320  1  0.21428513  0.57620980  0.53843965  1
  N  N321  1  0.55721399  0.07561830  0.54056023  1
  N  N322  1  0.98498730  0.07758729  0.95982775  1
  N  N323  1  0.77758391  0.24282730  0.96442233  1
  N  N324  1  0.76358873  0.42665872  0.46295448  1
  N  N325  1  0.26978935  0.76063018  0.03805105  1
  N  N326  1  0.96705431  0.25828537  0.46037034  1
  N  N327  1  0.69961490  0.24332430  0.96004731  1
  N  N328  1  0.06625770  0.40163819  0.54514110  1
  N  N329  1  0.69692122  0.56893926  0.95759350  1
  N  N330  1  0.68352971  0.76419146  0.04516301  1
  N  N331  1  0.48251690  0.07730497  0.96144271  1
  N  N332  1  0.56009082  0.06509703  0.95792356  1
  N  N333  1  0.46215257  0.59309600  0.46028570  1
  N  N334  1  0.54967251  0.74410256  0.95841312  1
  N  N335  1  0.75694831  0.09212484  0.03618386  1
  N  N336  1  0.05894101  0.07357679  0.54290089  1
  N  N337  1  0.96597220  0.59181602  0.03974208  1
  N  N338  1  0.05536124  0.25803328  0.04048165  1
  N  N339  1  0.29045480  0.57574678  0.53870407  1
  N  N340  1  0.47657781  0.25744888  0.46499657  1
  N  N341  1  0.19331959  0.76226153  0.04243240  1
  N  N342  1  0.06192505  0.07454308  0.95177628  1
  N  N343  1  0.78922678  0.42243566  0.03827220  1
  N  N344  1  0.54425450  0.59558376  0.03672150  1
  N  N345  1  0.53177335  0.92231531  0.03620654  1
  N  N346  1  0.20780288  0.90703153  0.95923819  1
  N  N347  1  0.20608647  0.09253398  0.46273817  1
  N  N348  1  0.46555860  0.58345448  0.03859893  1
  N  N349  1  0.97633140  0.74065875  0.53655459  1
  N  N350  1  0.55800539  0.92308121  0.45937419  1
  N  N351  1  0.68854748  0.90563593  0.54499113  1
  N  N352  1  0.21733739  0.57558465  0.96081044  1
  N  N353  1  0.31247460  0.75998431  0.45847170  1
  N  N354  1  0.26848845  0.42151714  0.46326500  1
  N  N355  1  0.19077645  0.43332552  0.45921918  1
  N  N356  1  0.68006904  0.09547816  0.04521792  1
  N  N357  1  0.48768695  0.40981637  0.96315932  1
  N  N358  1  0.05383954  0.73998363  0.54212319  1
  N  N359  1  0.18607343  0.42896890  0.04874189  1
  N  N360  1  0.07376918  0.05512240  0.60135964  1
  N  N361  1  0.07699824  0.38452239  0.60515312  1
  N  N362  1  0.06680630  0.72224594  0.60024669  1
  N  N363  1  0.57166421  0.05645905  0.60088127  1
  N  N364  1  0.57479801  0.38826407  0.60552330  1
  N  N365  1  0.56083204  0.72243300  0.59137332  1
  N  N366  1  0.44874546  0.27396101  0.09178789  1
  N  N367  1  0.43855246  0.60904842  0.09157614  1
  N  N368  1  0.43409420  0.94210251  0.10020863  1
  N  N369  1  0.94314020  0.27542937  0.08704380  1
  N  N370  1  0.93821414  0.60912878  0.09657238  1
  N  N371  1  0.93985887  0.94243032  0.09409436  1
  N  N372  1  0.44893282  0.05413754  0.90985800  1
  N  N373  1  0.45078716  0.38818336  0.91074274  1
  N  N374  1  0.44270357  0.72543451  0.90616833  1
  N  N375  1  0.94654104  0.05599937  0.90987682  1
  N  N376  1  0.93984650  0.39008811  0.91161956  1
  N  N377  1  0.94738077  0.72132137  0.91285685  1
  N  N378  1  0.07061527  0.27462376  0.40075901  1
  N  N379  1  0.06088025  0.60903390  0.41222999  1
  N  N380  1  0.07604790  0.94527378  0.39569488  1
  N  N381  1  0.57204331  0.27712764  0.39895649  1
  N  N382  1  0.56530943  0.61234693  0.39942817  1
  N  N383  1  0.57251921  0.94294187  0.39919954  1
  N  N384  1  0.31060146  0.22406052  0.58791480  1
  N  N385  1  0.31521840  0.55735697  0.59624397  1
  N  N386  1  0.31015337  0.89150430  0.58975772  1
  N  N387  1  0.81001335  0.22370227  0.59478842  1
  N  N388  1  0.81821299  0.55631994  0.59854435  1
  N  N389  1  0.80201471  0.89076309  0.58989210  1
  N  N390  1  0.17295135  0.11468214  0.10713268  1
  N  N391  1  0.17921863  0.44529760  0.10797434  1
  N  N392  1  0.17434767  0.77879743  0.10173302  1
  N  N393  1  0.67161417  0.11205920  0.10442512  1
  N  N394  1  0.68186862  0.43961063  0.09353590  1
  N  N395  1  0.67497984  0.78129072  0.10535052  1
  N  N396  1  0.17140704  0.22205875  0.89446757  1
  N  N397  1  0.18450167  0.55614785  0.90760656  1
  N  N398  1  0.18561029  0.88986665  0.90105629  1
  N  N399  1  0.67591938  0.22590958  0.90348176  1
  N  N400  1  0.68378420  0.55336335  0.89750548  1
  N  N401  1  0.67905123  0.88933783  0.89865249  1
  N  N402  1  0.31062932  0.11069761  0.40515792  1
  N  N403  1  0.30259285  0.44524436  0.41187058  1
  N  N404  1  0.31986394  0.78110129  0.39920850  1
  N  N405  1  0.80301318  0.10922413  0.41027004  1
  N  N406  1  0.80234667  0.44728638  0.41084842  1
  N  N407  1  0.80433264  0.77417065  0.40980223  1
  N  N408  1  0.44463353  0.27504498  0.40830507  1
  N  N409  1  0.43727447  0.61051226  0.40303954  1
  N  N410  1  0.44554761  0.94114674  0.41249488  1
  N  N411  1  0.94260449  0.27689107  0.40175207  1
  N  N412  1  0.93185846  0.61201743  0.39910214  1
  N  N413  1  0.94864247  0.94331695  0.41126257  1
  N  N414  1  0.07176772  0.05597151  0.89347136  1
  N  N415  1  0.06852768  0.38753645  0.89703370  1
  N  N416  1  0.07365407  0.72201283  0.89716769  1
  N  N417  1  0.57582929  0.05414561  0.89822911  1
  N  N418  1  0.57873365  0.39091745  0.89772498  1
  N  N419  1  0.57161664  0.72468952  0.90137648  1
  N  N420  1  0.07044519  0.27874912  0.09948366  1
  N  N421  1  0.06468088  0.61030726  0.10008537  1
  N  N422  1  0.06914656  0.94583021  0.10581470  1
  N  N423  1  0.57520921  0.27999527  0.10596264  1
  N  N424  1  0.56620929  0.60591035  0.09584653  1
  N  N425  1  0.56189619  0.94153742  0.09288637  1
  N  N426  1  0.44460526  0.05909731  0.58792304  1
  N  N427  1  0.44563681  0.38606222  0.59335978  1
  N  N428  1  0.43133736  0.72183825  0.59972120  1
  N  N429  1  0.94606250  0.05829125  0.59385693  1
  N  N430  1  0.95033795  0.39128610  0.59194334  1
  N  N431  1  0.94058060  0.72042717  0.58832150  1
  N  N432  1  0.18231048  0.11067113  0.40410405  1
  N  N433  1  0.17566746  0.44504770  0.39961998  1
  N  N434  1  0.19513875  0.77027449  0.42051460  1
  N  N435  1  0.67541832  0.11133645  0.39583449  1
  N  N436  1  0.67464333  0.44614893  0.39524417  1
  N  N437  1  0.67687714  0.78093869  0.39087829  1
  N  N438  1  0.29954900  0.22582557  0.91183984  1
  N  N439  1  0.31141905  0.55686105  0.90024078  1
  N  N440  1  0.31362721  0.88830913  0.90140195  1
  N  N441  1  0.80309380  0.22603575  0.90818447  1
  N  N442  1  0.81109061  0.55441529  0.90807381  1
  N  N443  1  0.80880291  0.89037722  0.90665227  1
  N  N444  1  0.30143703  0.10972521  0.09183917  1
  N  N445  1  0.30376475  0.44449357  0.08857416  1
  N  N446  1  0.30063764  0.77620621  0.09427459  1
  N  N447  1  0.79647198  0.11220854  0.08626601  1
  N  N448  1  0.81011061  0.44259061  0.09694523  1
  N  N449  1  0.80119242  0.77621019  0.08975006  1
  N  N450  1  0.18120131  0.22011314  0.59871232  1
  N  N451  1  0.18845932  0.55811676  0.59569588  1
  N  N452  1  0.18064183  0.88787560  0.59746196  1
  N  N453  1  0.67999035  0.22180257  0.59996835  1
  N  N454  1  0.68854344  0.55749557  0.59355706  1
  N  N455  1  0.67461339  0.88760701  0.60381456  1
  Cl  Cl456  1  0.26081618  0.05325652  0.61801527  1
  Cl  Cl457  1  0.26211186  0.39322001  0.61377121  1
  Cl  Cl458  1  0.24883373  0.72546906  0.61605402  1
  Cl  Cl459  1  0.76017896  0.05559643  0.61610635  1
  Cl  Cl460  1  0.76625522  0.39629544  0.60442860  1
  Cl  Cl461  1  0.75610970  0.72097237  0.61393641  1
  Cl  Cl462  1  0.26253329  0.28109919  0.11637902  1
  Cl  Cl463  1  0.25017911  0.60692733  0.11003018  1
  Cl  Cl464  1  0.25330486  0.94627101  0.12365773  1
  Cl  Cl465  1  0.75990849  0.27925144  0.11641776  1
  Cl  Cl466  1  0.75232511  0.61205091  0.10915100  1
  Cl  Cl467  1  0.75166754  0.94769787  0.11569476  1
  Cl  Cl468  1  0.26542594  0.05621747  0.88554908  1
  Cl  Cl469  1  0.26981945  0.39924141  0.89723529  1
  Cl  Cl470  1  0.25646801  0.71724999  0.88131342  1
  Cl  Cl471  1  0.76378446  0.06197223  0.89788157  1
  Cl  Cl472  1  0.75944492  0.38565512  0.87329968  1
  Cl  Cl473  1  0.76282467  0.72623270  0.88731756  1
  Cl  Cl474  1  0.25628940  0.27959205  0.38546565  1
  Cl  Cl475  1  0.24870232  0.61690116  0.37910798  1
  Cl  Cl476  1  0.25979770  0.94597785  0.38870514  1
  Cl  Cl477  1  0.75695901  0.28226080  0.38343668  1
  Cl  Cl478  1  0.74703456  0.61509777  0.37461078  1
  Cl  Cl479  1  0.76349983  0.94246387  0.38879477  1
  Cl  Cl480  1  -0.00524612  0.21751289  0.62345179  1
  Cl  Cl481  1  0.00386503  0.55519225  0.61659722  1
  Cl  Cl482  1  -0.01418059  0.89122995  0.60569554  1
  Cl  Cl483  1  0.49496835  0.21514682  0.62574131  1
  Cl  Cl484  1  0.50115244  0.55655039  0.62209750  1
  Cl  Cl485  1  0.49324930  0.88832825  0.61370246  1
  Cl  Cl486  1  -0.02411269  0.10623197  0.10123367  1
  Cl  Cl487  1  -0.00590195  0.44639904  0.12374185  1
  Cl  Cl488  1  -0.01281818  0.76816759  0.11135492  1
  Cl  Cl489  1  0.48581918  0.10248774  0.10443845  1
  Cl  Cl490  1  0.48782067  0.43997360  0.10185369  1
  Cl  Cl491  1  0.48597426  0.77595105  0.10587791  1
  Cl  Cl492  1  -0.01527000  0.22114207  0.88517098  1
  Cl  Cl493  1  -0.00023039  0.55409037  0.88321110  1
  Cl  Cl494  1  -0.00314973  0.88604635  0.88132003  1
  Cl  Cl495  1  0.48783673  0.22235514  0.89153843  1
  Cl  Cl496  1  0.49611037  0.55451846  0.89092571  1
  Cl  Cl497  1  0.49630380  0.88489321  0.87776045  1
  Cl  Cl498  1  -0.01028515  0.11019483  0.38441057  1
  Cl  Cl499  1  -0.01139401  0.44469997  0.39179636  1
  Cl  Cl500  1  -0.00528606  0.77426576  0.39318245  1
  Cl  Cl501  1  0.49376993  0.11588876  0.37422017  1
  Cl  Cl502  1  0.48492584  0.44082882  0.38013256  1
  Cl  Cl503  1  0.49775722  0.78454746  0.37223891  1
  Cl  Cl504  1  0.35066202  0.15298564  0.75183840  1
  Cl  Cl505  1  0.35752905  0.48106847  0.75500980  1
  Cl  Cl506  1  0.35840795  0.81725067  0.74566784  1
  Cl  Cl507  1  0.85381789  0.15254959  0.75251555  1
  Cl  Cl508  1  0.85876776  0.48613504  0.74592576  1
  Cl  Cl509  1  0.85313148  0.81705375  0.74774030  1
  Cl  Cl510  1  0.13513397  0.19017080  0.24498161  1
  Cl  Cl511  1  0.13770821  0.52035288  0.25185585  1
  Cl  Cl512  1  0.13227639  0.85662732  0.25453066  1
  Cl  Cl513  1  0.63282507  0.18986934  0.24434793  1
  Cl  Cl514  1  0.63252455  0.52147025  0.25003667  1
  Cl  Cl515  1  0.63808649  0.85631312  0.25216471  1
  Cl  Cl516  1  0.13108421  0.14120933  0.75719181  1
  Cl  Cl517  1  0.13872210  0.47722822  0.74902222  1
  Cl  Cl518  1  0.13696717  0.81334404  0.75012937  1
  Cl  Cl519  1  0.63605355  0.14386183  0.75612071  1
  Cl  Cl520  1  0.63595716  0.47711614  0.75306012  1
  Cl  Cl521  1  0.63299400  0.80986425  0.75086001  1
  Cl  Cl522  1  0.35671903  0.18257862  0.24655921  1
  Cl  Cl523  1  0.35871127  0.51792308  0.24818685  1
  Cl  Cl524  1  0.35200155  0.84752300  0.25304095  1
  Cl  Cl525  1  0.85280188  0.18007906  0.25130911  1
  Cl  Cl526  1  0.85476255  0.51667085  0.24950289  1
  Cl  Cl527  1  0.86136449  0.85186003  0.24595457  1
  Cl  Cl528  1  0.11608389  0.30994451  0.75962695  1
  Cl  Cl529  1  0.11322561  0.64826050  0.75148099  1
  Cl  Cl530  1  0.11178598  0.97664537  0.75286164  1
  Cl  Cl531  1  0.61733176  0.31105759  0.74925716  1
  Cl  Cl532  1  0.61078271  0.64471783  0.75946015  1
  Cl  Cl533  1  0.62063382  0.97620722  0.75082231  1
  Cl  Cl534  1  0.39501928  0.01371574  0.24834347  1
  Cl  Cl535  1  0.39494502  0.35024659  0.24933900  1
  Cl  Cl536  1  0.39749544  0.68338578  0.24528063  1
  Cl  Cl537  1  0.89485466  0.01750278  0.25303338  1
  Cl  Cl538  1  0.89678178  0.34564864  0.25053701  1
  Cl  Cl539  1  0.88683622  0.68459840  0.25450895  1
  Cl  Cl540  1  0.39546922  0.31781929  0.75232235  1
  Cl  Cl541  1  0.39145222  0.64901354  0.75121977  1
  Cl  Cl542  1  0.39831593  0.98708080  0.75146127  1
  Cl  Cl543  1  0.89455491  0.31812003  0.74739993  1
  Cl  Cl544  1  0.89485203  0.65083280  0.75126365  1
  Cl  Cl545  1  0.89204551  0.98376266  0.75245408  1
  Cl  Cl546  1  0.11590081  0.02503138  0.24534877  1
  Cl  Cl547  1  0.11566339  0.35743206  0.24413251  1
  Cl  Cl548  1  0.10960661  0.68613386  0.24779209  1
  Cl  Cl549  1  0.61543265  0.02397552  0.25559651  1
  Cl  Cl550  1  0.61575642  0.35594847  0.24818166  1
  Cl  Cl551  1  0.61458973  0.69226753  0.24035214  1
