# generated using pymatgen
data_H8PbC4(N3Cl2)2
_symmetry_space_group_name_H-M   'P 1'
_cell_length_a   16.62103328
_cell_length_b   22.50133147
_cell_length_c   21.58732803
_cell_angle_alpha   89.99992617
_cell_angle_beta   89.99037914
_cell_angle_gamma   90.00197780
_symmetry_Int_Tables_number   1
_chemical_formula_structural   H8PbC4(N3Cl2)2
_chemical_formula_sum   'H192 Pb24 C96 N144 Cl96'
_cell_volume   8073.56081298
_cell_formula_units_Z   24
loop_
 _symmetry_equiv_pos_site_id
 _symmetry_equiv_pos_as_xyz
  1  'x, y, z'
loop_
 _atom_site_type_symbol
 _atom_site_label
 _atom_site_symmetry_multiplicity
 _atom_site_fract_x
 _atom_site_fract_y
 _atom_site_fract_z
 _atom_site_occupancy
  H  H0  1  -0.00530974  0.03159270  0.68038339  1
  H  H1  1  -0.00294810  0.36665225  0.68252742  1
  H  H2  1  0.00352197  0.69801821  0.67804050  1
  H  H3  1  0.49969006  0.03196231  0.67747632  1
  H  H4  1  0.49930960  0.36581785  0.67727083  1
  H  H5  1  0.49400554  0.70006010  0.68170047  1
  H  H6  1  0.00112795  0.30076571  0.18107839  1
  H  H7  1  0.00017618  0.63545274  0.17998223  1
  H  H8  1  0.00005845  0.96765957  0.18042414  1
  H  H9  1  0.49549935  0.29948300  0.17962873  1
  H  H10  1  0.49969295  0.63372557  0.17603859  1
  H  H11  1  0.50275973  0.96715414  0.18052379  1
  H  H12  1  0.00258398  0.03319916  0.81883632  1
  H  H13  1  0.00649584  0.36681325  0.82341161  1
  H  H14  1  -0.00235547  0.69835231  0.82101702  1
  H  H15  1  0.50049340  0.03208013  0.81709121  1
  H  H16  1  0.49897506  0.36594200  0.81684501  1
  H  H17  1  0.50576249  0.69729413  0.81992290  1
  H  H18  1  -0.00862860  0.30203178  0.31685211  1
  H  H19  1  0.00396576  0.63473303  0.32069446  1
  H  H20  1  0.00239474  0.96635289  0.32202837  1
  H  H21  1  0.50915586  0.30104160  0.32186446  1
  H  H22  1  0.49925346  0.63575675  0.31770598  1
  H  H23  1  0.50711388  0.96814415  0.31717153  1
  H  H24  1  0.24821265  0.19845909  0.67965713  1
  H  H25  1  0.25596480  0.53402750  0.68088461  1
  H  H26  1  0.25748539  0.86462790  0.68195945  1
  H  H27  1  0.75435561  0.19914363  0.68226850  1
  H  H28  1  0.74261406  0.53335320  0.68150433  1
  H  H29  1  0.74278757  0.86606675  0.67966835  1
  H  H30  1  0.24437324  0.13582504  0.18163072  1
  H  H31  1  0.25836420  0.46936898  0.18019224  1
  H  H32  1  0.24817092  0.79938127  0.18007699  1
  H  H33  1  0.75463465  0.13499280  0.18032079  1
  H  H34  1  0.74071345  0.46823559  0.17839276  1
  H  H35  1  0.74794960  0.79988593  0.17966733  1
  H  H36  1  0.25085389  0.19946445  0.81746756  1
  H  H37  1  0.25309150  0.53292835  0.82054786  1
  H  H38  1  0.24579407  0.86484573  0.82141323  1
  H  H39  1  0.75505506  0.19740925  0.82214930  1
  H  H40  1  0.74591989  0.53310280  0.82129713  1
  H  H41  1  0.74591149  0.86351848  0.82056770  1
  H  H42  1  0.24430792  0.13502358  0.32109148  1
  H  H43  1  0.23879928  0.46683724  0.32078120  1
  H  H44  1  0.25071636  0.79924471  0.32266768  1
  H  H45  1  0.75725826  0.13323549  0.31975098  1
  H  H46  1  0.75734216  0.46686586  0.32058422  1
  H  H47  1  0.74632404  0.80070093  0.31914830  1
  H  H48  1  0.12812527  0.05256726  0.61960428  1
  H  H49  1  0.12908106  0.38733036  0.61651424  1
  H  H50  1  0.12464392  0.72061201  0.60458729  1
  H  H51  1  0.62884647  0.05371868  0.61110510  1
  H  H52  1  0.62653456  0.38531278  0.60820332  1
  H  H53  1  0.62405628  0.72073876  0.61379182  1
  H  H54  1  0.38593825  0.27522901  0.09734263  1
  H  H55  1  0.37405176  0.61297325  0.10869970  1
  H  H56  1  0.36773139  0.94637453  0.11935539  1
  H  H57  1  0.88312684  0.27810623  0.10741187  1
  H  H58  1  0.87205713  0.61495166  0.11316985  1
  H  H59  1  0.86724674  0.94768796  0.11618200  1
  H  H60  1  0.37541822  0.05436064  0.88942687  1
  H  H61  1  0.37465566  0.38802691  0.88644381  1
  H  H62  1  0.37465528  0.71804785  0.88704658  1
  H  H63  1  0.87062099  0.05240263  0.88219302  1
  H  H64  1  0.87298106  0.38708782  0.88520813  1
  H  H65  1  0.87491009  0.72112256  0.89321136  1
  H  H66  1  0.12547802  0.28139914  0.38014980  1
  H  H67  1  0.12098564  0.61176485  0.39907926  1
  H  H68  1  0.11899658  0.94521562  0.39981415  1
  H  H69  1  0.62150024  0.27452053  0.40132123  1
  H  H70  1  0.62331237  0.61269691  0.38734904  1
  H  H71  1  0.62043009  0.94437652  0.39614828  1
  H  H72  1  0.37696563  0.21991100  0.61243280  1
  H  H73  1  0.36982984  0.55468789  0.60334993  1
  H  H74  1  0.37743244  0.88748181  0.60694343  1
  H  H75  1  0.87193627  0.22167035  0.60524136  1
  H  H76  1  0.87787566  0.55161485  0.62369778  1
  H  H77  1  0.88239332  0.88232326  0.62640657  1
  H  H78  1  0.12742998  0.11118278  0.10460853  1
  H  H79  1  0.12429104  0.44716212  0.11815967  1
  H  H80  1  0.12701645  0.77854654  0.10539348  1
  H  H81  1  0.62511270  0.11323226  0.11538851  1
  H  H82  1  0.63394214  0.44281037  0.09434058  1
  H  H83  1  0.62609957  0.77685165  0.10695073  1
  H  H84  1  0.11945354  0.22029279  0.88424208  1
  H  H85  1  0.12769268  0.55241738  0.88872216  1
  H  H86  1  0.13586877  0.89042844  0.90339371  1
  H  H87  1  0.61986857  0.21663071  0.88283818  1
  H  H88  1  0.62797048  0.55654835  0.89786472  1
  H  H89  1  0.63513106  0.89065734  0.90231631  1
  H  H90  1  0.37206134  0.11323833  0.38932356  1
  H  H91  1  0.37354507  0.44681072  0.38179842  1
  H  H92  1  0.37463303  0.77954663  0.39203559  1
  H  H93  1  0.86301210  0.10883851  0.40310303  1
  H  H94  1  0.86634713  0.44208043  0.40388019  1
  H  H95  1  0.87405498  0.77971004  0.38760608  1
  H  H96  1  0.37417661  0.28157505  0.38243243  1
  H  H97  1  0.37325248  0.61309876  0.38846629  1
  H  H98  1  0.37251013  0.94791708  0.37976929  1
  H  H99  1  0.87707117  0.27806704  0.39541902  1
  H  H100  1  0.87274333  0.61297544  0.38449309  1
  H  H101  1  0.87109006  0.94441223  0.38588323  1
  H  H102  1  0.11965267  0.05439498  0.89411415  1
  H  H103  1  0.12064015  0.39039738  0.90263152  1
  H  H104  1  0.12408789  0.72033132  0.89078428  1
  H  H105  1  0.62446605  0.05384652  0.88771479  1
  H  H106  1  0.62456798  0.38695961  0.88533095  1
  H  H107  1  0.62287057  0.72118972  0.89790306  1
  H  H108  1  0.13214780  0.28227823  0.11625382  1
  H  H109  1  0.12080045  0.61154811  0.10545745  1
  H  H110  1  0.11624033  0.94379434  0.10357257  1
  H  H111  1  0.63302653  0.28151946  0.12228142  1
  H  H112  1  0.62283938  0.61348018  0.10615256  1
  H  H113  1  0.61602714  0.94310196  0.10137463  1
  H  H114  1  0.38047853  0.05685064  0.60414282  1
  H  H115  1  0.37828344  0.39066152  0.60496588  1
  H  H116  1  0.37560806  0.72207639  0.60366780  1
  H  H117  1  0.87945439  0.05624428  0.60152800  1
  H  H118  1  0.88016499  0.38953777  0.60520490  1
  H  H119  1  0.87547433  0.72173970  0.61085744  1
  H  H120  1  0.12291947  0.11045742  0.39339779  1
  H  H121  1  0.12596883  0.44467397  0.40161498  1
  H  H122  1  0.12552735  0.77886667  0.39085603  1
  H  H123  1  0.61695779  0.11771939  0.37316976  1
  H  H124  1  0.61981649  0.44750542  0.37630594  1
  H  H125  1  0.62578855  0.77861935  0.39510715  1
  H  H126  1  0.36840369  0.22249223  0.89408140  1
  H  H127  1  0.37724004  0.55521936  0.89142827  1
  H  H128  1  0.38256756  0.88529007  0.87771238  1
  H  H129  1  0.86687081  0.22434866  0.90155410  1
  H  H130  1  0.87652644  0.55358654  0.88817997  1
  H  H131  1  0.88114058  0.88472012  0.88024830  1
  H  H132  1  0.37648811  0.11501937  0.11894165  1
  H  H133  1  0.37165433  0.44542234  0.09887115  1
  H  H134  1  0.37596516  0.77780421  0.11045942  1
  H  H135  1  0.87348140  0.11134172  0.10378055  1
  H  H136  1  0.87933569  0.44800788  0.12479917  1
  H  H137  1  0.87514134  0.77874332  0.11024863  1
  H  H138  1  0.12757527  0.22190920  0.60671499  1
  H  H139  1  0.12157535  0.55066358  0.61980719  1
  H  H140  1  0.12825749  0.88507391  0.61351254  1
  H  H141  1  0.62290165  0.21865284  0.61566736  1
  H  H142  1  0.63010313  0.55596113  0.60213950  1
  H  H143  1  0.63656285  0.89069746  0.59714296  1
  H  H144  1  0.55318820  0.91545002  -0.00596380  1
  H  H145  1  0.45598042  0.24907060  -0.00417623  1
  H  H146  1  0.91885871  0.74985509  0.50510547  1
  H  H147  1  0.32196838  0.91293144  0.49864750  1
  H  H148  1  0.58597344  0.41674338  0.50367593  1
  H  H149  1  0.83633803  0.58410579  0.99289231  1
  H  H150  1  0.68337263  0.75029008  0.49787637  1
  H  H151  1  0.20594057  0.91415239  1.00534677  1
  H  H152  1  0.18834071  0.09245202  -0.00073541  1
  H  H153  1  0.79464477  0.41681901  0.50475870  1
  H  H154  1  0.16990079  0.58284717  1.00041091  1
  H  H155  1  0.17779095  0.25215117  0.49823200  1
  H  H156  1  0.32820646  0.74660272  0.00656895  1
  H  H157  1  0.57558450  0.59011061  0.50023720  1
  H  H158  1  0.30130419  0.42371965  -0.00395420  1
  H  H159  1  0.90180512  0.91869720  0.00962411  1
  H  H160  1  0.33658514  0.24858086  0.50658538  1
  H  H161  1  0.42096523  0.41597488  0.99835436  1
  H  H162  1  0.70633137  0.91510671  1.00370395  1
  H  H163  1  0.32829847  0.08419289  0.49480184  1
  H  H164  1  0.94084474  0.41737991  0.49795377  1
  H  H165  1  0.05779245  0.91630196  -0.00483966  1
  H  H166  1  0.55572233  0.91776788  0.50316309  1
  H  H167  1  0.70671160  0.91705325  0.49095924  1
  H  H168  1  0.09837714  0.08145468  0.50661073  1
  H  H169  1  0.34345909  0.08526588  0.00713980  1
  H  H170  1  0.05643653  0.90530527  0.49598317  1
  H  H171  1  0.43148247  0.40939399  0.50003912  1
  H  H172  1  0.30866716  0.25003511  1.00178783  1
  H  H173  1  0.69270237  0.58123979  0.49359956  1
  H  H174  1  0.94151331  0.25142730  0.50273500  1
  H  H175  1  0.93788243  0.25073566  -0.00385129  1
  H  H176  1  0.58063606  0.41565818  0.99738631  1
  H  H177  1  0.70770364  0.42046408  -0.00683852  1
  H  H178  1  0.39659431  0.91982040  0.01023351  1
  H  H179  1  0.59323168  0.08476389  0.50445752  1
  H  H180  1  0.79292786  0.08305763  0.50856280  1
  H  H181  1  0.57781529  0.08235829  0.99723414  1
  H  H182  1  0.64767045  0.24980184  0.98982784  1
  H  H183  1  0.42343768  0.59932484  0.49631385  1
  H  H184  1  0.30801208  0.58034154  0.49246640  1
  H  H185  1  0.06245052  0.08316568  1.00467601  1
  H  H186  1  0.85551469  0.57962937  0.50937109  1
  H  H187  1  0.81101982  0.24757342  0.49683240  1
  H  H188  1  0.94246266  0.08003695  0.49800925  1
  H  H189  1  0.79674032  0.23678403  1.00486783  1
  H  H190  1  0.90301254  0.91906863  0.49475061  1
  H  H191  1  0.90414225  0.41448526  0.99456012  1
  Pb  Pb192  1  0.25256921  0.04702201  0.75217343  1
  Pb  Pb193  1  0.24555316  0.38092150  0.75429939  1
  Pb  Pb194  1  0.25154945  0.71232204  0.75105434  1
  Pb  Pb195  1  0.74912962  0.04607637  0.74654117  1
  Pb  Pb196  1  0.75101143  0.38205111  0.74717958  1
  Pb  Pb197  1  0.75157592  0.71290106  0.74841169  1
  Pb  Pb198  1  0.24861867  0.28695097  0.24975448  1
  Pb  Pb199  1  0.24898231  0.62134648  0.25134488  1
  Pb  Pb200  1  0.24708512  0.94972068  0.24903130  1
  Pb  Pb201  1  0.75208251  0.28573830  0.25096425  1
  Pb  Pb202  1  0.74654688  0.61885613  0.24846816  1
  Pb  Pb203  1  0.74316426  0.95215900  0.24716562  1
  Pb  Pb204  1  -0.00225061  0.21250250  0.74911072  1
  Pb  Pb205  1  0.00153225  0.54756113  0.75433852  1
  Pb  Pb206  1  0.00499753  0.88019008  0.75285977  1
  Pb  Pb207  1  0.49719537  0.21475681  0.75427328  1
  Pb  Pb208  1  0.49775831  0.54711366  0.74435532  1
  Pb  Pb209  1  0.50328709  0.87968736  0.74848327  1
  Pb  Pb210  1  -0.00133532  0.11578176  0.25260358  1
  Pb  Pb211  1  0.00021781  0.45543613  0.25550887  1
  Pb  Pb212  1  -0.00532670  0.78495409  0.25140355  1
  Pb  Pb213  1  0.49660810  0.12096342  0.25076991  1
  Pb  Pb214  1  0.49625542  0.45179439  0.24494037  1
  Pb  Pb215  1  0.49868169  0.78554424  0.24995669  1
  C  C216  1  0.00053129  0.04635064  0.63262136  1
  C  C217  1  0.00229817  0.38078790  0.63466343  1
  C  C218  1  0.00075026  0.71348365  0.63060102  1
  C  C219  1  0.50348396  0.04739925  0.63001249  1
  C  C220  1  0.50149712  0.38040755  0.62928503  1
  C  C221  1  0.49796646  0.71395510  0.63364860  1
  C  C222  1  0.00529570  0.28695761  0.13319287  1
  C  C223  1  -0.00217035  0.62070255  0.13241121  1
  C  C224  1  -0.00617101  0.95311243  0.13261339  1
  C  C225  1  0.50465731  0.28569781  0.13193624  1
  C  C226  1  0.49885427  0.61962542  0.12804577  1
  C  C227  1  0.49476219  0.95256103  0.13292298  1
  C  C228  1  -0.00213983  0.04676355  0.86682496  1
  C  C229  1  -0.00046927  0.38095642  0.87107938  1
  C  C230  1  -0.00088830  0.71322168  0.86856687  1
  C  C231  1  0.49978404  0.04681481  0.86497824  1
  C  C232  1  0.49941841  0.38024927  0.86491813  1
  C  C233  1  0.50093705  0.71167016  0.86778019  1
  C  C234  1  -0.00171288  0.28703038  0.36431627  1
  C  C235  1  -0.00060006  0.61987797  0.36820830  1
  C  C236  1  -0.00257130  0.95201519  0.37003235  1
  C  C237  1  0.50127641  0.28601653  0.36899714  1
  C  C238  1  0.49794383  0.62072970  0.36555225  1
  C  C239  1  0.49967461  0.95353471  0.36471690  1
  C  C240  1  0.25130205  0.21380362  0.63196997  1
  C  C241  1  0.24930512  0.54670297  0.63281266  1
  C  C242  1  0.25425597  0.87895470  0.63406884  1
  C  C243  1  0.74950230  0.21345597  0.63439024  1
  C  C244  1  0.75061881  0.54739069  0.63372432  1
  C  C245  1  0.75389306  0.87969945  0.63225525  1
  C  C246  1  0.24921318  0.12087012  0.13380332  1
  C  C247  1  0.25194298  0.45461946  0.13258770  1
  C  C248  1  0.25080338  0.78497722  0.13220790  1
  C  C249  1  0.75137997  0.11994431  0.13286689  1
  C  C250  1  0.75100331  0.45382312  0.13108449  1
  C  C251  1  0.74998982  0.78515443  0.13204430  1
  C  C252  1  0.24584905  0.21392443  0.86524006  1
  C  C253  1  0.25206409  0.54714086  0.86840528  1
  C  C254  1  0.25445637  0.87943451  0.86881521  1
  C  C255  1  0.74693823  0.21302798  0.86944652  1
  C  C256  1  0.75052458  0.54813748  0.86890994  1
  C  C257  1  0.75397473  0.87874374  0.86787780  1
  C  C258  1  0.24691715  0.11974359  0.36864415  1
  C  C259  1  0.24635575  0.45301270  0.36838152  1
  C  C260  1  0.25033224  0.78540533  0.37096918  1
  C  C261  1  0.74578850  0.11998353  0.36724410  1
  C  C262  1  0.74801978  0.45260826  0.36805991  1
  C  C263  1  0.74832708  0.78598270  0.36695676  1
  C  C264  1  0.54134007  0.40507958  0.95863645  1
  C  C265  1  0.81752877  0.90443899  0.54604489  1
  C  C266  1  0.68673904  0.42783815  0.45604651  1
  C  C267  1  0.31391849  0.90584221  0.95636777  1
  C  C268  1  0.97360780  0.26114695  0.45986602  1
  C  C269  1  0.52355571  0.92793309  0.46045486  1
  C  C270  1  0.22256400  0.42664780  0.46417527  1
  C  C271  1  0.02845828  0.40768812  0.96781449  1
  C  C272  1  0.19504468  0.56871547  0.54285556  1
  C  C273  1  0.27442058  0.23928347  0.96022613  1
  C  C274  1  0.30019501  0.09475227  0.04371130  1
  C  C275  1  0.53758370  0.59411076  0.03534246  1
  C  C276  1  0.56427256  0.26273546  0.04330102  1
  C  C277  1  0.03850681  0.74173682  0.53622686  1
  C  C278  1  0.81377032  0.42753158  0.04458418  1
  C  C279  1  0.02781215  0.07250731  0.96338239  1
  C  C280  1  0.05370155  0.07250544  0.54325829  1
  C  C281  1  0.76183547  0.09438176  0.46573191  1
  C  C282  1  0.77752163  0.23837190  0.53913814  1
  C  C283  1  0.96402196  0.74129015  0.96137821  1
  C  C284  1  0.05492744  0.26342950  0.04186557  1
  C  C285  1  0.95231676  0.59225277  0.45868150  1
  C  C286  1  0.73722390  0.90673865  0.53421669  1
  C  C287  1  0.97366627  0.26137775  0.03689046  1
  C  C288  1  0.02429627  0.92693260  0.03707202  1
  C  C289  1  0.53732857  0.07229086  0.95819863  1
  C  C290  1  0.68170318  0.09776737  0.45377320  1
  C  C291  1  0.21522500  0.24085931  0.53780446  1
  C  C292  1  0.21073747  0.57296330  0.96247821  1
  C  C293  1  0.28560064  0.90346149  0.53930881  1
  C  C294  1  0.95435366  0.59411904  0.04070542  1
  C  C295  1  0.80708789  0.57086440  0.54374885  1
  C  C296  1  0.52153236  0.92635345  0.03672530  1
  C  C297  1  0.94655186  0.07156965  0.95745823  1
  C  C298  1  0.52463670  0.25602426  0.46380750  1
  C  C299  1  0.20820932  0.09143342  0.46291206  1
  C  C300  1  0.72548201  0.57195432  0.53611807  1
  C  C301  1  0.45928208  0.40542786  0.95903296  1
  C  C302  1  0.70622503  0.09252998  0.04196945  1
  C  C303  1  0.46847873  0.07664290  0.53513028  1
  C  C304  1  0.45692686  0.59388037  0.03617167  1
  C  C305  1  0.97477051  0.40641881  0.53957530  1
  C  C306  1  0.20945015  0.76045803  0.46290928  1
  C  C307  1  0.53893941  0.59575185  0.45893387  1
  C  C308  1  0.29240615  0.57369286  0.96192016  1
  C  C309  1  0.28969765  0.76067087  0.46330377  1
  C  C310  1  0.71561856  0.75730583  0.03890632  1
  C  C311  1  0.27583784  0.57049854  0.53513527  1
  N  N312  1  0.46670133  0.41412073  0.53899633  1
  N  N313  1  0.29993259  0.42727400  0.45926585  1
  N  N314  1  0.73551445  0.42576992  0.03520671  1
  N  N315  1  0.69287475  0.23424299  0.95789914  1
  N  N316  1  0.45449231  0.73690094  0.95966704  1
  N  N317  1  0.29490898  0.23991813  0.54081663  1
  N  N318  1  0.04137904  0.74139543  0.96180293  1
  N  N319  1  0.54741175  0.07501890  0.53914382  1
  N  N320  1  0.02616112  0.93292251  0.46616369  1
  N  N321  1  0.48576725  0.26031950  0.03582923  1
  N  N322  1  0.79306170  0.75801974  0.03855512  1
  N  N323  1  0.69841722  0.23817696  0.54280442  1
  N  N324  1  0.53084884  0.73827699  0.96326464  1
  N  N325  1  0.95945582  0.74157754  0.53958737  1
  N  N326  1  0.29021823  0.76032996  0.04115110  1
  N  N327  1  0.76531232  0.42579512  0.46401352  1
  N  N328  1  0.81157379  0.90550104  0.95550148  1
  N  N329  1  0.54442616  0.39984937  0.53658204  1
  N  N330  1  0.77090658  0.24520727  0.96249432  1
  N  N331  1  0.27415264  0.42760917  0.03850345  1
  N  N332  1  0.71778603  0.76337917  0.46088495  1
  N  N333  1  0.94826489  0.92238777  0.45779382  1
  N  N334  1  0.22059566  0.09309512  0.03969732  1
  N  N335  1  0.73393095  0.90847336  0.96147510  1
  N  N336  1  0.44459207  0.92882559  0.45494489  1
  N  N337  1  0.44737509  0.25868296  0.45924031  1
  N  N338  1  0.94996246  0.40582023  0.96107166  1
  N  N339  1  0.94506136  0.92819454  0.04278053  1
  N  N340  1  0.44253438  0.92787881  0.04401858  1
  N  N341  1  0.20636202  0.90314673  0.54124277  1
  N  N342  1  0.23545122  0.90747289  0.96408653  1
  N  N343  1  0.54350340  0.73781882  0.54109057  1
  N  N344  1  0.19663748  0.42822750  0.04410120  1
  N  N345  1  0.97422125  0.07438627  0.53839981  1
  N  N346  1  0.05378385  0.40569080  0.54327700  1
  N  N347  1  0.45768594  0.07215860  0.95910355  1
  N  N348  1  0.79446877  0.57370400  0.95869974  1
  N  N349  1  0.78364380  0.09226465  0.03683543  1
  N  N350  1  0.79612223  0.76205814  0.45901009  1
  N  N351  1  0.71637762  0.57415376  0.96394252  1
  N  N352  1  0.45914310  0.59455576  0.45803872  1
  N  N353  1  0.19524267  0.23813145  0.95708259  1
  N  N354  1  0.28741557  0.09273518  0.46030824  1
  N  N355  1  0.03222679  0.59232097  0.03706140  1
  N  N356  1  0.02962089  0.59180682  0.46450266  1
  N  N357  1  0.46683583  0.73842920  0.53782934  1
  N  N358  1  0.21217943  0.76051798  0.03778098  1
  N  N359  1  0.05268464  0.26176041  0.45455801  1
  N  N360  1  0.07015435  0.05616135  0.60216285  1
  N  N361  1  0.06919823  0.38992217  0.60255505  1
  N  N362  1  0.06431410  0.72443757  0.59252691  1
  N  N363  1  0.56929223  0.05698828  0.59743294  1
  N  N364  1  0.56673814  0.38987983  0.59554692  1
  N  N365  1  0.56387432  0.72266347  0.60046103  1
  N  N366  1  0.44833821  0.27502842  0.09043732  1
  N  N367  1  0.43296226  0.60922006  0.09284183  1
  N  N368  1  0.42635316  0.94447151  0.10304608  1
  N  N369  1  0.94370431  0.27627293  0.09515364  1
  N  N370  1  0.93127679  0.61085756  0.09852415  1
  N  N371  1  0.92650166  0.94433801  0.10151821  1
  N  N372  1  0.43622741  0.05650558  0.90053632  1
  N  N373  1  0.43450517  0.38991499  0.90042933  1
  N  N374  1  0.43475823  0.72049008  0.90046905  1
  N  N375  1  0.92901542  0.05625698  0.89919320  1
  N  N376  1  0.93162048  0.38911393  0.90140213  1
  N  N377  1  0.93508565  0.72445818  0.90525440  1
  N  N378  1  0.06603941  0.27789634  0.39498824  1
  N  N379  1  0.05916542  0.60965012  0.40701445  1
  N  N380  1  0.05746872  0.94062131  0.40846287  1
  N  N381  1  0.56019577  0.27252089  0.40991055  1
  N  N382  1  0.56325359  0.60960170  0.40113119  1
  N  N383  1  0.55894529  0.94295918  0.40544043  1
  N  N384  1  0.31682422  0.22320160  0.59880101  1
  N  N385  1  0.30899888  0.55653954  0.59256841  1
  N  N386  1  0.31664210  0.88922463  0.59604140  1
  N  N387  1  0.81061583  0.22372166  0.59513384  1
  N  N388  1  0.82068250  0.55580048  0.60468035  1
  N  N389  1  0.82674060  0.88796385  0.60553793  1
  N  N390  1  0.18921667  0.11197949  0.09465392  1
  N  N391  1  0.18344700  0.44349004  0.10297222  1
  N  N392  1  0.18808896  0.77621247  0.09477100  1
  N  N393  1  0.68400623  0.10919365  0.09998101  1
  N  N394  1  0.69588979  0.44454163  0.08812943  1
  N  N395  1  0.68632782  0.77379161  0.09504184  1
  N  N396  1  0.17927312  0.22278288  0.89774686  1
  N  N397  1  0.18694477  0.55644357  0.90316988  1
  N  N398  1  0.19801906  0.88920774  0.91047473  1
  N  N399  1  0.67801797  0.22382333  0.89806239  1
  N  N400  1  0.68944851  0.55833392  0.90756299  1
  N  N401  1  0.69738955  0.88956206  0.90939119  1
  N  N402  1  0.31169874  0.11043362  0.40237336  1
  N  N403  1  0.31464160  0.44407030  0.39805754  1
  N  N404  1  0.31550314  0.77568144  0.40720996  1
  N  N405  1  0.80097959  0.10864588  0.41038917  1
  N  N406  1  0.80390334  0.44252113  0.41019986  1
  N  N407  1  0.81411696  0.77716410  0.40079890  1
  N  N408  1  0.43283998  0.27760862  0.39857956  1
  N  N409  1  0.43406349  0.61367311  0.40113364  1
  N  N410  1  0.43157845  0.94464243  0.39512649  1
  N  N411  1  0.93866936  0.27603957  0.40467791  1
  N  N412  1  0.93135136  0.60907518  0.40011500  1
  N  N413  1  0.93010308  0.94345290  0.40165581  1
  N  N414  1  0.05898592  0.05672604  0.90562547  1
  N  N415  1  0.05950537  0.39223191  0.91227831  1
  N  N416  1  0.06350497  0.72356442  0.90278579  1
  N  N417  1  0.56422356  0.05699816  0.90072041  1
  N  N418  1  0.56494240  0.38929901  0.89984046  1
  N  N419  1  0.56103400  0.72261735  0.90655814  1
  N  N420  1  0.07370847  0.27851627  0.10000907  1
  N  N421  1  0.05929421  0.60950426  0.09556720  1
  N  N422  1  0.05489827  0.94250271  0.09278581  1
  N  N423  1  0.57622016  0.27800560  0.10304311  1
  N  N424  1  0.56347939  0.60954027  0.09133052  1
  N  N425  1  0.55433992  0.94161149  0.09186591  1
  N  N426  1  0.44102579  0.05951154  0.59154920  1
  N  N427  1  0.43900928  0.39034835  0.59266932  1
  N  N428  1  0.43740724  0.72391838  0.59502736  1
  N  N429  1  0.94149453  0.05599143  0.59280063  1
  N  N430  1  0.94140354  0.39108774  0.59529404  1
  N  N431  1  0.93547612  0.72403117  0.59768146  1
  N  N432  1  0.18294470  0.10804917  0.40609531  1
  N  N433  1  0.18712597  0.44217050  0.40989895  1
  N  N434  1  0.18454657  0.77543277  0.40646544  1
  N  N435  1  0.67278371  0.11292948  0.39397877  1
  N  N436  1  0.67626926  0.44349810  0.39621759  1
  N  N437  1  0.68725842  0.77615385  0.40467808  1
  N  N438  1  0.30714437  0.22451321  0.90421208  1
  N  N439  1  0.31723053  0.55813750  0.90512499  1
  N  N440  1  0.32601825  0.88953439  0.89701471  1
  N  N441  1  0.80482814  0.22241646  0.91045698  1
  N  N442  1  0.81651762  0.55847534  0.90120894  1
  N  N443  1  0.82332639  0.88876866  0.89659733  1
  N  N444  1  0.31799861  0.11033849  0.10251347  1
  N  N445  1  0.30981515  0.44600997  0.09137252  1
  N  N446  1  0.31546399  0.77395365  0.09845664  1
  N  N447  1  0.81201619  0.10953828  0.09484638  1
  N  N448  1  0.82325877  0.44351891  0.10428500  1
  N  N449  1  0.81467381  0.77548771  0.09800506  1
  N  N450  1  0.18791942  0.22472021  0.59452181  1
  N  N451  1  0.17946710  0.55467544  0.60171772  1
  N  N452  1  0.18882394  0.88770323  0.60041888  1
  N  N453  1  0.68291037  0.22259191  0.60208415  1
  N  N454  1  0.69148141  0.55731310  0.59262281  1
  N  N455  1  0.69840007  0.89121738  0.58933276  1
  Cl  Cl456  1  0.25681502  0.05593558  0.61762817  1
  Cl  Cl457  1  0.25623823  0.38540473  0.62162513  1
  Cl  Cl458  1  0.25206395  0.71743415  0.61920038  1
  Cl  Cl459  1  0.75649902  0.05418318  0.61094471  1
  Cl  Cl460  1  0.75400799  0.39032119  0.60729383  1
  Cl  Cl461  1  0.74818205  0.72358759  0.61172295  1
  Cl  Cl462  1  0.26440792  0.27910334  0.11460407  1
  Cl  Cl463  1  0.24555683  0.61341596  0.11851200  1
  Cl  Cl464  1  0.23967193  0.94244696  0.10692382  1
  Cl  Cl465  1  0.75830812  0.27554307  0.10987474  1
  Cl  Cl466  1  0.74954588  0.61346125  0.11639787  1
  Cl  Cl467  1  0.73903274  0.94274787  0.10711473  1
  Cl  Cl468  1  0.24708782  0.05561118  0.89201875  1
  Cl  Cl469  1  0.25000891  0.39149076  0.89103661  1
  Cl  Cl470  1  0.25132461  0.72099512  0.88617835  1
  Cl  Cl471  1  0.74634644  0.05011868  0.87682646  1
  Cl  Cl472  1  0.74793327  0.38986026  0.88823370  1
  Cl  Cl473  1  0.74680394  0.71965740  0.88053912  1
  Cl  Cl474  1  0.24981128  0.27870950  0.38474923  1
  Cl  Cl475  1  0.24923674  0.61272936  0.38668461  1
  Cl  Cl476  1  0.24288495  0.94952753  0.38166566  1
  Cl  Cl477  1  0.75186280  0.28090091  0.38473618  1
  Cl  Cl478  1  0.74666880  0.61422300  0.38281787  1
  Cl  Cl479  1  0.74616858  0.94492304  0.38129349  1
  Cl  Cl480  1  -0.00306320  0.21908737  0.61493748  1
  Cl  Cl481  1  0.00002964  0.55014506  0.62506519  1
  Cl  Cl482  1  0.00754776  0.88646661  0.61340355  1
  Cl  Cl483  1  0.49904760  0.21636957  0.62197299  1
  Cl  Cl484  1  0.50107468  0.55569276  0.60686409  1
  Cl  Cl485  1  0.50803425  0.89063604  0.61490651  1
  Cl  Cl486  1  0.00345321  0.11227518  0.11776117  1
  Cl  Cl487  1  0.00221734  0.44612081  0.12122036  1
  Cl  Cl488  1  0.00260236  0.78335788  0.12004320  1
  Cl  Cl489  1  0.50133671  0.11709586  0.11860983  1
  Cl  Cl490  1  0.50030579  0.44324060  0.10906126  1
  Cl  Cl491  1  0.49904886  0.78308567  0.11781790  1
  Cl  Cl492  1  -0.01153365  0.22208797  0.88458273  1
  Cl  Cl493  1  -0.00189345  0.54883413  0.88528614  1
  Cl  Cl494  1  0.01174493  0.89021675  0.88935161  1
  Cl  Cl495  1  0.49233238  0.22312499  0.89392775  1
  Cl  Cl496  1  0.50486624  0.55145677  0.87623598  1
  Cl  Cl497  1  0.51293747  0.89119591  0.88784754  1
  Cl  Cl498  1  -0.00843572  0.10614560  0.39515431  1
  Cl  Cl499  1  -0.00941580  0.44443765  0.39020204  1
  Cl  Cl500  1  -0.00288820  0.78051911  0.38797241  1
  Cl  Cl501  1  0.49245334  0.11357158  0.38523973  1
  Cl  Cl502  1  0.49717337  0.44403027  0.38662483  1
  Cl  Cl503  1  0.50407594  0.78142894  0.38120168  1
  Cl  Cl504  1  0.36224473  0.14377589  0.74985639  1
  Cl  Cl505  1  0.36503703  0.47792003  0.75157147  1
  Cl  Cl506  1  0.36240209  0.81262993  0.75565943  1
  Cl  Cl507  1  0.86143823  0.14518987  0.75167382  1
  Cl  Cl508  1  0.86216179  0.47629981  0.74975458  1
  Cl  Cl509  1  0.86514540  0.81259426  0.74818792  1
  Cl  Cl510  1  0.14190149  0.18969920  0.25152086  1
  Cl  Cl511  1  0.13898454  0.52008994  0.24751867  1
  Cl  Cl512  1  0.14052551  0.85650356  0.25086685  1
  Cl  Cl513  1  0.63494720  0.18896969  0.25022272  1
  Cl  Cl514  1  0.63967872  0.52186682  0.25482832  1
  Cl  Cl515  1  0.63913000  0.85733396  0.24915154  1
  Cl  Cl516  1  0.13756623  0.14546061  0.75070219  1
  Cl  Cl517  1  0.13805462  0.47624973  0.74759787  1
  Cl  Cl518  1  0.13815467  0.81140334  0.74846011  1
  Cl  Cl519  1  0.63793571  0.14518143  0.75140882  1
  Cl  Cl520  1  0.64302529  0.47691611  0.74941842  1
  Cl  Cl521  1  0.64020879  0.81350378  0.74869826  1
  Cl  Cl522  1  0.36291934  0.18831043  0.25088825  1
  Cl  Cl523  1  0.36353405  0.52172809  0.25512338  1
  Cl  Cl524  1  0.36173844  0.85789506  0.24997849  1
  Cl  Cl525  1  0.85781423  0.18820431  0.25067430  1
  Cl  Cl526  1  0.86220787  0.52128228  0.24694118  1
  Cl  Cl527  1  0.86187114  0.85626585  0.25036377  1
  Cl  Cl528  1  0.11306822  0.31163788  0.75007656  1
  Cl  Cl529  1  0.11062810  0.64384288  0.75145280  1
  Cl  Cl530  1  0.11200283  0.97834094  0.74538505  1
  Cl  Cl531  1  0.61338820  0.31136112  0.74991903  1
  Cl  Cl532  1  0.61548839  0.64491101  0.74504528  1
  Cl  Cl533  1  0.61179501  0.97919652  0.74812954  1
  Cl  Cl534  1  0.38583545  0.02306966  0.24713931  1
  Cl  Cl535  1  0.39189054  0.35672853  0.25420480  1
  Cl  Cl536  1  0.38835985  0.68909782  0.24818223  1
  Cl  Cl537  1  0.89104684  0.02269924  0.25024778  1
  Cl  Cl538  1  0.88718917  0.35551605  0.24729261  1
  Cl  Cl539  1  0.88785377  0.69082354  0.25309031  1
  Cl  Cl540  1  0.39188204  0.30996780  0.74948643  1
  Cl  Cl541  1  0.38845650  0.64326333  0.75183683  1
  Cl  Cl542  1  0.38779816  0.97846232  0.75286796  1
  Cl  Cl543  1  0.88620379  0.31167746  0.75281004  1
  Cl  Cl544  1  0.88670323  0.64360946  0.74803837  1
  Cl  Cl545  1  0.88769995  0.97773866  0.75116261  1
  Cl  Cl546  1  0.11000519  0.02353833  0.25063786  1
  Cl  Cl547  1  0.11325821  0.35445535  0.24942080  1
  Cl  Cl548  1  0.11232896  0.68865738  0.25082099  1
  Cl  Cl549  1  0.60955432  0.02120333  0.25031283  1
  Cl  Cl550  1  0.61405660  0.35520060  0.24787780  1
  Cl  Cl551  1  0.61236646  0.68847820  0.24954335  1
