# generated using pymatgen
data_H8PbC4(N3Cl2)2
_symmetry_space_group_name_H-M   'P 1'
_cell_length_a   16.63278034
_cell_length_b   22.51946765
_cell_length_c   21.59596567
_cell_angle_alpha   89.99860237
_cell_angle_beta   90.00905307
_cell_angle_gamma   89.99624565
_symmetry_Int_Tables_number   1
_chemical_formula_structural   H8PbC4(N3Cl2)2
_chemical_formula_sum   'H192 Pb24 C96 N144 Cl96'
_cell_volume   8089.01412538
_cell_formula_units_Z   24
loop_
 _symmetry_equiv_pos_site_id
 _symmetry_equiv_pos_as_xyz
  1  'x, y, z'
loop_
 _atom_site_type_symbol
 _atom_site_label
 _atom_site_symmetry_multiplicity
 _atom_site_fract_x
 _atom_site_fract_y
 _atom_site_fract_z
 _atom_site_occupancy
  H  H0  1  -0.00983838  0.03027005  0.67676152  1
  H  H1  1  -0.00699282  0.36020578  0.67829229  1
  H  H2  1  0.00011842  0.69552638  0.68066158  1
  H  H3  1  0.51132166  0.03177107  0.68431767  1
  H  H4  1  0.50411229  0.36179467  0.67879126  1
  H  H5  1  0.48753530  0.69652372  0.67937797  1
  H  H6  1  0.00147642  0.30331017  0.17970431  1
  H  H7  1  0.00545513  0.63858641  0.17596690  1
  H  H8  1  0.01037409  0.97271501  0.17272820  1
  H  H9  1  0.50487069  0.30522985  0.17594443  1
  H  H10  1  0.50251539  0.64036175  0.17769830  1
  H  H11  1  0.49398229  0.96913726  0.17676367  1
  H  H12  1  -0.00806493  0.03339102  0.82189134  1
  H  H13  1  0.00597491  0.36494643  0.81902417  1
  H  H14  1  0.01432101  0.69276053  0.82536918  1
  H  H15  1  0.49253861  0.02696277  0.82623390  1
  H  H16  1  0.50505889  0.36429181  0.82103527  1
  H  H17  1  0.49130140  0.69560090  0.82137369  1
  H  H18  1  -0.01590963  0.30288567  0.32081580  1
  H  H19  1  0.02129078  0.62956034  0.34174793  1
  H  H20  1  0.00505034  0.97204222  0.32211007  1
  H  H21  1  0.51634355  0.29880772  0.32018059  1
  H  H22  1  0.51668903  0.63543083  0.32012334  1
  H  H23  1  0.49214882  0.96485737  0.32404345  1
  H  H24  1  0.24206436  0.19361328  0.67728210  1
  H  H25  1  0.23036204  0.53537128  0.65672094  1
  H  H26  1  0.23759649  0.86449798  0.68022092  1
  H  H27  1  0.75541621  0.19858959  0.68434004  1
  H  H28  1  0.73254639  0.53101835  0.68125083  1
  H  H29  1  0.75400862  0.86218283  0.67793253  1
  H  H30  1  0.26509179  0.14061957  0.17827185  1
  H  H31  1  0.23786624  0.47441760  0.17666012  1
  H  H32  1  0.25379116  0.80655083  0.17885545  1
  H  H33  1  0.75149357  0.13812503  0.17569935  1
  H  H34  1  0.75769824  0.47680360  0.17995561  1
  H  H35  1  0.75330540  0.80380650  0.17589708  1
  H  H36  1  0.24792660  0.19317387  0.82582046  1
  H  H37  1  0.25287310  0.52627423  0.82358933  1
  H  H38  1  0.24827781  0.86026930  0.82240860  1
  H  H39  1  0.76294907  0.19299154  0.82534171  1
  H  H40  1  0.75334601  0.52663942  0.82563769  1
  H  H41  1  0.75463040  0.86191208  0.82145999  1
  H  H42  1  0.26730027  0.14073517  0.32305254  1
  H  H43  1  0.24757686  0.46755693  0.31960246  1
  H  H44  1  0.26144182  0.80943999  0.32220674  1
  H  H45  1  0.73880985  0.13201998  0.31867600  1
  H  H46  1  0.74457538  0.46981050  0.32167981  1
  H  H47  1  0.74831982  0.80508684  0.31929324  1
  H  H48  1  0.12357611  0.05074407  0.61871594  1
  H  H49  1  0.11812844  0.38777731  0.60926496  1
  H  H50  1  0.12658212  0.72303724  0.61156278  1
  H  H51  1  0.63029369  0.05253710  0.60970794  1
  H  H52  1  0.62306668  0.38886055  0.60347762  1
  H  H53  1  0.62737116  0.71719966  0.62786287  1
  H  H54  1  0.38493477  0.27805101  0.10157783  1
  H  H55  1  0.37915978  0.61309971  0.10582251  1
  H  H56  1  0.37223202  0.94378601  0.10353320  1
  H  H57  1  0.88509797  0.27745004  0.10570371  1
  H  H58  1  0.87499727  0.61446748  0.11171871  1
  H  H59  1  0.86624781  0.95573849  0.12382938  1
  H  H60  1  0.39334947  0.06211299  0.91198164  1
  H  H61  1  0.36945751  0.38277696  0.87825464  1
  H  H62  1  0.38045111  0.72024110  0.90024097  1
  H  H63  1  0.88027320  0.05682516  0.90165913  1
  H  H64  1  0.86313104  0.38107840  0.86925827  1
  H  H65  1  0.87578719  0.71637121  0.87793116  1
  H  H66  1  0.12262454  0.28626608  0.37581154  1
  H  H67  1  0.15888192  0.61150562  0.39554729  1
  H  H68  1  0.12806875  0.94756120  0.39313035  1
  H  H69  1  0.61546642  0.27518481  0.40748194  1
  H  H70  1  0.63341999  0.61467313  0.39769467  1
  H  H71  1  0.62845548  0.94526594  0.38255368  1
  H  H72  1  0.37656732  0.21804785  0.61914441  1
  H  H73  1  0.33792788  0.56598774  0.57679836  1
  H  H74  1  0.36858683  0.88756693  0.61489377  1
  H  H75  1  0.87782961  0.21628065  0.61161752  1
  H  H76  1  0.86461812  0.55226584  0.61775853  1
  H  H77  1  0.86464565  0.89199889  0.59786705  1
  H  H78  1  0.12466988  0.12080085  0.12557896  1
  H  H79  1  0.13479807  0.44278900  0.09166914  1
  H  H80  1  0.12806437  0.77681333  0.11329582  1
  H  H81  1  0.61885764  0.11169187  0.11392873  1
  H  H82  1  0.63777464  0.44668303  0.10670421  1
  H  H83  1  0.62620871  0.77873506  0.10846578  1
  H  H84  1  0.11980486  0.22050982  0.89163849  1
  H  H85  1  0.12681701  0.55326010  0.89237115  1
  H  H86  1  0.13734936  0.89164929  0.90127978  1
  H  H87  1  0.62122499  0.21606892  0.87429295  1
  H  H88  1  0.62336935  0.55515975  0.88829679  1
  H  H89  1  0.63600530  0.88648942  0.89699373  1
  H  H90  1  0.36875542  0.10751196  0.40819727  1
  H  H91  1  0.37633796  0.44603601  0.38759057  1
  H  H92  1  0.36636735  0.77687618  0.40597039  1
  H  H93  1  0.87723511  0.11804009  0.37525548  1
  H  H94  1  0.87575222  0.44638561  0.38580629  1
  H  H95  1  0.87175360  0.77982896  0.38887150  1
  H  H96  1  0.37226794  0.28594363  0.36794085  1
  H  H97  1  0.38666774  0.61075718  0.38244085  1
  H  H98  1  0.38208990  0.94422676  0.40671126  1
  H  H99  1  0.87634898  0.27758723  0.40147585  1
  H  H100  1  0.91303782  0.60397312  0.42302017  1
  H  H101  1  0.87889618  0.95082407  0.38874924  1
  H  H102  1  0.12635968  0.05272865  0.87795574  1
  H  H103  1  0.10807188  0.39142560  0.90423603  1
  H  H104  1  0.12118585  0.72451723  0.90759406  1
  H  H105  1  0.63626560  0.04726967  0.87278925  1
  H  H106  1  0.61670995  0.39118258  0.89929359  1
  H  H107  1  0.62781656  0.71457573  0.87894788  1
  H  H108  1  0.13369964  0.28383950  0.11636522  1
  H  H109  1  0.12344946  0.60886655  0.10199778  1
  H  H110  1  0.10865189  0.93872680  0.08626669  1
  H  H111  1  0.63325956  0.27745411  0.10941963  1
  H  H112  1  0.62779154  0.61453009  0.10717792  1
  H  H113  1  0.62030559  0.94471346  0.10747550  1
  H  H114  1  0.38110332  0.05320765  0.62083364  1
  H  H115  1  0.37556877  0.38838157  0.61347792  1
  H  H116  1  0.38219721  0.72749594  0.59547768  1
  H  H117  1  0.87625749  0.05424952  0.59812663  1
  H  H118  1  0.87011770  0.38657959  0.60621750  1
  H  H119  1  0.87755291  0.72058300  0.60920282  1
  H  H120  1  0.12596237  0.11810941  0.37343483  1
  H  H121  1  0.12710073  0.44440182  0.39262618  1
  H  H122  1  0.12171234  0.78597810  0.37227663  1
  H  H123  1  0.63066949  0.10916676  0.40005051  1
  H  H124  1  0.62750327  0.44397104  0.39690390  1
  H  H125  1  0.62335489  0.77934624  0.38955075  1
  H  H126  1  0.36852613  0.22311890  0.89695693  1
  H  H127  1  0.37583041  0.55731107  0.89160676  1
  H  H128  1  0.38413070  0.88693272  0.87816494  1
  H  H129  1  0.86324058  0.22396418  0.91165558  1
  H  H130  1  0.87191031  0.55632526  0.89895331  1
  H  H131  1  0.88432649  0.88587928  0.88638130  1
  H  H132  1  0.36749934  0.10862465  0.09224343  1
  H  H133  1  0.37815610  0.45282428  0.12412189  1
  H  H134  1  0.37727985  0.77982232  0.10816785  1
  H  H135  1  0.86610344  0.11052438  0.09652391  1
  H  H136  1  0.88610751  0.45079882  0.11488160  1
  H  H137  1  0.87449910  0.77506411  0.10478764  1
  H  H138  1  0.12972142  0.22381965  0.59760044  1
  H  H139  1  0.09249590  0.55385748  0.60388687  1
  H  H140  1  0.12093450  0.89204633  0.60225347  1
  H  H141  1  0.62812547  0.22047334  0.61761129  1
  H  H142  1  0.61564566  0.55331632  0.60411286  1
  H  H143  1  0.61835471  0.88367598  0.62034439  1
  H  H144  1  0.43617689  0.55811246  0.47707992  1
  H  H145  1  0.17767689  0.41658422  0.50194867  1
  H  H146  1  0.32380738  0.75762908  0.00126007  1
  H  H147  1  0.27409961  0.59580068  0.47168241  1
  H  H148  1  0.84911542  0.41718870  0.00487070  1
  H  H149  1  0.60370721  0.92253074  0.49260112  1
  H  H150  1  0.65259422  0.08479783  0.00479742  1
  H  H151  1  0.57006937  0.90884657  0.00478130  1
  H  H152  1  0.92736350  0.75325920  0.50215355  1
  H  H153  1  0.09636413  0.08044383  0.50389672  1
  H  H154  1  0.53539887  0.25041911  0.51156646  1
  H  H155  1  0.56421729  0.41431143  0.50030934  1
  H  H156  1  0.20702342  0.92081669  1.00247042  1
  H  H157  1  0.94559358  0.24865856  0.50869482  1
  H  H158  1  0.82662824  0.57275839  0.50798716  1
  H  H159  1  0.13823104  0.75289871  0.48478477  1
  H  H160  1  0.10219939  0.08463271  -0.00706454  1
  H  H161  1  0.58891029  0.25151201  0.00331878  1
  H  H162  1  0.69901152  0.08529916  0.50865142  1
  H  H163  1  0.44593893  0.74444547  1.00992103  1
  H  H164  1  0.57672248  0.07685345  0.49875634  1
  H  H165  1  0.94181540  0.24729755  -0.00409787  1
  H  H166  1  0.45715686  0.74852489  0.49521403  1
  H  H167  1  0.78082281  0.24949610  1.00892552  1
  H  H168  1  0.66864676  0.24385890  0.50426377  1
  H  H169  1  0.17258823  0.73794626  0.00548411  1
  H  H170  1  0.92032360  0.91966187  0.50076325  1
  H  H171  1  0.47573756  0.08496311  1.01021728  1
  H  H172  1  0.55309134  0.42136309  1.00628407  1
  H  H173  1  0.28684467  0.08446148  -0.00585601  1
  H  H174  1  0.92221048  0.41393389  0.50284131  1
  H  H175  1  0.29112877  0.75623921  0.50592455  1
  H  H176  1  0.82810014  0.23400892  0.49831751  1
  H  H177  1  0.21439785  0.41816202  -0.00701893  1
  H  H178  1  0.03237482  0.41752380  1.00842766  1
  H  H179  1  0.45235870  0.90696894  0.50225160  1
  H  H180  1  0.39353341  0.41244090  -0.00841062  1
  H  H181  1  0.28679543  0.08433040  0.50603354  1
  H  H182  1  0.34906894  0.25121706  0.50718058  1
  H  H183  1  0.67494691  0.57310639  0.49400187  1
  H  H184  1  0.56462153  0.61125642  0.50112678  1
  H  H185  1  0.02385733  0.92007396  -0.01137754  1
  H  H186  1  0.33493104  0.41466914  0.49194400  1
  H  H187  1  0.41705405  0.07832261  0.50678319  1
  H  H188  1  0.04554026  0.75092675  1.00763525  1
  H  H189  1  0.97635111  0.57783719  0.52945053  1
  H  H190  1  0.87777043  0.91802644  0.01666659  1
  H  H191  1  0.61036143  0.75128774  0.51593764  1
  Pb  Pb192  1  0.25322763  0.04928294  0.75416317  1
  Pb  Pb193  1  0.24302969  0.38551161  0.75121407  1
  Pb  Pb194  1  0.24529718  0.71670527  0.75537526  1
  Pb  Pb195  1  0.74815457  0.04922957  0.74798889  1
  Pb  Pb196  1  0.74296403  0.38444351  0.74707414  1
  Pb  Pb197  1  0.75307906  0.71362568  0.74584784  1
  Pb  Pb198  1  0.25025472  0.28726159  0.24302002  1
  Pb  Pb199  1  0.24985531  0.61819330  0.23826586  1
  Pb  Pb200  1  0.24270251  0.94975042  0.24463578  1
  Pb  Pb201  1  0.74536527  0.28217702  0.25445699  1
  Pb  Pb202  1  0.75332249  0.62023976  0.26343002  1
  Pb  Pb203  1  0.74880054  0.95226530  0.25060415  1
  Pb  Pb204  1  -0.00385909  0.21710033  0.75295677  1
  Pb  Pb205  1  -0.00209319  0.54785381  0.76336679  1
  Pb  Pb206  1  -0.00195320  0.88522735  0.74917771  1
  Pb  Pb207  1  0.49408538  0.21681659  0.75361000  1
  Pb  Pb208  1  0.49314684  0.55127540  0.73697824  1
  Pb  Pb209  1  0.50217125  0.87923130  0.75032860  1
  Pb  Pb210  1  -0.00318561  0.12018370  0.23999214  1
  Pb  Pb211  1  -0.00201568  0.45100927  0.24974150  1
  Pb  Pb212  1  -0.00581334  0.78122339  0.24563676  1
  Pb  Pb213  1  0.49319366  0.11433696  0.25526127  1
  Pb  Pb214  1  0.50338579  0.45259981  0.25442991  1
  Pb  Pb215  1  0.49794788  0.78521260  0.25584955  1
  C  C216  1  -0.00257601  0.04478185  0.62925187  1
  C  C217  1  -0.00652323  0.37708144  0.63127399  1
  C  C218  1  0.00183116  0.71269716  0.63366912  1
  C  C219  1  0.50727016  0.04564039  0.63625175  1
  C  C220  1  0.50122275  0.37889741  0.63188971  1
  C  C221  1  0.49907755  0.71204549  0.63248414  1
  C  C222  1  0.00653637  0.28815748  0.13229854  1
  C  C223  1  0.00117189  0.62109903  0.12950421  1
  C  C224  1  -0.00522057  0.95624775  0.12687681  1
  C  C225  1  0.50816591  0.28776739  0.12922491  1
  C  C226  1  0.50307072  0.62348828  0.13065897  1
  C  C227  1  0.49556345  0.95214399  0.12982096  1
  C  C228  1  0.00050236  0.04754385  0.86933418  1
  C  C229  1  -0.00756805  0.37842293  0.86613304  1
  C  C230  1  0.00411703  0.70983007  0.87156878  1
  C  C231  1  0.50730843  0.04381371  0.87196251  1
  C  C232  1  0.49667034  0.37902580  0.86847488  1
  C  C233  1  0.49971628  0.70991201  0.86881043  1
  C  C234  1  -0.00569273  0.28893820  0.36816698  1
  C  C235  1  0.03136710  0.61423694  0.38893457  1
  C  C236  1  0.00349011  0.95679313  0.36963784  1
  C  C237  1  0.50128402  0.28643720  0.36735417  1
  C  C238  1  0.51242592  0.62000806  0.36763844  1
  C  C239  1  0.50093244  0.95077233  0.37182747  1
  C  C240  1  0.24944294  0.21134942  0.63099168  1
  C  C241  1  0.21993529  0.55186854  0.61001336  1
  C  C242  1  0.24233352  0.88054340  0.63294306  1
  C  C243  1  0.75372320  0.21203124  0.63602981  1
  C  C244  1  0.73805751  0.54527614  0.63333557  1
  C  C245  1  0.74570428  0.87871347  0.63135401  1
  C  C246  1  0.25256288  0.12452717  0.13194937  1
  C  C247  1  0.25011062  0.45811434  0.13038164  1
  C  C248  1  0.25353422  0.78928108  0.13182968  1
  C  C249  1  0.74476568  0.12110059  0.12902735  1
  C  C250  1  0.76044448  0.45884158  0.13348018  1
  C  C251  1  0.75111816  0.78652049  0.12927049  1
  C  C252  1  0.24508646  0.21211525  0.87174659  1
  C  C253  1  0.25156799  0.54504465  0.86963792  1
  C  C254  1  0.25643393  0.87815190  0.86842879  1
  C  C255  1  0.74917280  0.21012622  0.87107810  1
  C  C256  1  0.74943217  0.54539362  0.87156347  1
  C  C257  1  0.75833705  0.87730090  0.86882907  1
  C  C258  1  0.25433935  0.12314907  0.36879502  1
  C  C259  1  0.25090121  0.45243526  0.36736172  1
  C  C260  1  0.24985489  0.79264038  0.36862061  1
  C  C261  1  0.74878259  0.11984609  0.36662207  1
  C  C262  1  0.74964317  0.45356489  0.36851649  1
  C  C263  1  0.74735440  0.78848786  0.36617325  1
  C  C264  1  1.00960736  0.58780601  0.48724559  1
  C  C265  1  0.72004814  0.42212988  0.46191353  1
  C  C266  1  0.78491995  0.75344511  0.03773989  1
  C  C267  1  0.27781136  0.24892659  0.96181062  1
  C  C268  1  0.78525748  0.75835427  0.45835138  1
  C  C269  1  0.56207110  0.74212830  0.54872677  1
  C  C270  1  0.04264393  0.92884923  0.46280698  1
  C  C271  1  0.18658938  0.76219291  0.45217850  1
  C  C272  1  0.43097186  0.26583862  0.45124217  1
  C  C273  1  0.69222212  0.90818765  0.54394703  1
  C  C274  1  0.54104493  0.06876889  0.54010636  1
  C  C275  1  0.96624753  0.74153052  0.54115947  1
  C  C276  1  0.00446585  0.40522060  0.96464024  1
  C  C277  1  0.96118099  0.92960024  0.46294369  1
  C  C278  1  0.28751025  0.58070951  0.95938551  1
  C  C279  1  0.09193378  0.58962933  0.47810902  1
  C  C280  1  0.43996956  0.40387557  0.95720842  1
  C  C281  1  0.57663175  0.07250430  0.95418251  1
  C  C282  1  0.92499035  0.40140289  0.95102271  1
  C  C283  1  0.31407548  0.91407399  0.95328929  1
  C  C284  1  0.97510124  0.26086385  0.46554994  1
  C  C285  1  0.70689629  0.56927126  0.53751549  1
  C  C286  1  0.24100564  0.58227492  0.51291574  1
  C  C287  1  0.05512768  0.26423561  0.45481847  1
  C  C288  1  0.96931285  0.07199835  0.53345966  1
  C  C289  1  0.03055540  0.58578504  0.03811852  1
  C  C290  1  0.05764081  0.26229499  0.04225294  1
  C  C291  1  0.80237240  0.90293742  0.96035305  1
  C  C292  1  0.55736531  0.73427350  0.95691748  1
  C  C293  1  0.05599735  0.07422200  0.95870241  1
  C  C294  1  0.70952085  0.23383470  0.54216480  1
  C  C295  1  0.47692566  0.73574221  0.96655998  1
  C  C296  1  0.94141831  0.74244449  0.95592952  1
  C  C297  1  0.97491485  0.07524038  0.96534584  1
  C  C298  1  0.79118945  0.23085911  0.53971063  1
  C  C299  1  0.21457128  0.42680047  0.46180556  1
  C  C300  1  0.72910821  0.09583555  0.46529072  1
  C  C301  1  0.52131514  0.40798160  0.96453570  1
  C  C302  1  0.80909756  0.09922630  0.45476974  1
  C  C303  1  0.97663818  0.25961277  0.03659142  1
  C  C304  1  0.45922225  0.06897563  0.54397522  1
  C  C305  1  0.15873074  0.57816400  0.52158024  1
  C  C306  1  0.21071890  0.75486935  0.04244408  1
  C  C307  1  0.05058414  0.07104370  0.53885568  1
  C  C308  1  0.80352840  0.42853825  0.04315296  1
  C  C309  1  0.77964186  0.58091026  0.96254961  1
  C  C310  1  0.30089839  0.24102631  0.54315452  1
  C  C311  1  0.50990090  0.26171631  0.46663736  1
  N  N312  1  0.54941745  0.25822594  0.03993987  1
  N  N313  1  0.72449033  0.42635286  0.04007716  1
  N  N314  1  0.70754139  0.75830161  0.45949218  1
  N  N315  1  0.48354816  0.74474371  0.53839145  1
  N  N316  1  0.78601151  0.57112979  0.54357443  1
  N  N317  1  0.76916026  0.91090997  0.53529541  1
  N  N318  1  0.21335871  0.90989155  0.53814671  1
  N  N319  1  0.26384230  0.09215994  0.03844040  1
  N  N320  1  0.45573363  0.92339216  0.03690717  1
  N  N321  1  0.79790199  0.42315899  0.45941415  1
  N  N322  1  0.20046179  0.24828799  0.96136489  1
  N  N323  1  0.22230640  0.24338670  0.53579337  1
  N  N324  1  0.54500259  0.59129330  0.46099557  1
  N  N325  1  0.00398712  0.91925664  0.03448036  1
  N  N326  1  0.54201050  0.59298732  0.03843030  1
  N  N327  1  0.70769395  0.75511456  0.03731912  1
  N  N328  1  0.70238830  0.58034304  0.96074696  1
  N  N329  1  0.95909450  0.40586828  0.54012806  1
  N  N330  1  0.95342012  0.58772429  0.03980659  1
  N  N331  1  0.47931139  0.93335246  0.46931253  1
  N  N332  1  0.53376157  0.92418919  0.03945200  1
  N  N333  1  0.46594329  0.59262126  0.03815244  1
  N  N334  1  0.75876133  0.24350623  0.96430521  1
  N  N335  1  0.72485169  0.90392268  0.96488350  1
  N  N336  1  0.55674495  0.92350026  0.45791687  1
  N  N337  1  0.18742463  0.09688214  0.04830222  1
  N  N338  1  0.21019777  0.57981542  0.96070854  1
  N  N339  1  0.26499245  0.75901964  0.46268671  1
  N  N340  1  0.23745686  0.42485323  0.03732678  1
  N  N341  1  0.29035518  0.75718868  0.04098069  1
  N  N342  1  0.46253775  0.59479158  0.45728485  1
  N  N343  1  0.47140356  0.25779605  0.03618746  1
  N  N344  1  0.77456076  0.09252990  0.03427450  1
  N  N345  1  0.23577503  0.91357235  0.96069026  1
  N  N346  1  0.03751114  0.40635687  0.53971264  1
  N  N347  1  0.04550193  0.74162744  0.54118639  1
  N  N348  1  0.31396378  0.42897909  0.04703288  1
  N  N349  1  0.28961883  0.90825635  0.54204441  1
  N  N350  1  0.49925870  0.07757755  0.96610665  1
  N  N351  1  0.69705473  0.09304388  0.04087713  1
  N  N352  1  0.29421032  0.42836635  0.45912118  1
  N  N353  1  0.68201321  0.24018598  0.95309700  1
  N  N354  1  0.45222869  0.40592905  0.54108828  1
  N  N355  1  0.92800808  0.93288210  0.04464944  1
  N  N356  1  0.01945684  0.74401080  0.96499304  1
  N  N357  1  0.26478593  0.08896292  0.46165060  1
  N  N358  1  0.53057244  0.40738292  0.53947409  1
  N  N359  1  0.18814227  0.09298054  0.45111931  1
  N  N360  1  0.06667206  0.05412650  0.59969404  1
  N  N361  1  0.05800717  0.38920310  0.59692709  1
  N  N362  1  0.06619120  0.72366158  0.59945616  1
  N  N363  1  0.56962938  0.05444362  0.59788299  1
  N  N364  1  0.56170683  0.38924330  0.59375609  1
  N  N365  1  0.57162766  0.72330684  0.60750977  1
  N  N366  1  0.44631661  0.27496741  0.09236871  1
  N  N367  1  0.44015451  0.61106233  0.09535490  1
  N  N368  1  0.43246154  0.94157174  0.09346534  1
  N  N369  1  0.94568593  0.27604109  0.09397397  1
  N  N370  1  0.93481811  0.61023473  0.09784399  1
  N  N371  1  0.92188379  0.94686556  0.10446072  1
  N  N372  1  0.45576069  0.05679187  0.91642527  1
  N  N373  1  0.42597222  0.38625638  0.89749333  1
  N  N374  1  0.44156247  0.72087793  0.91000464  1
  N  N375  1  0.94171846  0.05925416  0.91151186  1
  N  N376  1  0.91816397  0.38540302  0.89132548  1
  N  N377  1  0.93194026  0.72246554  0.89773914  1
  N  N378  1  0.06632568  0.28098333  0.39619192  1
  N  N379  1  0.10259132  0.60570177  0.41591184  1
  N  N380  1  0.06807816  0.94500892  0.40646528  1
  N  N381  1  0.55323271  0.27495493  0.41284578  1
  N  N382  1  0.57249216  0.61646179  0.40764330  1
  N  N383  1  0.57045458  0.94340180  0.40057074  1
  N  N384  1  0.31884083  0.22223478  0.60167863  1
  N  N385  1  0.27668969  0.56589781  0.56823690  1
  N  N386  1  0.30881364  0.89074759  0.60107306  1
  N  N387  1  0.81762196  0.21780806  0.59849751  1
  N  N388  1  0.80505106  0.55367896  0.60185301  1
  N  N389  1  0.80256700  0.89176648  0.59100315  1
  N  N390  1  0.18077632  0.11492349  0.10693401  1
  N  N391  1  0.19700201  0.44583224  0.08656008  1
  N  N392  1  0.18776938  0.77362740  0.09904481  1
  N  N393  1  0.67747954  0.11106147  0.09828167  1
  N  N394  1  0.69928564  0.44563727  0.09678077  1
  N  N395  1  0.68635049  0.77620111  0.09559681  1
  N  N396  1  0.17979018  0.22489953  0.90396909  1
  N  N397  1  0.18752423  0.55740461  0.90345859  1
  N  N398  1  0.19917769  0.88934623  0.90928537  1
  N  N399  1  0.67701609  0.22209184  0.89411176  1
  N  N400  1  0.68326194  0.55785870  0.90284034  1
  N  N401  1  0.69770038  0.88733901  0.90664284  1
  N  N402  1  0.30668866  0.11055734  0.41301834  1
  N  N403  1  0.31629212  0.44251360  0.40045324  1
  N  N404  1  0.30407512  0.78145083  0.41200489  1
  N  N405  1  0.82072629  0.11337853  0.39534542  1
  N  N406  1  0.81610779  0.44269399  0.39994683  1
  N  N407  1  0.81171685  0.77644515  0.40201015  1
  N  N408  1  0.42632978  0.28041750  0.39117586  1
  N  N409  1  0.44626503  0.60330183  0.39648542  1
  N  N410  1  0.44389404  0.93905987  0.41288670  1
  N  N411  1  0.93771072  0.27656526  0.41018719  1
  N  N412  1  0.97430657  0.60336094  0.43148600  1
  N  N413  1  0.93796455  0.94707713  0.40378454  1
  N  N414  1  0.07058418  0.05672077  0.89789229  1
  N  N415  1  0.04568957  0.39033530  0.91045155  1
  N  N416  1  0.05925512  0.72166606  0.91392895  1
  N  N417  1  0.58169932  0.05329697  0.89506148  1
  N  N418  1  0.55522451  0.39226643  0.90897861  1
  N  N419  1  0.57068903  0.71894431  0.89811731  1
  N  N420  1  0.07537948  0.27925428  0.09994039  1
  N  N421  1  0.06277229  0.60589268  0.09195562  1
  N  N422  1  0.04613920  0.94312622  0.08182556  1
  N  N423  1  0.57335323  0.27762273  0.09579541  1
  N  N424  1  0.56679506  0.61247932  0.09563983  1
  N  N425  1  0.55967193  0.93976483  0.09604647  1
  N  N426  1  0.43959787  0.05454569  0.60397328  1
  N  N427  1  0.43498922  0.39023642  0.59936542  1
  N  N428  1  0.44463835  0.72276671  0.58914651  1
  N  N429  1  0.93752032  0.05629753  0.58793790  1
  N  N430  1  0.93096451  0.38706423  0.59494097  1
  N  N431  1  0.93823248  0.72405318  0.59746920  1
  N  N432  1  0.18242015  0.11183331  0.39262763  1
  N  N433  1  0.18746779  0.44251741  0.40513819  1
  N  N434  1  0.17726434  0.78108311  0.39337425  1
  N  N435  1  0.69188662  0.10907002  0.40885679  1
  N  N436  1  0.68838108  0.44059331  0.40722667  1
  N  N437  1  0.68378283  0.77718935  0.40080495  1
  N  N438  1  0.30801117  0.22740298  0.90794966  1
  N  N439  1  0.31580645  0.56004766  0.90457967  1
  N  N440  1  0.32709753  0.89257169  0.89607677  1
  N  N441  1  0.80077322  0.22199754  0.91593061  1
  N  N442  1  0.81137468  0.55982970  0.90905486  1
  N  N443  1  0.82558406  0.88756197  0.90170750  1
  N  N444  1  0.30510907  0.11175109  0.08795033  1
  N  N445  1  0.32164893  0.44760260  0.10538209  1
  N  N446  1  0.31647094  0.78164388  0.09525463  1
  N  N447  1  0.80394300  0.10929375  0.08920146  1
  N  N448  1  0.82691900  0.44763365  0.10048022  1
  N  N449  1  0.81442556  0.77242022  0.09305118  1
  N  N450  1  0.19181692  0.22454825  0.59090447  1
  N  N451  1  0.14854595  0.55931753  0.58301288  1
  N  N452  1  0.18260414  0.89263907  0.59419505  1
  N  N453  1  0.68745541  0.22210380  0.60228324  1
  N  N454  1  0.67654785  0.55500231  0.59362108  1
  N  N455  1  0.67556660  0.88897673  0.60254176  1
  Cl  Cl456  1  0.25609798  0.06118292  0.61718976  1
  Cl  Cl457  1  0.24821256  0.39320153  0.61341307  1
  Cl  Cl458  1  0.25981624  0.73087388  0.60854113  1
  Cl  Cl459  1  0.75312740  0.05376116  0.61418046  1
  Cl  Cl460  1  0.74624716  0.38997477  0.61184829  1
  Cl  Cl461  1  0.75530625  0.71737148  0.61308867  1
  Cl  Cl462  1  0.26181642  0.28138836  0.11079842  1
  Cl  Cl463  1  0.25251351  0.61361097  0.10972630  1
  Cl  Cl464  1  0.23133395  0.93847805  0.09953830  1
  Cl  Cl465  1  0.75813413  0.27090775  0.10843459  1
  Cl  Cl466  1  0.74980140  0.61561239  0.13022291  1
  Cl  Cl467  1  0.74132926  0.95033936  0.11800040  1
  Cl  Cl468  1  0.27342474  0.06317239  0.89880596  1
  Cl  Cl469  1  0.23089706  0.39922499  0.89359689  1
  Cl  Cl470  1  0.24890805  0.72815402  0.89442832  1
  Cl  Cl471  1  0.76052673  0.05119575  0.87976806  1
  Cl  Cl472  1  0.73693978  0.38604206  0.87759060  1
  Cl  Cl473  1  0.75197244  0.71561671  0.87343526  1
  Cl  Cl474  1  0.24678593  0.28581830  0.37299568  1
  Cl  Cl475  1  0.27213433  0.62287584  0.37295607  1
  Cl  Cl476  1  0.25896963  0.94801602  0.37685073  1
  Cl  Cl477  1  0.74340088  0.27625751  0.38814881  1
  Cl  Cl478  1  0.76849776  0.60593711  0.40040502  1
  Cl  Cl479  1  0.75097093  0.94844285  0.38066807  1
  Cl  Cl480  1  0.00383102  0.22226086  0.61809309  1
  Cl  Cl481  1  -0.02018792  0.54626971  0.62832003  1
  Cl  Cl482  1  -0.00671470  0.89212246  0.61550874  1
  Cl  Cl483  1  0.50391380  0.22253989  0.61969709  1
  Cl  Cl484  1  0.48334160  0.55931680  0.59887122  1
  Cl  Cl485  1  0.49199601  0.88687068  0.61181522  1
  Cl  Cl486  1  -0.01071238  0.10910728  0.10536947  1
  Cl  Cl487  1  0.01629016  0.44333443  0.11438347  1
  Cl  Cl488  1  0.00491274  0.77421840  0.10718047  1
  Cl  Cl489  1  0.48816923  0.10390773  0.10476263  1
  Cl  Cl490  1  0.51187322  0.44497903  0.12167881  1
  Cl  Cl491  1  0.49906775  0.77741021  0.12207987  1
  Cl  Cl492  1  -0.01549455  0.22253071  0.88838594  1
  Cl  Cl493  1  0.00074634  0.55541151  0.89096794  1
  Cl  Cl494  1  0.01415126  0.89548226  0.89390006  1
  Cl  Cl495  1  0.49293431  0.21737653  0.88485101  1
  Cl  Cl496  1  0.50005214  0.55585839  0.86863929  1
  Cl  Cl497  1  0.51324243  0.88780143  0.88426428  1
  Cl  Cl498  1  0.00196121  0.11906531  0.37019644  1
  Cl  Cl499  1  0.00041077  0.44555490  0.38339373  1
  Cl  Cl500  1  -0.00636881  0.78071825  0.37801898  1
  Cl  Cl501  1  0.49483724  0.10358578  0.38970703  1
  Cl  Cl502  1  0.50302423  0.44729204  0.39320302  1
  Cl  Cl503  1  0.48951002  0.77366793  0.39954308  1
  Cl  Cl504  1  0.36294016  0.14925365  0.74539611  1
  Cl  Cl505  1  0.36122889  0.48230032  0.74400551  1
  Cl  Cl506  1  0.36491012  0.81290661  0.75336717  1
  Cl  Cl507  1  0.86028337  0.14926462  0.74893741  1
  Cl  Cl508  1  0.86359694  0.47931177  0.75378265  1
  Cl  Cl509  1  0.86343369  0.81643472  0.75219700  1
  Cl  Cl510  1  0.13663471  0.18701850  0.24300370  1
  Cl  Cl511  1  0.14813918  0.51860373  0.25309903  1
  Cl  Cl512  1  0.13963513  0.85437385  0.25057507  1
  Cl  Cl513  1  0.63848710  0.18667068  0.24019693  1
  Cl  Cl514  1  0.64091632  0.51962211  0.25615063  1
  Cl  Cl515  1  0.63680769  0.85187537  0.25489478  1
  Cl  Cl516  1  0.14437065  0.14684892  0.75551912  1
  Cl  Cl517  1  0.14501682  0.48249532  0.73789549  1
  Cl  Cl518  1  0.14341853  0.81171138  0.75367008  1
  Cl  Cl519  1  0.63886538  0.14363018  0.75795739  1
  Cl  Cl520  1  0.64017853  0.47985598  0.74670749  1
  Cl  Cl521  1  0.64079525  0.81302227  0.74377213  1
  Cl  Cl522  1  0.36090093  0.18546934  0.25121723  1
  Cl  Cl523  1  0.36632403  0.51995909  0.24755203  1
  Cl  Cl524  1  0.36069104  0.85236154  0.24700090  1
  Cl  Cl525  1  0.85718972  0.18238796  0.25009316  1
  Cl  Cl526  1  0.86165074  0.51712253  0.25503899  1
  Cl  Cl527  1  0.85988389  0.85074612  0.24140753  1
  Cl  Cl528  1  0.11006055  0.31750782  0.74931328  1
  Cl  Cl529  1  0.11472558  0.64565955  0.74079545  1
  Cl  Cl530  1  0.12105660  0.97910843  0.75350556  1
  Cl  Cl531  1  0.61139879  0.31292575  0.74852453  1
  Cl  Cl532  1  0.61784744  0.64520862  0.74090836  1
  Cl  Cl533  1  0.61343925  0.98014191  0.75267866  1
  Cl  Cl534  1  0.39378002  0.01785706  0.24582848  1
  Cl  Cl535  1  0.39089348  0.35205090  0.25164325  1
  Cl  Cl536  1  0.39211395  0.68513289  0.25141086  1
  Cl  Cl537  1  0.88807823  0.01771882  0.24678832  1
  Cl  Cl538  1  0.89301094  0.35248981  0.24559364  1
  Cl  Cl539  1  0.89795563  0.68180832  0.25214086  1
  Cl  Cl540  1  0.39230138  0.31602782  0.75354926  1
  Cl  Cl541  1  0.39391885  0.64891957  0.74807129  1
  Cl  Cl542  1  0.39123039  0.98028801  0.74860474  1
  Cl  Cl543  1  0.88894901  0.31271839  0.74871874  1
  Cl  Cl544  1  0.89556275  0.64937847  0.75277953  1
  Cl  Cl545  1  0.89895813  0.98206473  0.75242291  1
  Cl  Cl546  1  0.10854533  0.01919895  0.24474993  1
  Cl  Cl547  1  0.11254950  0.35195748  0.25351146  1
  Cl  Cl548  1  0.11508400  0.68602919  0.25623072  1
  Cl  Cl549  1  0.61102757  0.01877820  0.25162634  1
  Cl  Cl550  1  0.61163995  0.34969252  0.24925887  1
  Cl  Cl551  1  0.61270528  0.68674347  0.25857288  1
