# generated using pymatgen
data_H8PbC4(N3Cl2)2
_symmetry_space_group_name_H-M   'P 1'
_cell_length_a   16.62385238
_cell_length_b   22.52052960
_cell_length_c   21.59505178
_cell_angle_alpha   90.00128956
_cell_angle_beta   90.01133275
_cell_angle_gamma   90.01209166
_symmetry_Int_Tables_number   1
_chemical_formula_structural   H8PbC4(N3Cl2)2
_chemical_formula_sum   'H192 Pb24 C96 N144 Cl96'
_cell_volume   8084.71108699
_cell_formula_units_Z   24
loop_
 _symmetry_equiv_pos_site_id
 _symmetry_equiv_pos_as_xyz
  1  'x, y, z'
loop_
 _atom_site_type_symbol
 _atom_site_label
 _atom_site_symmetry_multiplicity
 _atom_site_fract_x
 _atom_site_fract_y
 _atom_site_fract_z
 _atom_site_occupancy
  H  H0  1  0.01396957  0.02740384  0.67598163  1
  H  H1  1  0.00878197  0.36149381  0.67876222  1
  H  H2  1  0.00757325  0.69591745  0.68150502  1
  H  H3  1  0.48759482  0.02721223  0.67626014  1
  H  H4  1  0.49336837  0.36258570  0.68091522  1
  H  H5  1  0.48860910  0.69645626  0.67779919  1
  H  H6  1  0.01293559  0.30428783  0.17526777  1
  H  H7  1  0.00660724  0.64148306  0.17492331  1
  H  H8  1  0.00505195  0.97022375  0.17808251  1
  H  H9  1  0.49195806  0.30749922  0.17251844  1
  H  H10  1  0.49933657  0.63507030  0.17782618  1
  H  H11  1  0.49530354  0.97134243  0.18002232  1
  H  H12  1  -0.00103027  0.02863904  0.82608516  1
  H  H13  1  -0.00976860  0.36742205  0.81950621  1
  H  H14  1  -0.00120397  0.69293302  0.82270593  1
  H  H15  1  0.48747390  0.03151794  0.82201620  1
  H  H16  1  0.50311923  0.36106091  0.82463672  1
  H  H17  1  0.51111264  0.69485838  0.82043283  1
  H  H18  1  -0.00768665  0.30730847  0.32112679  1
  H  H19  1  0.00320355  0.63427686  0.31703505  1
  H  H20  1  -0.01501469  0.96993729  0.32207086  1
  H  H21  1  0.50064833  0.30531874  0.32105187  1
  H  H22  1  0.48630328  0.63929454  0.32158424  1
  H  H23  1  0.50928770  0.96962103  0.32177785  1
  H  H24  1  0.25305135  0.19663668  0.67505427  1
  H  H25  1  0.23100660  0.52873719  0.67600074  1
  H  H26  1  0.26170353  0.86331623  0.67320195  1
  H  H27  1  0.75369630  0.19231339  0.68004578  1
  H  H28  1  0.75846806  0.53002741  0.67744503  1
  H  H29  1  0.74169680  0.85902984  0.67554163  1
  H  H30  1  0.25807004  0.13662694  0.17747093  1
  H  H31  1  0.23973044  0.47470878  0.17673102  1
  H  H32  1  0.26892752  0.80055028  0.17710920  1
  H  H33  1  0.75423286  0.13626832  0.18391769  1
  H  H34  1  0.76040232  0.47234744  0.17957041  1
  H  H35  1  0.74391329  0.80884138  0.17598665  1
  H  H36  1  0.24332931  0.19411633  0.82023868  1
  H  H37  1  0.23833264  0.53162475  0.82952720  1
  H  H38  1  0.26070850  0.86177784  0.82433488  1
  H  H39  1  0.75179402  0.19389297  0.82306629  1
  H  H40  1  0.75665583  0.53096738  0.82064225  1
  H  H41  1  0.74913824  0.86432314  0.82552683  1
  H  H42  1  0.25364300  0.13732733  0.31623328  1
  H  H43  1  0.25295795  0.47196323  0.32119913  1
  H  H44  1  0.23851682  0.80900114  0.32019412  1
  H  H45  1  0.75380322  0.14036083  0.32493877  1
  H  H46  1  0.75756048  0.47179966  0.32370006  1
  H  H47  1  0.75801029  0.80221845  0.32303278  1
  H  H48  1  0.11960845  0.05691617  0.59153783  1
  H  H49  1  0.13503235  0.38799815  0.60964438  1
  H  H50  1  0.12903252  0.71385157  0.60698440  1
  H  H51  1  0.62557182  0.05157417  0.62245272  1
  H  H52  1  0.62921607  0.38459131  0.62060371  1
  H  H53  1  0.63040882  0.71279696  0.62765251  1
  H  H54  1  0.36622083  0.27773018  0.10541176  1
  H  H55  1  0.36349550  0.61545873  0.12038896  1
  H  H56  1  0.39042710  0.94495866  0.09507604  1
  H  H57  1  0.86924375  0.28257429  0.12989810  1
  H  H58  1  0.86710887  0.62201816  0.12099272  1
  H  H59  1  0.88829554  0.94150411  0.10268101  1
  H  H60  1  0.37885316  0.05824979  0.90285194  1
  H  H61  1  0.37886361  0.38931197  0.89364854  1
  H  H62  1  0.38448042  0.71898151  0.88909207  1
  H  H63  1  0.88560161  0.05645139  0.90391479  1
  H  H64  1  0.88660089  0.39279480  0.90440130  1
  H  H65  1  0.88002049  0.72167495  0.89615699  1
  H  H66  1  0.12202182  0.28074339  0.38533060  1
  H  H67  1  0.12692766  0.61246278  0.39088451  1
  H  H68  1  0.12363520  0.94815660  0.37813915  1
  H  H69  1  0.62306255  0.27884505  0.39104447  1
  H  H70  1  0.62305885  0.61393951  0.37953067  1
  H  H71  1  0.61965769  0.94510305  0.40154715  1
  H  H72  1  0.37641442  0.22206456  0.60562684  1
  H  H73  1  0.36663092  0.55187393  0.61730551  1
  H  H74  1  0.37466089  0.89501155  0.59668117  1
  H  H75  1  0.87735527  0.21861797  0.61137174  1
  H  H76  1  0.86883361  0.55672029  0.59729141  1
  H  H77  1  0.87690527  0.88491781  0.61988675  1
  H  H78  1  0.12140368  0.11490869  0.11942696  1
  H  H79  1  0.11747193  0.44820124  0.10564396  1
  H  H80  1  0.12745031  0.78230524  0.12551580  1
  H  H81  1  0.62104523  0.11530122  0.11871228  1
  H  H82  1  0.62095318  0.45015469  0.12876557  1
  H  H83  1  0.62528076  0.77704748  0.10391159  1
  H  H84  1  0.13850704  0.22373328  0.90423671  1
  H  H85  1  0.13765275  0.56173449  0.91379705  1
  H  H86  1  0.11787058  0.87610964  0.87653888  1
  H  H87  1  0.63351074  0.22183816  0.89671405  1
  H  H88  1  0.64221725  0.55608216  0.90043006  1
  H  H89  1  0.61999982  0.89159410  0.88966442  1
  H  H90  1  0.37610328  0.11183375  0.38636206  1
  H  H91  1  0.36352473  0.44307349  0.40268147  1
  H  H92  1  0.36877166  0.78195131  0.38120304  1
  H  H93  1  0.87441352  0.11011520  0.39595184  1
  H  H94  1  0.86453320  0.44291652  0.40457183  1
  H  H95  1  0.86523625  0.77284216  0.40421276  1
  H  H96  1  0.37381921  0.28204538  0.38691727  1
  H  H97  1  0.37549092  0.61089267  0.40170704  1
  H  H98  1  0.37243032  0.94842067  0.37754555  1
  H  H99  1  0.87325971  0.27854702  0.39439043  1
  H  H100  1  0.87746427  0.60971038  0.38575259  1
  H  H101  1  0.87868203  0.94165530  0.40763889  1
  H  H102  1  0.13357313  0.05269521  0.88511414  1
  H  H103  1  0.13122080  0.38390716  0.86961024  1
  H  H104  1  0.12854597  0.71446981  0.88501990  1
  H  H105  1  0.62442274  0.04874154  0.87583691  1
  H  H106  1  0.62820738  0.38674916  0.89360356  1
  H  H107  1  0.63272985  0.72231915  0.89378592  1
  H  H108  1  0.11121618  0.27189953  0.08839262  1
  H  H109  1  0.11273920  0.60927612  0.09242905  1
  H  H110  1  0.13643584  0.94926830  0.11385270  1
  H  H111  1  0.61516187  0.27728430  0.10469079  1
  H  H112  1  0.61165494  0.61105581  0.09893106  1
  H  H113  1  0.63557461  0.94757409  0.12705251  1
  H  H114  1  0.37948368  0.05699162  0.59416833  1
  H  H115  1  0.38249922  0.38998681  0.59820190  1
  H  H116  1  0.38571826  0.72586811  0.59470485  1
  H  H117  1  0.87461777  0.05051564  0.62141557  1
  H  H118  1  0.88635064  0.38780559  0.60710074  1
  H  H119  1  0.88183366  0.72477457  0.61496255  1
  H  H120  1  0.12650764  0.11479949  0.38265495  1
  H  H121  1  0.11680679  0.44895706  0.38094893  1
  H  H122  1  0.12019938  0.78047426  0.39633627  1
  H  H123  1  0.62585722  0.11219055  0.39088783  1
  H  H124  1  0.61844679  0.45221438  0.37626485  1
  H  H125  1  0.61926661  0.78470250  0.37595735  1
  H  H126  1  0.38372860  0.21388345  0.87418174  1
  H  H127  1  0.37964802  0.54615241  0.87674695  1
  H  H128  1  0.36060544  0.89826419  0.90837468  1
  H  H129  1  0.88246220  0.21824258  0.88781887  1
  H  H130  1  0.88986048  0.55595951  0.88253927  1
  H  H131  1  0.86771438  0.88649551  0.90098069  1
  H  H132  1  0.36821794  0.10785904  0.09721526  1
  H  H133  1  0.36648594  0.44669365  0.10879755  1
  H  H134  1  0.37032903  0.77190109  0.08890717  1
  H  H135  1  0.86902137  0.10757827  0.10475706  1
  H  H136  1  0.86555336  0.44177410  0.09540330  1
  H  H137  1  0.87399215  0.78047028  0.11389927  1
  H  H138  1  0.12721662  0.22275531  0.60672493  1
  H  H139  1  0.11896251  0.55838775  0.59723951  1
  H  H140  1  0.12703500  0.88314246  0.61269937  1
  H  H141  1  0.62882322  0.21892296  0.60986583  1
  H  H142  1  0.62236405  0.54905749  0.62245050  1
  H  H143  1  0.63012035  0.89253770  0.59770726  1
  H  H144  1  0.41159085  0.25311520  0.49849040  1
  H  H145  1  0.09469375  0.74761307  -0.00312554  1
  H  H146  1  0.10166766  0.08297805  0.99315428  1
  H  H147  1  0.12064777  0.41420664  0.98345823  1
  H  H148  1  0.85671371  0.58382594  0.99102969  1
  H  H149  1  0.33259114  0.74708397  0.49228144  1
  H  H150  1  0.63368525  0.75086801  0.49123351  1
  H  H151  1  0.95947361  0.42136651  1.00771298  1
  H  H152  1  0.55349807  0.91373670  0.50827705  1
  H  H153  1  0.44280312  0.57844321  0.50465645  1
  H  H154  1  0.27947105  0.91649906  1.00745103  1
  H  H155  1  0.60525226  0.08281760  -0.01022115  1
  H  H156  1  0.21322723  0.25401796  1.00563500  1
  H  H157  1  0.28916135  0.73909310  -0.00458026  1
  H  H158  1  0.84733511  0.24420899  0.99661648  1
  H  H159  1  0.92409250  0.57980134  0.49493740  1
  H  H160  1  0.17408547  0.25234413  0.50182897  1
  H  H161  1  0.46170991  0.75575040  0.49073441  1
  H  H162  1  0.92854695  0.24711591  0.50072600  1
  H  H163  1  0.02821363  0.24537678  -0.00867843  1
  H  H164  1  0.79079783  0.41976230  -0.00438936  1
  H  H165  1  0.94366997  0.77933774  0.52568407  1
  H  H166  1  0.57674395  0.24918752  0.50042114  1
  H  H167  1  0.08805311  0.41706373  0.50618506  1
  H  H168  1  0.68847586  0.25076074  1.00516163  1
  H  H169  1  0.64417780  0.58025187  0.50816077  1
  H  H170  1  0.80828373  0.93352568  0.99413066  1
  H  H171  1  0.79606777  0.41434806  0.50993091  1
  H  H172  1  0.65831970  0.91481778  0.99699373  1
  H  H173  1  0.32799449  0.08338250  0.49715135  1
  H  H174  1  0.63587649  0.42125223  0.48912703  1
  H  H175  1  0.63583033  0.41932393  0.01530222  1
  H  H176  1  0.69983475  0.92315025  0.49699032  1
  H  H177  1  0.42908525  0.41960922  0.99852456  1
  H  H178  1  0.18016600  0.76441573  0.50124116  1
  H  H179  1  0.41215211  0.24440479  0.00165383  1
  H  H180  1  0.54809628  0.57973975  -0.00764673  1
  H  H181  1  0.37873861  0.58195605  -0.00140526  1
  H  H182  1  0.45363257  0.08264520  0.49346808  1
  H  H183  1  0.46477347  0.91844193  -0.00757750  1
  H  H184  1  0.16793919  0.08913940  0.49586879  1
  H  H185  1  0.79595427  0.74006282  0.50758341  1
  H  H186  1  0.83493775  0.74859735  0.00815709  1
  H  H187  1  0.57750601  0.74666847  0.99765158  1
  H  H188  1  0.15939311  0.91924756  0.50700668  1
  H  H189  1  0.05916639  0.70447951  0.50282683  1
  H  H190  1  0.13185961  0.91480558  0.98311422  1
  H  H191  1  0.04054970  0.07971730  0.49218096  1
  Pb  Pb192  1  0.25316838  0.04834884  0.74362369  1
  Pb  Pb193  1  0.26202243  0.38300190  0.74535953  1
  Pb  Pb194  1  0.25640775  0.71601704  0.74530557  1
  Pb  Pb195  1  0.76066330  0.04895516  0.75690918  1
  Pb  Pb196  1  0.75517584  0.38215121  0.75763990  1
  Pb  Pb197  1  0.75591243  0.71462210  0.75766799  1
  Pb  Pb198  1  0.24073752  0.28351834  0.24557220  1
  Pb  Pb199  1  0.24547346  0.61868569  0.25133124  1
  Pb  Pb200  1  0.24844318  0.95120763  0.24109405  1
  Pb  Pb201  1  0.74409814  0.28533454  0.24942628  1
  Pb  Pb202  1  0.74271720  0.61730792  0.24649274  1
  Pb  Pb203  1  0.74940952  0.95243319  0.25594399  1
  Pb  Pb204  1  0.00992680  0.21800324  0.75466527  1
  Pb  Pb205  1  0.00610498  0.54807734  0.74565291  1
  Pb  Pb206  1  0.00169750  0.88004890  0.75146598  1
  Pb  Pb207  1  0.50678682  0.21351403  0.74924883  1
  Pb  Pb208  1  0.50497833  0.54820014  0.75228405  1
  Pb  Pb209  1  0.50685934  0.88491155  0.75086308  1
  Pb  Pb210  1  -0.00687685  0.11677843  0.24960537  1
  Pb  Pb211  1  -0.00616214  0.45234293  0.24950236  1
  Pb  Pb212  1  -0.00576284  0.78400734  0.26053515  1
  Pb  Pb213  1  0.49635419  0.11776392  0.25150685  1
  Pb  Pb214  1  0.48906248  0.44955928  0.24677631  1
  Pb  Pb215  1  0.49708100  0.78538428  0.23852699  1
  C  C216  1  0.00326080  0.04393555  0.62951791  1
  C  C217  1  0.01031985  0.37888204  0.63195816  1
  C  C218  1  0.00615796  0.71067181  0.63369918  1
  C  C219  1  0.49715018  0.04406684  0.62989439  1
  C  C220  1  0.50164636  0.37829319  0.63385350  1
  C  C221  1  0.50175159  0.71143831  0.63106343  1
  C  C222  1  -0.00218254  0.28732203  0.12964253  1
  C  C223  1  -0.00456256  0.62453481  0.12883548  1
  C  C224  1  0.01000663  0.95462869  0.13090409  1
  C  C225  1  0.49056717  0.28831863  0.12660539  1
  C  C226  1  0.49144674  0.62032758  0.13036567  1
  C  C227  1  0.50756819  0.95543629  0.13350851  1
  C  C228  1  0.00659651  0.04542778  0.87277526  1
  C  C229  1  0.00330398  0.38121442  0.86667113  1
  C  C230  1  0.00307114  0.70939618  0.86964640  1
  C  C231  1  0.49797833  0.04641905  0.86901267  1
  C  C232  1  0.50298038  0.37853689  0.87140455  1
  C  C233  1  0.50993200  0.71147687  0.86755630  1
  C  C234  1  -0.00398163  0.28978833  0.36780398  1
  C  C235  1  0.00274604  0.61911539  0.36473856  1
  C  C236  1  -0.00443981  0.95423644  0.36893243  1
  C  C237  1  0.49918808  0.28898869  0.36838036  1
  C  C238  1  0.49522126  0.62180698  0.36797033  1
  C  C239  1  0.50048945  0.95459311  0.36890535  1
  C  C240  1  0.25168107  0.21334630  0.62802934  1
  C  C241  1  0.23912417  0.54592994  0.62969538  1
  C  C242  1  0.25404761  0.88047569  0.62668063  1
  C  C243  1  0.75298031  0.20935878  0.63335544  1
  C  C244  1  0.74896739  0.54504194  0.63035169  1
  C  C245  1  0.74927758  0.87757218  0.62967509  1
  C  C246  1  0.24885015  0.12022170  0.13102281  1
  C  C247  1  0.24158694  0.45749471  0.13005062  1
  C  C248  1  0.25596683  0.78498454  0.13067740  1
  C  C249  1  0.74812075  0.12040725  0.13669994  1
  C  C250  1  0.74901646  0.45666198  0.13276202  1
  C  C251  1  0.74824670  0.79002593  0.13002564  1
  C  C252  1  0.25556411  0.20980563  0.86681799  1
  C  C253  1  0.25267063  0.54667972  0.87594239  1
  C  C254  1  0.24612671  0.87798361  0.87047283  1
  C  C255  1  0.75670153  0.21051263  0.87024471  1
  C  C256  1  0.76336438  0.54723847  0.86768015  1
  C  C257  1  0.74532281  0.88031689  0.87298707  1
  C  C258  1  0.25192040  0.12200763  0.36389153  1
  C  C259  1  0.24444807  0.45596103  0.36814349  1
  C  C260  1  0.24181317  0.79200633  0.36729156  1
  C  C261  1  0.75102123  0.12176639  0.37104039  1
  C  C262  1  0.74637051  0.45595915  0.37044059  1
  C  C263  1  0.74697374  0.78683420  0.37003063  1
  C  C264  1  0.54618162  0.40827871  0.96380884  1
  C  C265  1  0.69183535  0.57151566  0.54169961  1
  C  C266  1  0.47613569  0.07634351  0.96483401  1
  C  C267  1  0.51558726  0.59207420  0.03416099  1
  C  C268  1  0.68546857  0.42799133  0.04842061  1
  C  C269  1  0.77268402  0.57391107  0.53444122  1
  C  C270  1  0.71350168  0.75427641  0.03762413  1
  C  C271  1  0.29288543  0.24448416  0.53551621  1
  C  C272  1  0.55697354  0.07367068  0.95689960  1
  C  C273  1  0.23981480  0.57710082  0.97197606  1
  C  C274  1  0.20806397  0.09720349  0.45705193  1
  C  C275  1  0.68488939  0.43002214  0.45690436  1
  C  C276  1  0.76578962  0.42674544  0.46721163  1
  C  C277  1  0.52231358  0.92575589  0.46576669  1
  C  C278  1  0.53701710  0.26077891  0.46224117  1
  C  C279  1  0.29018914  0.09546472  0.45803399  1
  C  C280  1  0.68483016  0.76025475  0.45669984  1
  C  C281  1  0.05050461  0.73766451  0.96107337  1
  C  C282  1  0.79117296  0.24037420  0.54171978  1
  C  C283  1  0.20574630  0.42707034  0.03761330  1
  C  C284  1  0.31946344  0.57182807  0.96036455  1
  C  C285  1  0.48911739  0.74146741  0.53395136  1
  C  C286  1  0.96385803  0.59245558  0.45701969  1
  C  C287  1  0.78422165  0.08730339  0.46212904  1
  C  C288  1  0.72385079  0.23980572  0.96415568  1
  C  C289  1  0.05598077  0.92859699  0.04000804  1
  C  C290  1  0.76595130  0.75525945  0.46580980  1
  C  C291  1  0.06888170  0.40572818  0.95228063  1
  C  C292  1  0.28229524  0.91514729  0.53245156  1
  C  C293  1  0.56902737  0.73619846  0.54598232  1
  C  C294  1  0.44152477  0.92741659  0.45607590  1
  C  C295  1  0.27015358  0.08841271  0.03638517  1
  C  C296  1  0.45475459  0.26231999  0.46106254  1
  C  C297  1  0.43425964  0.59455285  0.04214257  1
  C  C298  1  0.80709279  0.91367553  0.54478804  1
  C  C299  1  0.55832832  0.07659199  0.54487810  1
  C  C300  1  0.49281429  0.92799762  0.03713006  1
  C  C301  1  0.96567025  0.25908165  0.46073421  1
  C  C302  1  0.92807111  0.25721228  0.04817479  1
  C  C303  1  0.93771513  0.59661025  0.04286864  1
  C  C304  1  0.21649995  0.58014655  0.53671629  1
  C  C305  1  0.29141174  0.76127585  0.45612875  1
  C  C306  1  0.53119070  0.25219893  0.03588540  1
  C  C307  1  0.98825083  0.40894043  0.96435741  1
  C  C308  1  0.96888406  0.73965858  0.96343522  1
  C  C309  1  0.97865345  0.07850016  0.96732885  1
  C  C310  1  0.24128348  0.24025467  0.96217155  1
  C  C311  1  0.47426647  0.59057019  0.46223183  1
  N  N312  1  0.71335888  0.24100284  0.54044180  1
  N  N313  1  0.45228132  0.25346409  0.03728076  1
  N  N314  1  0.21181870  0.76229196  0.46058637  1
  N  N315  1  0.01742366  0.07613281  0.53626278  1
  N  N316  1  0.20376756  0.91050161  0.53898594  1
  N  N317  1  0.04876931  0.40873837  0.54220508  1
  N  N318  1  0.55481539  0.40649483  0.54586416  1
  N  N319  1  0.69918062  0.91347976  0.96016526  1
  N  N320  1  0.94038003  0.07459645  0.54564021  1
  N  N321  1  0.97049916  0.40780121  0.53910895  1
  N  N322  1  0.76408816  0.42437352  0.03849522  1
  N  N323  1  0.05712457  0.07618123  0.96006871  1
  N  N324  1  0.00522183  0.25383690  0.03533656  1
  N  N325  1  0.55286722  0.59118079  0.45480342  1
  N  N326  1  0.19309889  0.09123097  0.04248217  1
  N  N327  1  0.05386568  0.92816435  0.45640788  1
  N  N328  1  0.48032131  0.07651131  0.53592323  1
  N  N329  1  0.01421714  0.59169988  0.03270009  1
  N  N330  1  0.18904508  0.75898301  0.04695741  1
  N  N331  1  0.73383739  0.57532071  0.96275168  1
  N  N332  1  0.46699257  0.40960767  0.96270519  1
  N  N333  1  0.72872640  0.91389735  0.53787341  1
  N  N334  1  0.77751298  0.90355788  0.96740092  1
  N  N335  1  0.47937553  0.40810712  0.53831509  1
  N  N336  1  0.46435481  0.74020169  0.95873472  1
  N  N337  1  0.21366170  0.24387877  0.53704899  1
  N  N338  1  0.54247077  0.74117168  0.95881698  1
  N  N339  1  0.77499613  0.09076916  0.04176695  1
  N  N340  1  0.31937892  0.23616949  0.95267839  1
  N  N341  1  0.18178196  0.90058963  0.95421585  1
  N  N342  1  0.26628438  0.42460701  0.46315260  1
  N  N343  1  0.19039477  0.42712526  0.45605017  1
  N  N344  1  0.57070554  0.92724213  0.04810211  1
  N  N345  1  0.29372799  0.57853958  0.54182745  1
  N  N346  1  0.97831414  0.92559342  0.46560246  1
  N  N347  1  0.25756282  0.91646802  0.96218656  1
  N  N348  1  0.26559982  0.75630541  0.03582505  1
  N  N349  1  0.28341184  0.42606020  0.03752967  1
  N  N350  1  0.04526683  0.73280161  0.53887029  1
  N  N351  1  0.04514321  0.25925747  0.45829915  1
  N  N352  1  0.81148415  0.57526494  0.95564137  1
  N  N353  1  0.97857933  0.92507447  0.03534063  1
  N  N354  1  0.04305904  0.59547859  0.45983897  1
  N  N355  1  0.96193096  0.73864169  0.54230068  1
  N  N356  1  0.69920703  0.09423417  0.04613379  1
  N  N357  1  0.79257836  0.75677051  0.04180573  1
  N  N358  1  0.70689395  0.08790165  0.46187500  1
  N  N359  1  0.80340146  0.23832190  0.96011239  1
  N  N360  1  0.05755637  0.05499042  0.58615795  1
  N  N361  1  0.07441743  0.39057205  0.59788963  1
  N  N362  1  0.06836415  0.71121540  0.59555943  1
  N  N363  1  0.56887514  0.05717078  0.60318592  1
  N  N364  1  0.57047008  0.38805537  0.60470390  1
  N  N365  1  0.57588310  0.71831283  0.60537652  1
  N  N366  1  0.42640844  0.27644979  0.09288469  1
  N  N367  1  0.42064455  0.61164283  0.10150819  1
  N  N368  1  0.45273291  0.94480619  0.08924009  1
  N  N369  1  0.92320906  0.27654049  0.10728212  1
  N  N370  1  0.92354874  0.61590734  0.10185683  1
  N  N371  1  0.95012174  0.94198745  0.09313605  1
  N  N372  1  0.44056993  0.05993967  0.91195531  1
  N  N373  1  0.43976095  0.39071227  0.90595735  1
  N  N374  1  0.44479339  0.72315590  0.90130687  1
  N  N375  1  0.94708593  0.05974610  0.91330490  1
  N  N376  1  0.94867425  0.39333934  0.91065322  1
  N  N377  1  0.94069290  0.72280924  0.90792579  1
  N  N378  1  0.06213263  0.27839445  0.39976666  1
  N  N379  1  0.06564251  0.61057499  0.40139299  1
  N  N380  1  0.06583368  0.94590072  0.39637879  1
  N  N381  1  0.56302529  0.27721172  0.40430019  1
  N  N382  1  0.56436136  0.61050451  0.39587104  1
  N  N383  1  0.55818487  0.94294152  0.41020821  1
  N  N384  1  0.31654352  0.22589328  0.59193141  1
  N  N385  1  0.30777322  0.55667928  0.60111838  1
  N  N386  1  0.31373042  0.89644522  0.58670824  1
  N  N387  1  0.81769604  0.22163536  0.59792955  1
  N  N388  1  0.80711624  0.55792305  0.58793988  1
  N  N389  1  0.82003972  0.89153058  0.60178297  1
  N  N390  1  0.17967794  0.11106489  0.10271804  1
  N  N391  1  0.17773176  0.44552867  0.09370029  1
  N  N392  1  0.18358535  0.77749412  0.10561540  1
  N  N393  1  0.68087593  0.11287278  0.10478093  1
  N  N394  1  0.67632221  0.44644709  0.10748385  1
  N  N395  1  0.68597811  0.77449622  0.09252049  1
  N  N396  1  0.20088537  0.22428515  0.90988426  1
  N  N397  1  0.19948342  0.56183288  0.92068064  1
  N  N398  1  0.17388990  0.88540263  0.89480303  1
  N  N399  1  0.69465495  0.22342919  0.90824154  1
  N  N400  1  0.70437942  0.55870655  0.90775697  1
  N  N401  1  0.67879903  0.88998186  0.90528833  1
  N  N402  1  0.31600678  0.11094430  0.39987128  1
  N  N403  1  0.30119253  0.44268082  0.40897369  1
  N  N404  1  0.31001999  0.77826932  0.39806687  1
  N  N405  1  0.81412823  0.10745699  0.40750576  1
  N  N406  1  0.80281468  0.44297275  0.41284907  1
  N  N407  1  0.80344594  0.77225384  0.41168753  1
  N  N408  1  0.43293689  0.27948653  0.40223711  1
  N  N409  1  0.43747252  0.60922341  0.40932169  1
  N  N410  1  0.42907037  0.94454318  0.39748619  1
  N  N411  1  0.93428876  0.27729486  0.40550424  1
  N  N412  1  0.93753334  0.60745845  0.39926400  1
  N  N413  1  0.94089430  0.94156655  0.41163623  1
  N  N414  1  0.07502648  0.05503184  0.90199609  1
  N  N415  1  0.07622582  0.38868100  0.89153856  1
  N  N416  1  0.07040974  0.71880858  0.90173258  1
  N  N417  1  0.56897353  0.05510267  0.89616584  1
  N  N418  1  0.56863513  0.38976703  0.90696015  1
  N  N419  1  0.57177599  0.72180315  0.90442082  1
  N  N420  1  0.04885997  0.27508009  0.08466954  1
  N  N421  1  0.05001348  0.60965721  0.08734126  1
  N  N422  1  0.07798376  0.94611082  0.09832865  1
  N  N423  1  0.55512806  0.27343184  0.09132786  1
  N  N424  1  0.55005044  0.60829883  0.09001689  1
  N  N425  1  0.57835545  0.94467278  0.10816779  1
  N  N426  1  0.44130389  0.05444387  0.58750188  1
  N  N427  1  0.44482853  0.39061805  0.59270645  1
  N  N428  1  0.44772379  0.72567358  0.58800995  1
  N  N429  1  0.93229472  0.05660088  0.60424749  1
  N  N430  1  0.94727921  0.39029140  0.59582426  1
  N  N431  1  0.94248548  0.72860535  0.60246694  1
  N  N432  1  0.18565376  0.11347620  0.39811745  1
  N  N433  1  0.17544634  0.44666420  0.39714648  1
  N  N434  1  0.18142099  0.78441695  0.40639408  1
  N  N435  1  0.68601145  0.10981610  0.40382291  1
  N  N436  1  0.67433916  0.44771300  0.39677772  1
  N  N437  1  0.67501847  0.77969035  0.39681766  1
  N  N438  1  0.32656636  0.21721162  0.89310519  1
  N  N439  1  0.32627174  0.55309677  0.89996700  1
  N  N440  1  0.29873909  0.89283497  0.91408211  1
  N  N441  1  0.82315011  0.21896196  0.90259835  1
  N  N442  1  0.83073186  0.55752346  0.89832718  1
  N  N443  1  0.80646510  0.89273572  0.90982961  1
  N  N444  1  0.30653803  0.10583744  0.08951292  1
  N  N445  1  0.30568548  0.44568376  0.09626707  1
  N  N446  1  0.30801848  0.77073701  0.08679275  1
  N  N447  1  0.80691271  0.10644369  0.09777760  1
  N  N448  1  0.80324900  0.44523720  0.08952435  1
  N  N449  1  0.81458340  0.77956668  0.09833207  1
  N  N450  1  0.18759097  0.22373038  0.59369316  1
  N  N451  1  0.18038541  0.56076978  0.58924339  1
  N  N452  1  0.18573351  0.88937957  0.59710085  1
  N  N453  1  0.68958358  0.22141823  0.59877791  1
  N  N454  1  0.67849344  0.55377797  0.60239945  1
  N  N455  1  0.69184133  0.88990354  0.58930322  1
  Cl  Cl456  1  0.24796935  0.05879174  0.60563589  1
  Cl  Cl457  1  0.25888036  0.38616539  0.61161979  1
  Cl  Cl458  1  0.25397265  0.72998293  0.60429479  1
  Cl  Cl459  1  0.75030520  0.04599515  0.62522836  1
  Cl  Cl460  1  0.76273754  0.38635157  0.62351057  1
  Cl  Cl461  1  0.76228617  0.72124810  0.62494320  1
  Cl  Cl462  1  0.23610322  0.27479787  0.10768644  1
  Cl  Cl463  1  0.23303433  0.61252700  0.11726848  1
  Cl  Cl464  1  0.26745209  0.93782397  0.10196328  1
  Cl  Cl465  1  0.73800171  0.27889577  0.11282040  1
  Cl  Cl466  1  0.73766137  0.61701020  0.11429370  1
  Cl  Cl467  1  0.76518499  0.93890586  0.11731846  1
  Cl  Cl468  1  0.25799971  0.05424847  0.87767598  1
  Cl  Cl469  1  0.25904726  0.38593055  0.87654209  1
  Cl  Cl470  1  0.26125116  0.72020627  0.88605798  1
  Cl  Cl471  1  0.76291889  0.04943994  0.88729475  1
  Cl  Cl472  1  0.75936670  0.39355795  0.89775741  1
  Cl  Cl473  1  0.75516247  0.72736512  0.89457370  1
  Cl  Cl474  1  0.24630069  0.27681398  0.37971473  1
  Cl  Cl475  1  0.25243998  0.61540583  0.38460843  1
  Cl  Cl476  1  0.24657735  0.94262099  0.37295059  1
  Cl  Cl477  1  0.74993602  0.27692768  0.37814858  1
  Cl  Cl478  1  0.75198785  0.61026807  0.37782232  1
  Cl  Cl479  1  0.74827323  0.94177617  0.39477758  1
  Cl  Cl480  1  0.00379756  0.22219834  0.62147253  1
  Cl  Cl481  1  -0.00765710  0.55789695  0.61061068  1
  Cl  Cl482  1  0.00389942  0.87554525  0.61839059  1
  Cl  Cl483  1  0.50089992  0.21810495  0.61487495  1
  Cl  Cl484  1  0.49070187  0.55472308  0.62044215  1
  Cl  Cl485  1  0.50516971  0.89437978  0.61547879  1
  Cl  Cl486  1  -0.00697305  0.11118941  0.11493978  1
  Cl  Cl487  1  -0.01032989  0.44277661  0.11336359  1
  Cl  Cl488  1  -0.00290609  0.77837679  0.12927913  1
  Cl  Cl489  1  0.49304048  0.11407664  0.11862053  1
  Cl  Cl490  1  0.48996509  0.43749475  0.11020498  1
  Cl  Cl491  1  0.49821025  0.77608000  0.10271344  1
  Cl  Cl492  1  0.01400855  0.22344994  0.89863740  1
  Cl  Cl493  1  0.01316187  0.55760745  0.87706560  1
  Cl  Cl494  1  -0.01075189  0.88168578  0.88358136  1
  Cl  Cl495  1  0.51099575  0.22391054  0.88343837  1
  Cl  Cl496  1  0.52166568  0.55178057  0.88666808  1
  Cl  Cl497  1  0.48643582  0.89517445  0.88945901  1
  Cl  Cl498  1  0.00146652  0.10657039  0.38730477  1
  Cl  Cl499  1  -0.01127570  0.44203633  0.38206360  1
  Cl  Cl500  1  -0.00525554  0.77186280  0.39758869  1
  Cl  Cl501  1  0.49892755  0.10469424  0.38871774  1
  Cl  Cl502  1  0.48448526  0.44680351  0.37738863  1
  Cl  Cl503  1  0.49090172  0.78284832  0.37115397  1
  Cl  Cl504  1  0.36202814  0.15170271  0.74887511  1
  Cl  Cl505  1  0.36210130  0.48521006  0.75328184  1
  Cl  Cl506  1  0.35472058  0.81943565  0.74935477  1
  Cl  Cl507  1  0.86023074  0.14940321  0.75318590  1
  Cl  Cl508  1  0.86379999  0.48478934  0.75266906  1
  Cl  Cl509  1  0.85646651  0.82081787  0.74726570  1
  Cl  Cl510  1  0.13852285  0.18649842  0.24631001  1
  Cl  Cl511  1  0.13492123  0.51704275  0.25549996  1
  Cl  Cl512  1  0.13573088  0.85275092  0.24303986  1
  Cl  Cl513  1  0.63298796  0.18517609  0.25361815  1
  Cl  Cl514  1  0.63445403  0.52087002  0.25090819  1
  Cl  Cl515  1  0.63711569  0.85242828  0.24759099  1
  Cl  Cl516  1  0.14045563  0.14836945  0.75028716  1
  Cl  Cl517  1  0.14184659  0.47853809  0.75052042  1
  Cl  Cl518  1  0.13776687  0.81218021  0.75444556  1
  Cl  Cl519  1  0.64190977  0.14511985  0.75370736  1
  Cl  Cl520  1  0.64260613  0.48155981  0.74530877  1
  Cl  Cl521  1  0.63737471  0.81160253  0.75802204  1
  Cl  Cl522  1  0.35843852  0.18526360  0.24835469  1
  Cl  Cl523  1  0.35548423  0.51779201  0.23696204  1
  Cl  Cl524  1  0.35668606  0.84926750  0.24749529  1
  Cl  Cl525  1  0.85820981  0.18530263  0.24834405  1
  Cl  Cl526  1  0.85479305  0.51775911  0.25036463  1
  Cl  Cl527  1  0.85763668  0.84988801  0.25448719  1
  Cl  Cl528  1  0.11300921  0.31383332  0.75312514  1
  Cl  Cl529  1  0.11746046  0.64905341  0.74591120  1
  Cl  Cl530  1  0.11606402  0.97980454  0.75657511  1
  Cl  Cl531  1  0.61849957  0.31473890  0.74817544  1
  Cl  Cl532  1  0.61753291  0.64810752  0.74372359  1
  Cl  Cl533  1  0.61382395  0.97755749  0.76049165  1
  Cl  Cl534  1  0.38855923  0.01479783  0.25555955  1
  Cl  Cl535  1  0.39313073  0.34888409  0.24819230  1
  Cl  Cl536  1  0.38798142  0.68324205  0.24647172  1
  Cl  Cl537  1  0.89355767  0.01508437  0.24682056  1
  Cl  Cl538  1  0.88148275  0.35199342  0.24053768  1
  Cl  Cl539  1  0.88604758  0.68378071  0.24573069  1
  Cl  Cl540  1  0.39916489  0.31715780  0.75053573  1
  Cl  Cl541  1  0.39579746  0.65131210  0.75668904  1
  Cl  Cl542  1  0.39259963  0.98427491  0.74796344  1
  Cl  Cl543  1  0.89236986  0.31524871  0.75383129  1
  Cl  Cl544  1  0.89533733  0.64996612  0.75618686  1
  Cl  Cl545  1  0.89876390  0.98540079  0.74595863  1
  Cl  Cl546  1  0.11621187  0.02267537  0.24865613  1
  Cl  Cl547  1  0.10350382  0.34981699  0.25361474  1
  Cl  Cl548  1  0.10964674  0.68637176  0.25606401  1
  Cl  Cl549  1  0.61274623  0.01952136  0.24157978  1
  Cl  Cl550  1  0.61163958  0.35590147  0.24574694  1
  Cl  Cl551  1  0.60923028  0.68620781  0.25426135  1
