# generated using pymatgen
data_H8PbC4(N3Cl2)2
_symmetry_space_group_name_H-M   'P 1'
_cell_length_a   16.62926113
_cell_length_b   22.53131564
_cell_length_c   21.59981719
_cell_angle_alpha   89.99975431
_cell_angle_beta   90.00205030
_cell_angle_gamma   89.98113736
_symmetry_Int_Tables_number   1
_chemical_formula_structural   H8PbC4(N3Cl2)2
_chemical_formula_sum   'H192 Pb24 C96 N144 Cl96'
_cell_volume   8093.00030157
_cell_formula_units_Z   24
loop_
 _symmetry_equiv_pos_site_id
 _symmetry_equiv_pos_as_xyz
  1  'x, y, z'
loop_
 _atom_site_type_symbol
 _atom_site_label
 _atom_site_symmetry_multiplicity
 _atom_site_fract_x
 _atom_site_fract_y
 _atom_site_fract_z
 _atom_site_occupancy
  H  H0  1  -0.00351549  0.02498393  0.68011203  1
  H  H1  1  -0.00122701  0.36606815  0.67874287  1
  H  H2  1  0.00386785  0.69775576  0.67943963  1
  H  H3  1  0.50625080  0.02673196  0.67441820  1
  H  H4  1  0.50635433  0.36116462  0.67331099  1
  H  H5  1  0.51569573  0.69630531  0.67949607  1
  H  H6  1  -0.00519362  0.31054383  0.17714971  1
  H  H7  1  0.00025437  0.63791269  0.18242643  1
  H  H8  1  0.01704220  0.97154143  0.18355929  1
  H  H9  1  0.50104858  0.30946948  0.17649211  1
  H  H10  1  0.49326591  0.63822849  0.18158446  1
  H  H11  1  0.48655182  0.96686057  0.17265977  1
  H  H12  1  -0.01857916  0.03416044  0.84388287  1
  H  H13  1  -0.01371769  0.35625284  0.82434124  1
  H  H14  1  0.00809387  0.69460038  0.81814746  1
  H  H15  1  0.49349217  0.03043007  0.81251772  1
  H  H16  1  0.50593306  0.36280279  0.82677880  1
  H  H17  1  0.50714959  0.69464045  0.82718586  1
  H  H18  1  0.00258903  0.30751940  0.32016568  1
  H  H19  1  0.02482787  0.64333045  0.31942512  1
  H  H20  1  0.00872771  0.96919918  0.32396932  1
  H  H21  1  0.49737761  0.30302391  0.32525885  1
  H  H22  1  0.51809007  0.63107058  0.34236825  1
  H  H23  1  0.49227358  0.97710401  0.31916945  1
  H  H24  1  0.22824267  0.19232793  0.67253136  1
  H  H25  1  0.22721285  0.52768753  0.68003359  1
  H  H26  1  0.26488751  0.86384067  0.68033500  1
  H  H27  1  0.77110949  0.19796803  0.67854199  1
  H  H28  1  0.73162463  0.52694942  0.64978455  1
  H  H29  1  0.73859333  0.86528538  0.67624197  1
  H  H30  1  0.24503539  0.14509413  0.17793315  1
  H  H31  1  0.24519966  0.46938092  0.17799522  1
  H  H32  1  0.24932517  0.80311069  0.17659022  1
  H  H33  1  0.77091965  0.13842177  0.15388040  1
  H  H34  1  0.76035509  0.47252558  0.17401836  1
  H  H35  1  0.76157441  0.80594023  0.17939576  1
  H  H36  1  0.24534086  0.19587598  0.81997818  1
  H  H37  1  0.25588708  0.52662257  0.82454168  1
  H  H38  1  0.23307750  0.85788984  0.82614290  1
  H  H39  1  0.75922337  0.19666807  0.82418490  1
  H  H40  1  0.75226837  0.52835754  0.81818908  1
  H  H41  1  0.76929354  0.85916287  0.82777685  1
  H  H42  1  0.24735773  0.13891965  0.32465001  1
  H  H43  1  0.24912812  0.46731674  0.32073315  1
  H  H44  1  0.25396387  0.80400309  0.32227420  1
  H  H45  1  0.74914156  0.13740060  0.32154657  1
  H  H46  1  0.74520371  0.46891010  0.32355885  1
  H  H47  1  0.73621199  0.80701150  0.32054041  1
  H  H48  1  0.11174669  0.05458086  0.60254834  1
  H  H49  1  0.11546131  0.38902081  0.60096329  1
  H  H50  1  0.12097620  0.72597837  0.60470849  1
  H  H51  1  0.61318234  0.05710400  0.59223715  1
  H  H52  1  0.61367238  0.39336457  0.59275466  1
  H  H53  1  0.61314546  0.72772460  0.58991123  1
  H  H54  1  0.38379304  0.27874372  0.10363270  1
  H  H55  1  0.37613617  0.60796146  0.10555486  1
  H  H56  1  0.37994569  0.93957941  0.09121562  1
  H  H57  1  0.88619102  0.27744744  0.09593062  1
  H  H58  1  0.87933360  0.61074184  0.10769771  1
  H  H59  1  0.87557718  0.95460724  0.13003642  1
  H  H60  1  0.36219809  0.05179813  0.87349584  1
  H  H61  1  0.38038140  0.38734762  0.89584318  1
  H  H62  1  0.36858574  0.71375038  0.88168859  1
  H  H63  1  0.84135363  0.05469025  0.89357503  1
  H  H64  1  0.87690108  0.39151777  0.90221376  1
  H  H65  1  0.86684632  0.71305315  0.86985512  1
  H  H66  1  0.12334104  0.28875713  0.39481804  1
  H  H67  1  0.14160206  0.62007908  0.39879582  1
  H  H68  1  0.11784233  0.94102502  0.40320774  1
  H  H69  1  0.62687351  0.28111506  0.39029255  1
  H  H70  1  0.65648955  0.61091611  0.39440854  1
  H  H71  1  0.61184125  0.94889749  0.39430407  1
  H  H72  1  0.37505763  0.21227309  0.63281866  1
  H  H73  1  0.35765258  0.55250897  0.61911126  1
  H  H74  1  0.38109017  0.88655539  0.60435666  1
  H  H75  1  0.86817922  0.23112681  0.59204060  1
  H  H76  1  0.83411681  0.57028342  0.57060318  1
  H  H77  1  0.87848556  0.88434492  0.62270582  1
  H  H78  1  0.14259897  0.11112279  0.09380417  1
  H  H79  1  0.12037653  0.44656599  0.11028031  1
  H  H80  1  0.13868183  0.77419854  0.09575690  1
  H  H81  1  0.66399675  0.10075075  0.07555839  1
  H  H82  1  0.62048671  0.45019657  0.12131481  1
  H  H83  1  0.63864026  0.77733576  0.10847048  1
  H  H84  1  0.11308324  0.22022130  0.88128472  1
  H  H85  1  0.12390452  0.54922008  0.88316672  1
  H  H86  1  0.13482021  0.89325791  0.91220900  1
  H  H87  1  0.62167937  0.21749628  0.88082449  1
  H  H88  1  0.62689458  0.55071765  0.88683934  1
  H  H89  1  0.62606223  0.88071588  0.87587388  1
  H  H90  1  0.38118389  0.11308600  0.38463615  1
  H  H91  1  0.38529833  0.44710988  0.37885242  1
  H  H92  1  0.37471607  0.77684688  0.39251767  1
  H  H93  1  0.88160950  0.11412262  0.38542942  1
  H  H94  1  0.88382916  0.44863785  0.37965343  1
  H  H95  1  0.87798670  0.78584002  0.36891143  1
  H  H96  1  0.37810859  0.27748019  0.39691246  1
  H  H97  1  0.41148121  0.60135672  0.42312359  1
  H  H98  1  0.36360195  0.94549724  0.38416078  1
  H  H99  1  0.87680907  0.27566627  0.38477780  1
  H  H100  1  0.89567745  0.60909930  0.37670397  1
  H  H101  1  0.87134149  0.95139522  0.37957872  1
  H  H102  1  0.08649809  0.06862463  0.92543894  1
  H  H103  1  0.12333577  0.38299264  0.87976651  1
  H  H104  1  0.11252220  0.72009107  0.90191195  1
  H  H105  1  0.60974182  0.05425794  0.88786250  1
  H  H106  1  0.62887870  0.39135785  0.89583062  1
  H  H107  1  0.61417370  0.72703974  0.90792568  1
  H  H108  1  0.13244897  0.28697797  0.12227191  1
  H  H109  1  0.12755312  0.61218717  0.11398032  1
  H  H110  1  0.12022679  0.93947078  0.09901472  1
  H  H111  1  0.63262333  0.28082100  0.11477712  1
  H  H112  1  0.62373956  0.61245583  0.11576275  1
  H  H113  1  0.62576392  0.95181017  0.11891352  1
  H  H114  1  0.36793252  0.04881022  0.62053809  1
  H  H115  1  0.36797410  0.38074795  0.61751439  1
  H  H116  1  0.37228233  0.71589688  0.63151219  1
  H  H117  1  0.86382911  0.05055594  0.61604332  1
  H  H118  1  0.86751730  0.39159639  0.61460738  1
  H  H119  1  0.87291896  0.72039733  0.61445972  1
  H  H120  1  0.13263078  0.11036037  0.40076000  1
  H  H121  1  0.13837203  0.44169630  0.40238738  1
  H  H122  1  0.12613434  0.78495982  0.38967175  1
  H  H123  1  0.63387115  0.11117592  0.39928979  1
  H  H124  1  0.63766750  0.43753474  0.40468403  1
  H  H125  1  0.63440104  0.77266764  0.40536225  1
  H  H126  1  0.36103514  0.22403253  0.89788094  1
  H  H127  1  0.37208149  0.55283013  0.90107816  1
  H  H128  1  0.37684848  0.87913951  0.87112652  1
  H  H129  1  0.86730694  0.22987449  0.90311924  1
  H  H130  1  0.87643738  0.55146107  0.88684581  1
  H  H131  1  0.86989593  0.89204488  0.91300451  1
  H  H132  1  0.38440059  0.11392363  0.12982326  1
  H  H133  1  0.36941526  0.44866561  0.10743305  1
  H  H134  1  0.38499946  0.77872853  0.11745446  1
  H  H135  1  0.90894815  0.11781795  0.10199790  1
  H  H136  1  0.86534827  0.43578860  0.09375116  1
  H  H137  1  0.88701728  0.78089239  0.11079027  1
  H  H138  1  0.13657621  0.22871781  0.58264532  1
  H  H139  1  0.11029787  0.54953520  0.60061815  1
  H  H140  1  0.13261059  0.88393207  0.61844656  1
  H  H141  1  0.62705314  0.21017682  0.63319362  1
  H  H142  1  0.59039353  0.54987234  0.60160887  1
  H  H143  1  0.63405291  0.89333148  0.58931524  1
  H  H144  1  0.05256891  0.91098299  0.50909213  1
  H  H145  1  0.66856388  0.58214784  0.99630005  1
  H  H146  1  0.71217662  0.92836447  0.49501766  1
  H  H147  1  0.17570771  0.55549418  0.49527107  1
  H  H148  1  0.58210427  0.41363093  0.99993705  1
  H  H149  1  0.84328403  0.08485729  0.49115766  1
  H  H150  1  0.39007052  0.41233417  0.50786949  1
  H  H151  1  0.22165528  0.08065590  -0.00353516  1
  H  H152  1  0.35585715  0.74869684  0.00930893  1
  H  H153  1  0.62891979  0.24573657  0.51972693  1
  H  H154  1  0.55394976  0.08039725  0.99763004  1
  H  H155  1  0.93696097  0.21803553  0.47249480  1
  H  H156  1  0.32543550  0.91548674  0.49586738  1
  H  H157  1  0.21828634  0.91956847  1.00828732  1
  H  H158  1  0.44679701  0.91269808  -0.01481620  1
  H  H159  1  0.44054739  0.24393655  -0.00289002  1
  H  H160  1  0.42532554  0.24930131  0.50730443  1
  H  H161  1  0.73484814  0.07856511  -0.02729530  1
  H  H162  1  0.52667666  0.75037057  0.49388371  1
  H  H163  1  0.79281368  0.92291035  1.01306757  1
  H  H164  1  0.59709070  0.25273668  0.00841745  1
  H  H165  1  0.14688920  0.25166067  0.99259700  1
  H  H166  1  0.47644623  0.57426377  0.52907161  1
  H  H167  1  0.01310993  0.09223179  1.02592295  1
  H  H168  1  0.32661847  0.75171203  0.50426313  1
  H  H169  1  0.22685367  0.25277580  0.48879292  1
  H  H170  1  0.19308694  0.07267214  0.50525075  1
  H  H171  1  0.05893985  0.28034166  0.49953211  1
  H  H172  1  0.78777491  0.26074776  0.49225697  1
  H  H173  1  0.63625812  0.91424152  0.98570183  1
  H  H174  1  0.15434489  0.58311909  0.99656154  1
  H  H175  1  0.42982195  0.43425960  0.99048102  1
  H  H176  1  0.90617072  0.41433793  0.50718754  1
  H  H177  1  0.04245125  0.90723215  -0.00056825  1
  H  H178  1  0.54296821  0.75006412  1.00940542  1
  H  H179  1  0.89174166  0.91865906  0.49087861  1
  H  H180  1  0.83251325  0.58143749  0.99735806  1
  H  H181  1  0.32317105  0.58796711  0.50807609  1
  H  H182  1  0.92863559  0.57666110  0.48853889  1
  H  H183  1  0.71162236  0.75176574  0.50413918  1
  H  H184  1  0.86458172  0.75325506  0.48200769  1
  H  H185  1  0.07427302  0.61214662  0.50356998  1
  H  H186  1  0.34879155  0.08301439  0.49152820  1
  H  H187  1  0.84469087  0.74585183  0.00272588  1
  H  H188  1  0.04020631  0.74637162  1.00707295  1
  H  H189  1  0.75995945  0.59094850  0.46911306  1
  H  H190  1  0.39303947  0.07572124  0.98820241  1
  H  H191  1  0.16263688  0.42246156  0.99732631  1
  Pb  Pb192  1  0.23266633  0.05019989  0.75527861  1
  Pb  Pb193  1  0.24508516  0.38177443  0.75045936  1
  Pb  Pb194  1  0.24164483  0.71587304  0.75305081  1
  Pb  Pb195  1  0.74236880  0.04968912  0.74195446  1
  Pb  Pb196  1  0.73931626  0.38573282  0.74871969  1
  Pb  Pb197  1  0.74128579  0.71770803  0.74395144  1
  Pb  Pb198  1  0.25596389  0.28386244  0.25644053  1
  Pb  Pb199  1  0.25351464  0.61539303  0.26025084  1
  Pb  Pb200  1  0.25457426  0.95075950  0.24445707  1
  Pb  Pb201  1  0.75572419  0.28390461  0.24443445  1
  Pb  Pb202  1  0.75591258  0.61807005  0.24242975  1
  Pb  Pb203  1  0.74806946  0.95188230  0.25505882  1
  Pb  Pb204  1  -0.00887592  0.21998255  0.73768229  1
  Pb  Pb205  1  -0.00960877  0.54928746  0.73527074  1
  Pb  Pb206  1  -0.00440010  0.88247570  0.76436704  1
  Pb  Pb207  1  0.49244743  0.21469794  0.75927393  1
  Pb  Pb208  1  0.49193060  0.54928945  0.76020790  1
  Pb  Pb209  1  0.49555624  0.88269333  0.73869508  1
  Pb  Pb210  1  0.00548691  0.11733206  0.25488973  1
  Pb  Pb211  1  0.00296344  0.45045077  0.24907381  1
  Pb  Pb212  1  0.00549784  0.78670149  0.24399539  1
  Pb  Pb213  1  0.51183590  0.11871382  0.24187465  1
  Pb  Pb214  1  0.50568973  0.45017605  0.25143455  1
  Pb  Pb215  1  0.50214006  0.77969159  0.25598903  1
  C  C216  1  -0.00942480  0.04239167  0.63341785  1
  C  C217  1  -0.00668488  0.38150445  0.63141486  1
  C  C218  1  -0.00136081  0.71421072  0.63266092  1
  C  C219  1  0.49539520  0.04348388  0.62837722  1
  C  C220  1  0.49540662  0.37703057  0.62673162  1
  C  C221  1  0.50066645  0.71208645  0.63344442  1
  C  C222  1  0.00433401  0.29257117  0.13134681  1
  C  C223  1  0.00226776  0.62111772  0.13533943  1
  C  C224  1  0.00396790  0.95561995  0.13726419  1
  C  C225  1  0.50648200  0.29085675  0.13024632  1
  C  C226  1  0.49779747  0.62097117  0.13475989  1
  C  C227  1  0.49726884  0.95215122  0.12554586  1
  C  C228  1  -0.03058266  0.05122800  0.89019764  1
  C  C229  1  -0.00408463  0.37583961  0.86935254  1
  C  C230  1  -0.00410953  0.70861626  0.86519331  1
  C  C231  1  0.48797800  0.04500222  0.86026689  1
  C  C232  1  0.50494201  0.37979595  0.87385794  1
  C  C233  1  0.49704576  0.71027191  0.87406493  1
  C  C234  1  0.00072086  0.29126665  0.36743466  1
  C  C235  1  0.02111975  0.62638296  0.36648064  1
  C  C236  1  -0.00110164  0.95417489  0.37107666  1
  C  C237  1  0.50023714  0.28730323  0.37263228  1
  C  C238  1  0.52919363  0.61537519  0.38917229  1
  C  C239  1  0.48927569  0.95807813  0.36524371  1
  C  C240  1  0.24641918  0.20953457  0.62773866  1
  C  C241  1  0.23107371  0.54218099  0.63209640  1
  C  C242  1  0.25979982  0.87822214  0.63265427  1
  C  C243  1  0.75480334  0.21333373  0.63249097  1
  C  C244  1  0.71931863  0.54793805  0.60537945  1
  C  C245  1  0.75001479  0.88053676  0.62940421  1
  C  C246  1  0.25746978  0.12561517  0.13305883  1
  C  C247  1  0.24458443  0.45570935  0.12993694  1
  C  C248  1  0.25828757  0.78635524  0.13008793  1
  C  C249  1  0.78120449  0.12086929  0.10759988  1
  C  C250  1  0.74825768  0.45401041  0.12887003  1
  C  C251  1  0.76215944  0.78889742  0.13251145  1
  C  C252  1  0.23987220  0.21253831  0.86686033  1
  C  C253  1  0.24986794  0.54283710  0.87148067  1
  C  C254  1  0.24823452  0.87540668  0.87133455  1
  C  C255  1  0.74890138  0.21422830  0.87003295  1
  C  C256  1  0.75169251  0.54376886  0.86590425  1
  C  C257  1  0.75440707  0.87740886  0.87307048  1
  C  C258  1  0.25431826  0.12104507  0.37114351  1
  C  C259  1  0.25761084  0.45234746  0.36782479  1
  C  C260  1  0.25216013  0.78935497  0.37002188  1
  C  C261  1  0.75523942  0.12116970  0.36856176  1
  C  C262  1  0.75596258  0.45216766  0.36968504  1
  C  C263  1  0.74965049  0.79063209  0.36684605  1
  C  C264  1  0.50802181  0.58641040  0.48668935  1
  C  C265  1  0.59006983  0.59050687  0.47764319  1
  C  C266  1  0.28910253  0.90502413  0.53625350  1
  C  C267  1  0.32293785  0.23931504  0.54932822  1
  C  C268  1  0.20381084  0.43211311  0.03515554  1
  C  C269  1  0.47474800  0.25716578  0.03775834  1
  C  C270  1  0.47949560  0.92392187  0.02786680  1
  C  C271  1  0.93095678  0.73134214  0.95097823  1
  C  C272  1  0.55992115  0.92808619  0.03873033  1
  C  C273  1  0.01071090  0.73484311  0.96365544  1
  C  C274  1  0.90532276  0.08009823  0.97532016  1
  C  C275  1  0.19891553  0.57253930  0.96132370  1
  C  C276  1  0.31073150  0.42614519  0.45610914  1
  C  C277  1  0.22553396  0.08660083  0.46398876  1
  C  C278  1  0.76252130  0.24525279  0.53575183  1
  C  C279  1  0.28031719  0.57347460  0.96575880  1
  C  C280  1  0.51863526  0.06978428  0.95655172  1
  C  C281  1  0.84315563  0.09159476  0.02162457  1
  C  C282  1  0.51292653  0.07736295  0.53414494  1
  C  C283  1  0.31879621  0.90686692  0.95218098  1
  C  C284  1  0.02095284  0.92378821  0.46703508  1
  C  C285  1  0.54769352  0.26093192  0.46416915  1
  C  C286  1  0.01570672  0.92250001  0.04281105  1
  C  C287  1  0.51665503  0.40920494  0.53070384  1
  C  C288  1  0.02816449  0.74687876  0.53988605  1
  C  C289  1  0.28186639  0.57147998  0.54313869  1
  C  C290  1  0.20787606  0.90352520  0.54236085  1
  C  C291  1  0.19221018  0.24131853  0.95606082  1
  C  C292  1  0.97555931  0.41417707  0.96119394  1
  C  C293  1  0.70996901  0.57149767  0.95891700  1
  C  C294  1  0.76806765  0.24921161  0.96363954  1
  C  C295  1  0.93992765  0.92726095  0.45810852  1
  C  C296  1  0.43547692  0.73751981  0.96044553  1
  C  C297  1  0.43691502  0.06820377  0.95165426  1
  C  C298  1  0.73749254  0.41928231  0.46417360  1
  C  C299  1  0.20653029  0.76683279  0.46305188  1
  C  C300  1  0.28528356  0.43388256  0.03538891  1
  C  C301  1  0.81540620  0.76112869  0.44952227  1
  C  C302  1  0.80139156  0.75827826  0.04128796  1
  C  C303  1  0.79216692  0.57112822  0.95929292  1
  C  C304  1  0.05994718  0.26288879  0.04514619  1
  C  C305  1  0.68307389  0.23779063  0.54983087  1
  C  C306  1  0.65434746  0.57899064  0.52173906  1
  C  C307  1  0.76373557  0.41565394  0.03629565  1
  C  C308  1  0.28782443  0.76281781  0.46536229  1
  C  C309  1  0.46632596  0.25924976  0.46829098  1
  C  C310  1  0.76656091  0.90985312  0.96892053  1
  C  C311  1  0.97027252  0.59369485  0.45408436  1
  N  N312  1  0.94197843  0.07292570  0.54396681  1
  N  N313  1  0.27130417  0.24268242  0.96183632  1
  N  N314  1  0.05247864  0.41160661  0.95498816  1
  N  N315  1  0.50635413  0.74358808  0.53930038  1
  N  N316  1  0.44542825  0.92275755  0.45421248  1
  N  N317  1  0.68715419  0.42079149  0.04395724  1
  N  N318  1  0.54420473  0.59083671  0.04437491  1
  N  N319  1  0.43616637  0.07443521  0.54216630  1
  N  N320  1  0.73378867  0.58741403  0.51318851  1
  N  N321  1  0.95092010  0.74394106  0.54162767  1
  N  N322  1  0.81431661  0.42328520  0.45707864  1
  N  N323  1  0.51381198  0.74242959  0.96820498  1
  N  N324  1  0.02591924  0.40723592  0.53611912  1
  N  N325  1  0.01836554  0.07401507  0.53926411  1
  N  N326  1  0.24148395  0.91101314  0.96461562  1
  N  N327  1  -0.01491402  0.08808239  0.98276301  1
  N  N328  1  0.94814055  0.40804768  0.54241041  1
  N  N329  1  0.98353085  0.25878853  0.03551948  1
  N  N330  1  0.23379525  0.42398544  0.46498032  1
  N  N331  1  0.69119359  0.24458991  0.95737778  1
  N  N332  1  0.72362602  0.09388510  0.46370783  1
  N  N333  1  0.76330383  0.08300395  0.01547925  1
  N  N334  1  0.43033134  0.73943900  0.55193957  1
  N  N335  1  0.80143143  0.09431163  0.45717359  1
  N  N336  1  0.30966757  0.75660207  0.04392410  1
  N  N337  1  0.95701430  0.25842533  0.45651606  1
  N  N338  1  0.20251033  0.56655833  0.53643256  1
  N  N339  1  0.24493842  0.08835788  0.04155524  1
  N  N340  1  0.43899683  0.40426831  0.54004511  1
  N  N341  1  0.32146940  0.08923158  0.05242392  1
  N  N342  1  0.46477801  0.40477644  0.96595724  1
  N  N343  1  0.52169950  0.92353902  0.45736211  1
  N  N344  1  0.73732705  0.75660570  0.46068374  1
  N  N345  1  0.73700491  0.91174739  0.53570299  1
  N  N346  1  0.81351525  0.90968369  0.54600031  1
  N  N347  1  0.03923792  0.26138881  0.45887440  1
  N  N348  1  0.93778558  0.92746925  0.05286118  1
  N  N349  1  0.96802326  0.59164186  0.04168676  1
  N  N350  1  0.72222905  0.75758199  0.03968929  1
  N  N351  1  0.30469742  0.08781130  0.45736756  1
  N  N352  1  0.46786146  0.58875813  0.04115880  1
  N  N353  1  0.24685499  0.24416771  0.53357960  1
  N  N354  1  0.54363627  0.41597959  0.96211255  1
  N  N355  1  0.04919786  0.60071308  0.46186164  1
  N  N356  1  0.23239059  0.75457575  0.03575923  1
  N  N357  1  0.68898098  0.90675545  0.95521835  1
  N  N358  1  0.55415250  0.25790848  0.04293199  1
  N  N359  1  0.04441369  0.59271570  0.04335536  1
  N  N360  1  0.04967892  0.05495555  0.59437980  1
  N  N361  1  0.05375200  0.39198439  0.59232976  1
  N  N362  1  0.05980059  0.72874155  0.59444960  1
  N  N363  1  0.55132633  0.05867360  0.58587766  1
  N  N364  1  0.55203675  0.39257360  0.58431137  1
  N  N365  1  0.55059810  0.72420726  0.58748401  1
  N  N366  1  0.44474185  0.27687600  0.09215338  1
  N  N367  1  0.43776935  0.60738330  0.09681896  1
  N  N368  1  0.44147379  0.93893359  0.08356428  1
  N  N369  1  0.94858741  0.27798347  0.09059086  1
  N  N370  1  0.94072361  0.60909949  0.09844179  1
  N  N371  1  0.93250285  0.94774381  0.11158632  1
  N  N372  1  0.41908413  0.05306776  0.89169121  1
  N  N373  1  0.44093497  0.39288233  0.90730989  1
  N  N374  1  0.42488190  0.71908162  0.90148959  1
  N  N375  1  0.89651239  0.05929211  0.91596261  1
  N  N376  1  0.93851828  0.39268506  0.90999007  1
  N  N377  1  0.92230936  0.71587719  0.89133135  1
  N  N378  1  0.06232005  0.28905472  0.40609341  1
  N  N379  1  0.08002103  0.62381814  0.40764812  1
  N  N380  1  0.05650214  0.94094727  0.41242193  1
  N  N381  1  0.56798414  0.27773465  0.40635843  1
  N  N382  1  0.60076018  0.60879625  0.41613158  1
  N  N383  1  0.55025065  0.94540372  0.40244464  1
  N  N384  1  0.32259307  0.21936925  0.60814719  1
  N  N385  1  0.29929088  0.55755172  0.60226842  1
  N  N386  1  0.32038424  0.88915035  0.59377835  1
  N  N387  1  0.80615365  0.22984376  0.58771321  1
  N  N388  1  0.77334332  0.56401308  0.56346775  1
  N  N389  1  0.82151411  0.88893422  0.60356375  1
  N  N390  1  0.20489907  0.11300015  0.08904011  1
  N  N391  1  0.17958224  0.44576589  0.09517341  1
  N  N392  1  0.20082290  0.77237602  0.08959714  1
  N  N393  1  0.72560324  0.10545751  0.06689177  1
  N  N394  1  0.67758695  0.44531957  0.10280760  1
  N  N395  1  0.69947240  0.77698072  0.09689752  1
  N  N396  1  0.17169724  0.22344334  0.89780800  1
  N  N397  1  0.18138176  0.55347807  0.90156729  1
  N  N398  1  0.19700363  0.88887518  0.91597061  1
  N  N399  1  0.67918953  0.22262642  0.89776867  1
  N  N400  1  0.68638959  0.55472477  0.90045576  1
  N  N401  1  0.68219392  0.88686798  0.89634187  1
  N  N402  1  0.32220090  0.11092000  0.40094732  1
  N  N403  1  0.32800315  0.44311497  0.39690725  1
  N  N404  1  0.31522758  0.77694110  0.40604008  1
  N  N405  1  0.82213169  0.11009828  0.39947370  1
  N  N406  1  0.82598654  0.44376149  0.39695905  1
  N  N407  1  0.82305999  0.78036206  0.39074635  1
  N  N408  1  0.43811511  0.27566116  0.40944378  1
  N  N409  1  0.47263250  0.60201243  0.43143160  1
  N  N410  1  0.42391654  0.94406320  0.39717862  1
  N  N411  1  0.93720184  0.27054274  0.39687421  1
  N  N412  1  0.95348252  0.60826321  0.39510771  1
  N  N413  1  0.92769279  0.94577351  0.39858069  1
  N  N414  1  0.02383475  0.06570293  0.93209596  1
  N  N415  1  0.06527453  0.38738425  0.89646460  1
  N  N416  1  0.05043710  0.72043056  0.90869968  1
  N  N417  1  0.54876785  0.05510302  0.89943894  1
  N  N418  1  0.56858974  0.38995765  0.90921921  1
  N  N419  1  0.55244806  0.72292415  0.91567087  1
  N  N420  1  0.07549516  0.28239618  0.10357989  1
  N  N421  1  0.06710001  0.61087111  0.10127164  1
  N  N422  1  0.05782035  0.94004668  0.09388442  1
  N  N423  1  0.57343858  0.28051214  0.09922415  1
  N  N424  1  0.56400540  0.61059615  0.10239779  1
  N  N425  1  0.56999189  0.94479411  0.09821279  1
  N  N426  1  0.42497876  0.05291475  0.60197634  1
  N  N427  1  0.42532192  0.38375164  0.59907244  1
  N  N428  1  0.42753914  0.72167493  0.61091538  1
  N  N429  1  0.92361432  0.05386398  0.60258583  1
  N  N430  1  0.92675233  0.39118883  0.59958804  1
  N  N431  1  0.93209616  0.72368048  0.60077574  1
  N  N432  1  0.19378727  0.10627104  0.41011430  1
  N  N433  1  0.20076059  0.44039953  0.40853785  1
  N  N434  1  0.18535769  0.78228721  0.40549787  1
  N  N435  1  0.69544512  0.11042999  0.40809049  1
  N  N436  1  0.69953275  0.43685106  0.41182975  1
  N  N437  1  0.69664723  0.77856400  0.41085452  1
  N  N438  1  0.29914010  0.22452522  0.90592442  1
  N  N439  1  0.31093826  0.55583334  0.91144148  1
  N  N440  1  0.32281732  0.88634631  0.89378014  1
  N  N441  1  0.80567026  0.23083023  0.91136384  1
  N  N442  1  0.81651935  0.55416605  0.90115649  1
  N  N443  1  0.80784993  0.89242854  0.91775727  1
  N  N444  1  0.32887959  0.11129062  0.10977575  1
  N  N445  1  0.30960660  0.44748483  0.09283865  1
  N  N446  1  0.32679593  0.77734745  0.10065746  1
  N  N447  1  0.85343771  0.11318613  0.08053375  1
  N  N448  1  0.80332876  0.43566856  0.08701058  1
  N  N449  1  0.82717973  0.77734824  0.09794292  1
  N  N450  1  0.19860010  0.22281290  0.58084281  1
  N  N451  1  0.17166126  0.54524425  0.59148474  1
  N  N452  1  0.19061406  0.88755932  0.60056394  1
  N  N453  1  0.68027334  0.21835829  0.60985971  1
  N  N454  1  0.64625467  0.55721065  0.58062775  1
  N  N455  1  0.69659535  0.89514025  0.58656546  1
  Cl  Cl456  1  0.23404128  0.05588425  0.61840044  1
  Cl  Cl457  1  0.23854530  0.38227570  0.61828234  1
  Cl  Cl458  1  0.24284386  0.71848313  0.61965868  1
  Cl  Cl459  1  0.73914287  0.05284398  0.60994678  1
  Cl  Cl460  1  0.73925269  0.39814884  0.61326774  1
  Cl  Cl461  1  0.73471421  0.72829279  0.60009417  1
  Cl  Cl462  1  0.26057565  0.27827280  0.12630843  1
  Cl  Cl463  1  0.25220613  0.61043303  0.12537295  1
  Cl  Cl464  1  0.24489895  0.93811782  0.10250745  1
  Cl  Cl465  1  0.76031516  0.27347185  0.10977911  1
  Cl  Cl466  1  0.75425816  0.60867783  0.11065923  1
  Cl  Cl467  1  0.75044556  0.95606281  0.12212964  1
  Cl  Cl468  1  0.20658851  0.06293892  0.90635152  1
  Cl  Cl469  1  0.25727577  0.38893602  0.88410601  1
  Cl  Cl470  1  0.24014910  0.72046111  0.88432244  1
  Cl  Cl471  1  0.72554873  0.05826719  0.88072313  1
  Cl  Cl472  1  0.75138357  0.39245484  0.88274493  1
  Cl  Cl473  1  0.73463079  0.72877617  0.87468512  1
  Cl  Cl474  1  0.24422807  0.27218929  0.39579644  1
  Cl  Cl475  1  0.26685164  0.60288628  0.39766396  1
  Cl  Cl476  1  0.24084441  0.94244918  0.37812645  1
  Cl  Cl477  1  0.75377997  0.27854592  0.37990698  1
  Cl  Cl478  1  0.77578883  0.60647669  0.37900092  1
  Cl  Cl479  1  0.73528073  0.94846075  0.39425452  1
  Cl  Cl480  1  0.00556761  0.23212976  0.59774262  1
  Cl  Cl481  1  -0.01751322  0.56501076  0.59679568  1
  Cl  Cl482  1  0.00547304  0.88836707  0.63115173  1
  Cl  Cl483  1  0.49914257  0.21008726  0.63221767  1
  Cl  Cl484  1  0.47759769  0.54002285  0.62571976  1
  Cl  Cl485  1  0.51396265  0.88691901  0.60749985  1
  Cl  Cl486  1  0.02950613  0.10881167  0.11616930  1
  Cl  Cl487  1  -0.01129042  0.43840989  0.11709628  1
  Cl  Cl488  1  0.01532607  0.77935592  0.10851479  1
  Cl  Cl489  1  0.54049124  0.10783171  0.10826767  1
  Cl  Cl490  1  0.49291519  0.44035406  0.11616228  1
  Cl  Cl491  1  0.51243237  0.76988027  0.11675600  1
  Cl  Cl492  1  -0.01278837  0.21985116  0.87026667  1
  Cl  Cl493  1  -0.00286818  0.55011337  0.86608996  1
  Cl  Cl494  1  0.00708055  0.89426907  0.90025872  1
  Cl  Cl495  1  0.48737768  0.22691756  0.89450885  1
  Cl  Cl496  1  0.49674352  0.55000755  0.88765226  1
  Cl  Cl497  1  0.50219774  0.87877004  0.87211839  1
  Cl  Cl498  1  0.00562321  0.12003382  0.38714894  1
  Cl  Cl499  1  0.01294563  0.44796588  0.38327291  1
  Cl  Cl500  1  0.00562502  0.77885259  0.37410941  1
  Cl  Cl501  1  0.50893368  0.10980997  0.37697348  1
  Cl  Cl502  1  0.51374366  0.44179068  0.38512755  1
  Cl  Cl503  1  0.51328487  0.76508418  0.40036097  1
  Cl  Cl504  1  0.35794992  0.14319437  0.75571841  1
  Cl  Cl505  1  0.35384377  0.48394679  0.75075556  1
  Cl  Cl506  1  0.36100118  0.81213636  0.75379765  1
  Cl  Cl507  1  0.85912313  0.14694638  0.74871822  1
  Cl  Cl508  1  0.85193229  0.48543042  0.73546400  1
  Cl  Cl509  1  0.86018852  0.81400985  0.74510855  1
  Cl  Cl510  1  0.14516470  0.18251138  0.25283923  1
  Cl  Cl511  1  0.15003768  0.51863695  0.25280060  1
  Cl  Cl512  1  0.14970951  0.84635727  0.24610232  1
  Cl  Cl513  1  0.65308513  0.17867933  0.24935146  1
  Cl  Cl514  1  0.64205763  0.51903833  0.24540784  1
  Cl  Cl515  1  0.64967443  0.84848297  0.23983300  1
  Cl  Cl516  1  0.14019293  0.15079114  0.74717193  1
  Cl  Cl517  1  0.13126081  0.48139691  0.74918271  1
  Cl  Cl518  1  0.13950336  0.82179467  0.74951430  1
  Cl  Cl519  1  0.63748599  0.15387716  0.75595302  1
  Cl  Cl520  1  0.63596505  0.48643981  0.74442756  1
  Cl  Cl521  1  0.64091434  0.82362743  0.74593119  1
  Cl  Cl522  1  0.36811034  0.18438661  0.25498925  1
  Cl  Cl523  1  0.36985450  0.51749932  0.25085992  1
  Cl  Cl524  1  0.37086897  0.85140426  0.24504694  1
  Cl  Cl525  1  0.87015792  0.18408520  0.24001730  1
  Cl  Cl526  1  0.86448699  0.51628344  0.25392023  1
  Cl  Cl527  1  0.86914806  0.85709098  0.25791855  1
  Cl  Cl528  1  0.10783654  0.31559902  0.75809143  1
  Cl  Cl529  1  0.10490204  0.64863341  0.74660465  1
  Cl  Cl530  1  0.09446356  0.99074954  0.76128813  1
  Cl  Cl531  1  0.60211818  0.31759211  0.75289871  1
  Cl  Cl532  1  0.60372903  0.64993009  0.75047791  1
  Cl  Cl533  1  0.60408492  0.98517819  0.75009874  1
  Cl  Cl534  1  0.38687615  0.02417383  0.23576604  1
  Cl  Cl535  1  0.39316464  0.35074535  0.25750038  1
  Cl  Cl536  1  0.40393443  0.68397564  0.26511640  1
  Cl  Cl537  1  0.88894203  0.02015693  0.25267300  1
  Cl  Cl538  1  0.89152197  0.35228225  0.25948507  1
  Cl  Cl539  1  0.88981288  0.68837294  0.25189574  1
  Cl  Cl540  1  0.38326181  0.31492822  0.74306786  1
  Cl  Cl541  1  0.38216917  0.64982855  0.74808540  1
  Cl  Cl542  1  0.38020557  0.97999650  0.74475899  1
  Cl  Cl543  1  0.88710173  0.31558340  0.74001608  1
  Cl  Cl544  1  0.87883074  0.65052899  0.74802949  1
  Cl  Cl545  1  0.87571488  0.97958376  0.76532823  1
  Cl  Cl546  1  0.11225545  0.01338068  0.25560317  1
  Cl  Cl547  1  0.11454612  0.34884884  0.24956775  1
  Cl  Cl548  1  0.11554812  0.68391704  0.24561311  1
  Cl  Cl549  1  0.60519837  0.00904365  0.24872890  1
  Cl  Cl550  1  0.61432092  0.34752730  0.24411576  1
  Cl  Cl551  1  0.62246469  0.68448119  0.26725521  1
