# generated using pymatgen
data_H8PbC4(N3Cl2)2
_symmetry_space_group_name_H-M   'P 1'
_cell_length_a   16.62416969
_cell_length_b   22.51474589
_cell_length_c   21.59364432
_cell_angle_alpha   89.99942055
_cell_angle_beta   89.95533389
_cell_angle_gamma   89.99997596
_symmetry_Int_Tables_number   1
_chemical_formula_structural   H8PbC4(N3Cl2)2
_chemical_formula_sum   'H192 Pb24 C96 N144 Cl96'
_cell_volume   8082.26013612
_cell_formula_units_Z   24
loop_
 _symmetry_equiv_pos_site_id
 _symmetry_equiv_pos_as_xyz
  1  'x, y, z'
loop_
 _atom_site_type_symbol
 _atom_site_label
 _atom_site_symmetry_multiplicity
 _atom_site_fract_x
 _atom_site_fract_y
 _atom_site_fract_z
 _atom_site_occupancy
  H  H0  1  -0.00188861  0.03084444  0.67762747  1
  H  H1  1  0.00461075  0.35998025  0.68175888  1
  H  H2  1  -0.00053267  0.69488245  0.68020267  1
  H  H3  1  0.50655178  0.03076367  0.68068523  1
  H  H4  1  0.48924791  0.36859211  0.67000877  1
  H  H5  1  0.48904102  0.69802521  0.67593772  1
  H  H6  1  -0.00098527  0.30605023  0.18081415  1
  H  H7  1  0.00375785  0.63628967  0.17603710  1
  H  H8  1  -0.01450258  0.96791528  0.17748479  1
  H  H9  1  0.49375558  0.30180789  0.17896237  1
  H  H10  1  0.49605537  0.63634039  0.17687075  1
  H  H11  1  0.52154200  0.96968523  0.17979869  1
  H  H12  1  -0.00018362  0.03157654  0.82332724  1
  H  H13  1  -0.00425942  0.36271451  0.82131663  1
  H  H14  1  0.00762416  0.69356142  0.82402811  1
  H  H15  1  0.50584904  0.02759444  0.82202133  1
  H  H16  1  0.49048783  0.36196414  0.81956801  1
  H  H17  1  0.49927439  0.69502863  0.82205257  1
  H  H18  1  0.00115151  0.30205530  0.32108263  1
  H  H19  1  -0.01469307  0.63732703  0.32746744  1
  H  H20  1  0.00272758  0.96832750  0.32264240  1
  H  H21  1  0.49903135  0.30677872  0.32134765  1
  H  H22  1  0.50839032  0.63636638  0.31971778  1
  H  H23  1  0.50451802  0.96873797  0.32177745  1
  H  H24  1  0.24367527  0.19759193  0.67875565  1
  H  H25  1  0.26074092  0.53105022  0.67763148  1
  H  H26  1  0.25699799  0.86055812  0.67761062  1
  H  H27  1  0.74863742  0.19745206  0.67809934  1
  H  H28  1  0.74055824  0.52918045  0.67890876  1
  H  H29  1  0.74296587  0.86189312  0.67451210  1
  H  H30  1  0.25527059  0.13880980  0.18124673  1
  H  H31  1  0.25087753  0.47229326  0.18120190  1
  H  H32  1  0.24362302  0.80372268  0.17342528  1
  H  H33  1  0.74306521  0.13562217  0.17604986  1
  H  H34  1  0.74910349  0.47350525  0.17450044  1
  H  H35  1  0.74689879  0.80210247  0.17485934  1
  H  H36  1  0.24517919  0.19619061  0.81801938  1
  H  H37  1  0.24907923  0.52899917  0.82769317  1
  H  H38  1  0.25629180  0.86575829  0.82711417  1
  H  H39  1  0.76330463  0.19754231  0.82152032  1
  H  H40  1  0.76093716  0.53016764  0.82173671  1
  H  H41  1  0.74541162  0.86224904  0.81671325  1
  H  H42  1  0.26612364  0.13636105  0.32630185  1
  H  H43  1  0.23492681  0.47221888  0.32351749  1
  H  H44  1  0.25162071  0.80638100  0.32365975  1
  H  H45  1  0.73119015  0.13440509  0.31889804  1
  H  H46  1  0.76123337  0.46549804  0.32329461  1
  H  H47  1  0.75191288  0.80425796  0.32287553  1
  H  H48  1  0.12997518  0.05017386  0.61459389  1
  H  H49  1  0.12608254  0.38927186  0.60871070  1
  H  H50  1  0.13160753  0.71941369  0.61622200  1
  H  H51  1  0.62813784  0.05634355  0.60931889  1
  H  H52  1  0.62915889  0.38279735  0.61916131  1
  H  H53  1  0.62784611  0.71839851  0.62055802  1
  H  H54  1  0.38084335  0.27577030  0.10086842  1
  H  H55  1  0.37503086  0.61208967  0.10364188  1
  H  H56  1  0.37990345  0.95219568  0.12594710  1
  H  H57  1  0.88214781  0.27970668  0.10290461  1
  H  H58  1  0.87505692  0.61171104  0.10990143  1
  H  H59  1  0.88719822  0.94040807  0.09127016  1
  H  H60  1  0.36979094  0.05054890  0.87857128  1
  H  H61  1  0.37869062  0.39105416  0.89837128  1
  H  H62  1  0.36499902  0.71404272  0.88298902  1
  H  H63  1  0.86627603  0.05562925  0.88472586  1
  H  H64  1  0.87836659  0.38598951  0.89563723  1
  H  H65  1  0.86476939  0.71299886  0.87297491  1
  H  H66  1  0.11183712  0.27500961  0.40229311  1
  H  H67  1  0.12289048  0.61668399  0.38342809  1
  H  H68  1  0.11531686  0.94225992  0.40147687  1
  H  H69  1  0.61758924  0.27925478  0.39504242  1
  H  H70  1  0.61664688  0.60952210  0.40117856  1
  H  H71  1  0.61386878  0.93932195  0.40410653  1
  H  H72  1  0.37828946  0.21996142  0.61767017  1
  H  H73  1  0.37677570  0.55690275  0.60088067  1
  H  H74  1  0.37938955  0.88791159  0.60410470  1
  H  H75  1  0.88404456  0.21769696  0.61672803  1
  H  H76  1  0.87686537  0.55204533  0.62001953  1
  H  H77  1  0.88224617  0.88135352  0.61963025  1
  H  H78  1  0.13533793  0.11038091  0.10890518  1
  H  H79  1  0.12155680  0.44977599  0.11548469  1
  H  H80  1  0.14105822  0.76853966  0.09012044  1
  H  H81  1  0.64132000  0.10892194  0.09160661  1
  H  H82  1  0.62315836  0.44696654  0.10627094  1
  H  H83  1  0.63368301  0.77348846  0.09793060  1
  H  H84  1  0.12223075  0.22000917  0.88839212  1
  H  H85  1  0.12492110  0.55380280  0.89471150  1
  H  H86  1  0.12184086  0.88817541  0.88732660  1
  H  H87  1  0.62577049  0.21734260  0.87970767  1
  H  H88  1  0.62605351  0.55258792  0.88224340  1
  H  H89  1  0.62130612  0.88439165  0.88651960  1
  H  H90  1  0.36338012  0.10396101  0.41414836  1
  H  H91  1  0.37529981  0.44888213  0.37497391  1
  H  H92  1  0.36834153  0.77852348  0.40009993  1
  H  H93  1  0.87384754  0.12005616  0.36775682  1
  H  H94  1  0.86499004  0.44220852  0.40812412  1
  H  H95  1  0.87042349  0.77740064  0.39619338  1
  H  H96  1  0.36831869  0.28066703  0.38553769  1
  H  H97  1  0.37018711  0.61991131  0.37418080  1
  H  H98  1  0.36759065  0.94863173  0.38051685  1
  H  H99  1  0.86505571  0.28107634  0.37887634  1
  H  H100  1  0.87667576  0.60677494  0.40823346  1
  H  H101  1  0.86821198  0.94829510  0.38410221  1
  H  H102  1  0.11444976  0.05711020  0.90078022  1
  H  H103  1  0.12731708  0.38661820  0.88352813  1
  H  H104  1  0.10852177  0.72490233  0.90987112  1
  H  H105  1  0.61724308  0.05972124  0.90113051  1
  H  H106  1  0.62606359  0.38248610  0.88034886  1
  H  H107  1  0.61225537  0.72245848  0.90148711  1
  H  H108  1  0.13042527  0.28125988  0.11488547  1
  H  H109  1  0.12418767  0.60941628  0.10306676  1
  H  H110  1  0.13011357  0.95134916  0.13114267  1
  H  H111  1  0.62806543  0.28417446  0.12089724  1
  H  H112  1  0.62417249  0.61573349  0.11238224  1
  H  H113  1  0.62483321  0.93912617  0.09577775  1
  H  H114  1  0.38048891  0.04967745  0.61074661  1
  H  H115  1  0.38507086  0.39723300  0.58595389  1
  H  H116  1  0.38230231  0.72730324  0.59377633  1
  H  H117  1  0.88164200  0.05478058  0.60273301  1
  H  H118  1  0.87690601  0.38536869  0.61691229  1
  H  H119  1  0.88371955  0.72255029  0.60206471  1
  H  H120  1  0.12171552  0.12086499  0.37465515  1
  H  H121  1  0.13144119  0.44298965  0.41029536  1
  H  H122  1  0.12010268  0.78216330  0.38825675  1
  H  H123  1  0.63032514  0.10673025  0.40412110  1
  H  H124  1  0.62025170  0.44927639  0.37353785  1
  H  H125  1  0.62084433  0.77972819  0.38743764  1
  H  H126  1  0.37175052  0.21827300  0.88509853  1
  H  H127  1  0.37363011  0.55445403  0.89416620  1
  H  H128  1  0.36888714  0.89043664  0.90713418  1
  H  H129  1  0.87274042  0.22540794  0.90285302  1
  H  H130  1  0.87389619  0.55630889  0.90067676  1
  H  H131  1  0.87100030  0.88464796  0.88442030  1
  H  H132  1  0.38411227  0.11479854  0.11343569  1
  H  H133  1  0.37021895  0.44787413  0.10460555  1
  H  H134  1  0.38537182  0.78474717  0.12110897  1
  H  H135  1  0.88519116  0.12094188  0.12696291  1
  H  H136  1  0.87206489  0.44649300  0.10582712  1
  H  H137  1  0.88058758  0.77691985  0.11500558  1
  H  H138  1  0.13076276  0.22383235  0.60023723  1
  H  H139  1  0.12848038  0.55348983  0.61428190  1
  H  H140  1  0.13111065  0.88884240  0.60860671  1
  H  H141  1  0.63742646  0.22346054  0.59654936  1
  H  H142  1  0.63065960  0.55672678  0.59640045  1
  H  H143  1  0.63693332  0.89368844  0.59224603  1
  H  H144  1  0.96708907  0.91401532  -0.01183682  1
  H  H145  1  0.66861359  0.41479433  0.00267292  1
  H  H146  1  0.91825108  0.41652838  0.50543929  1
  H  H147  1  0.54955297  0.08467602  1.00293301  1
  H  H148  1  0.54012553  0.91574118  0.50512460  1
  H  H149  1  0.56256890  0.25235357  0.50404255  1
  H  H150  1  0.58670704  0.58565007  -0.00071234  1
  H  H151  1  0.22123621  0.74814079  -0.00952999  1
  H  H152  1  0.39543436  0.08615991  0.98947246  1
  H  H153  1  0.66784932  0.91128608  0.99850659  1
  H  H154  1  0.13029846  0.08319356  0.48270360  1
  H  H155  1  0.71326854  0.91208432  0.49120216  1
  H  H156  1  0.36805721  0.74586675  0.01415704  1
  H  H157  1  0.71774112  0.08218955  -0.01285199  1
  H  H158  1  0.05332468  0.08872412  1.00712119  1
  H  H159  1  0.89090660  0.08564426  0.99644860  1
  H  H160  1  0.09664976  0.58500995  0.49163858  1
  H  H161  1  0.15923012  0.42087677  0.00477681  1
  H  H162  1  0.30321421  0.92678433  1.00495305  1
  H  H163  1  0.85060850  0.74775236  0.00538750  1
  H  H164  1  0.56601515  0.10635420  0.51774945  1
  H  H165  1  0.85996613  0.91856073  0.51380025  1
  H  H166  1  0.60271351  0.25187673  1.00743346  1
  H  H167  1  0.07040828  0.40552239  0.50209248  1
  H  H168  1  0.44430839  0.42043491  1.00308601  1
  H  H169  1  0.54826964  0.57959600  0.50625564  1
  H  H170  1  0.81535035  0.74500102  0.50417588  1
  H  H171  1  0.82774926  0.91224289  0.99676255  1
  H  H172  1  0.27709760  0.08710730  0.51140747  1
  H  H173  1  0.16046277  0.75372341  0.49393827  1
  H  H174  1  0.93148349  0.41753030  1.00393687  1
  H  H175  1  0.16720307  0.24963399  0.99776194  1
  H  H176  1  0.38752384  0.58809514  0.48737769  1
  H  H177  1  0.54646269  0.91019095  -0.00660958  1
  H  H178  1  0.70741747  0.08015956  0.50808568  1
  H  H179  1  0.40564482  0.25525719  0.49249678  1
  H  H180  1  0.02865600  0.74820024  1.00912616  1
  H  H181  1  0.93364689  0.08315302  0.49380134  1
  H  H182  1  0.62286219  0.41753720  0.49672306  1
  H  H183  1  0.21390553  0.41949589  0.50841303  1
  H  H184  1  0.65841242  0.75153949  0.49354258  1
  H  H185  1  0.79046293  0.41691419  0.51370987  1
  H  H186  1  0.85460113  0.24526713  0.50827518  1
  H  H187  1  0.14817197  0.91645305  0.99762932  1
  H  H188  1  0.43605226  0.05033911  0.50319423  1
  H  H189  1  0.70435639  0.58203214  0.49559706  1
  H  H190  1  0.33145093  0.24783380  0.99621563  1
  H  H191  1  0.19543392  0.25293884  0.49452400  1
  Pb  Pb192  1  0.25052174  0.04734313  0.74791525  1
  Pb  Pb193  1  0.25143213  0.38126170  0.74529612  1
  Pb  Pb194  1  0.24904477  0.71348092  0.75219958  1
  Pb  Pb195  1  0.74890835  0.04662966  0.74825055  1
  Pb  Pb196  1  0.75227157  0.38020597  0.75542375  1
  Pb  Pb197  1  0.74873365  0.71432703  0.75007903  1
  Pb  Pb198  1  0.25071057  0.28662415  0.25026790  1
  Pb  Pb199  1  0.25062697  0.61948969  0.24652609  1
  Pb  Pb200  1  0.25054067  0.95286893  0.24922621  1
  Pb  Pb201  1  0.75056949  0.28566950  0.24836771  1
  Pb  Pb202  1  0.75045166  0.61960771  0.25862982  1
  Pb  Pb203  1  0.75498277  0.94874833  0.24424541  1
  Pb  Pb204  1  0.00118378  0.21309188  0.75214347  1
  Pb  Pb205  1  0.00043265  0.54684614  0.75045033  1
  Pb  Pb206  1  0.00162154  0.88077662  0.74886953  1
  Pb  Pb207  1  0.50202761  0.21513854  0.74208111  1
  Pb  Pb208  1  0.50078149  0.54738374  0.74613391  1
  Pb  Pb209  1  0.49875017  0.87912031  0.74777798  1
  Pb  Pb210  1  0.00376854  0.11963472  0.24490066  1
  Pb  Pb211  1  -0.00037193  0.45307995  0.26054933  1
  Pb  Pb212  1  0.00607805  0.78356319  0.24504796  1
  Pb  Pb213  1  0.50307692  0.11657338  0.25469232  1
  Pb  Pb214  1  0.50050007  0.45378638  0.24106021  1
  Pb  Pb215  1  0.50134550  0.78631366  0.25258702  1
  C  C216  1  0.00288580  0.04489589  0.62974752  1
  C  C217  1  0.00324051  0.37652141  0.63444103  1
  C  C218  1  0.00488361  0.71122866  0.63306197  1
  C  C219  1  0.50489077  0.04523814  0.63271487  1
  C  C220  1  0.50160687  0.38279691  0.62299716  1
  C  C221  1  0.50019377  0.71412524  0.62960557  1
  C  C222  1  0.00403236  0.28986276  0.13356967  1
  C  C223  1  0.00077042  0.61925870  0.12931421  1
  C  C224  1  0.00117730  0.95316352  0.13103842  1
  C  C225  1  0.50172751  0.28718770  0.13156652  1
  C  C226  1  0.49904031  0.62110164  0.12939975  1
  C  C227  1  0.50849175  0.95464764  0.13307772  1
  C  C228  1  -0.00727433  0.04751687  0.87066851  1
  C  C229  1  0.00016793  0.37812955  0.86868403  1
  C  C230  1  -0.00629699  0.70916572  0.87039736  1
  C  C231  1  0.49791241  0.04470227  0.86880003  1
  C  C232  1  0.49872854  0.37734513  0.86681597  1
  C  C233  1  0.49211510  0.71009883  0.86929443  1
  C  C234  1  -0.00720581  0.28678727  0.36811264  1
  C  C235  1  -0.00455554  0.62082296  0.37396627  1
  C  C236  1  -0.00506254  0.95372866  0.36989477  1
  C  C237  1  0.49437809  0.28958206  0.36832166  1
  C  C238  1  0.49797256  0.62186420  0.36703217  1
  C  C239  1  0.49561189  0.95346858  0.36890635  1
  C  C240  1  0.25132445  0.21432231  0.63194760  1
  C  C241  1  0.25500505  0.54706297  0.63070697  1
  C  C242  1  0.25605508  0.87808903  0.63084321  1
  C  C243  1  0.75712783  0.21255961  0.63079689  1
  C  C244  1  0.74910689  0.54519353  0.63196011  1
  C  C245  1  0.75437353  0.87835243  0.62796130  1
  C  C246  1  0.25862607  0.12216145  0.13444975  1
  C  C247  1  0.24766961  0.45675023  0.13371144  1
  C  C248  1  0.25687545  0.78656683  0.12742179  1
  C  C249  1  0.75691810  0.12166348  0.12905637  1
  C  C250  1  0.74763934  0.45608797  0.12777852  1
  C  C251  1  0.75445822  0.78534203  0.12821040  1
  C  C252  1  0.24647852  0.21168550  0.86567972  1
  C  C253  1  0.24920916  0.54601006  0.87463939  1
  C  C254  1  0.24884531  0.88167628  0.87442229  1
  C  C255  1  0.75360623  0.21311454  0.86828589  1
  C  C256  1  0.75331304  0.54600485  0.86861560  1
  C  C257  1  0.74592816  0.87728256  0.86453425  1
  C  C258  1  0.25011839  0.12075856  0.37246187  1
  C  C259  1  0.24679524  0.45581431  0.36983548  1
  C  C260  1  0.24635688  0.78979561  0.37059253  1
  C  C261  1  0.74516862  0.12057527  0.36574295  1
  C  C262  1  0.74867857  0.45224312  0.37068791  1
  C  C263  1  0.74722079  0.78698734  0.36982997  1
  C  C264  1  0.48271969  0.74568628  0.53442528  1
  C  C265  1  0.44170454  0.73381335  0.95931642  1
  C  C266  1  0.77378537  0.24389253  0.96322554  1
  C  C267  1  0.43701371  0.59679667  0.45440295  1
  C  C268  1  0.72640614  0.75257958  0.03356410  1
  C  C269  1  0.56528721  0.40727525  0.53682229  1
  C  C270  1  0.44101470  0.07592418  0.95477717  1
  C  C271  1  0.74546958  0.09425063  0.03116895  1
  C  C272  1  0.07257532  0.92910840  0.04792321  1
  C  C273  1  0.52075683  0.92446607  0.03734112  1
  C  C274  1  0.68298853  0.42935239  0.45646287  1
  C  C275  1  0.52751346  0.26161617  0.46261761  1
  C  C276  1  0.96924066  0.40627884  0.96422817  1
  C  C277  1  0.78807174  0.42341238  0.03557937  1
  C  C278  1  0.05071247  0.40588199  0.95859191  1
  C  C279  1  0.51819808  0.59285989  0.46371408  1
  C  C280  1  0.78048039  0.75676881  0.46337581  1
  C  C281  1  0.99322397  0.92542885  0.03277786  1
  C  C282  1  0.55601244  0.26084759  0.04181528  1
  C  C283  1  0.20381966  0.43083751  0.04237480  1
  C  C284  1  0.97256056  0.58750682  0.46944313  1
  C  C285  1  0.28991078  0.57685666  0.96524269  1
  C  C286  1  0.76318990  0.42711419  0.46915240  1
  C  C287  1  0.28323408  0.57701703  0.53628866  1
  C  C288  1  0.05426073  0.06817352  0.53849082  1
  C  C289  1  0.22535034  0.09092287  0.04171944  1
  C  C290  1  0.48521274  0.41202202  0.52680912  1
  C  C291  1  0.81378107  0.09775539  0.44986013  1
  C  C292  1  0.22779289  0.24271457  0.53703457  1
  C  C293  1  0.73431740  0.09283146  0.46402291  1
  C  C294  1  0.54430582  0.59472512  0.03650291  1
  C  C295  1  0.47650911  0.40704615  0.96146619  1
  C  C296  1  0.97302873  0.07137961  0.53317699  1
  C  C297  1  0.82559645  0.09863282  0.04402994  1
  C  C298  1  0.95759645  0.40579418  0.54395924  1
  C  C299  1  0.20894054  0.57681391  0.96527176  1
  C  C300  1  0.47498370  0.25824264  0.03623522  1
  C  C301  1  0.46271036  0.59331615  0.03538114  1
  C  C302  1  0.93930961  0.25977082  0.45624334  1
  C  C303  1  0.70618187  0.90196587  0.95885991  1
  C  C304  1  0.78819405  0.90247237  0.95801602  1
  C  C305  1  0.01964092  0.92569024  0.46531854  1
  C  C306  1  0.77755314  0.57756410  0.96257348  1
  C  C307  1  0.02040977  0.07668302  0.96538389  1
  C  C308  1  0.20751294  0.23851749  0.95971495  1
  C  C309  1  0.03306153  0.58579893  0.03778640  1
  C  C310  1  0.28966467  0.23784316  0.95877043  1
  C  C311  1  0.92641414  0.73613091  0.95415982  1
  N  N312  1  0.18203563  0.09807328  0.45454821  1
  N  N313  1  0.31939125  0.76143112  0.04374926  1
  N  N314  1  0.52002517  0.07924057  0.96143194  1
  N  N315  1  0.43629996  0.92807308  0.45641235  1
  N  N316  1  0.81387357  0.90126540  0.54212799  1
  N  N317  1  0.54370437  0.06906023  0.53918223  1
  N  N318  1  0.00394694  0.74066697  0.96530325  1
  N  N319  1  0.73068200  0.23909414  0.53462501  1
  N  N320  1  0.70040016  0.57626122  0.95799554  1
  N  N321  1  0.05330934  0.74128735  0.54345359  1
  N  N322  1  0.31221594  0.42604941  0.45289747  1
  N  N323  1  0.55952067  0.74223347  0.54198778  1
  N  N324  1  0.27338528  0.90415033  0.97028163  1
  N  N325  1  0.23552697  0.42455038  0.46356382  1
  N  N326  1  0.28302921  0.42967921  0.03843916  1
  N  N327  1  0.29193511  0.90997044  0.53833281  1
  N  N328  1  0.21570555  0.91065998  0.53982162  1
  N  N329  1  0.20147638  0.76065733  0.45888780  1
  N  N330  1  0.03728746  0.40611946  0.54208311  1
  N  N331  1  0.51371556  0.92471934  0.46270579  1
  N  N332  1  0.69695720  0.24061919  0.95687101  1
  N  N333  1  0.44282253  0.92942376  0.04734883  1
  N  N334  1  0.94242713  0.92932015  0.46109576  1
  N  N335  1  0.30683247  0.24231355  0.54282779  1
  N  N336  1  0.24292377  0.74832844  0.03598382  1
  N  N337  1  0.05069304  0.59184156  0.46036520  1
  N  N338  1  0.97695064  0.74212596  0.53866708  1
  N  N339  1  0.30282296  0.09352531  0.04187586  1
  N  N340  1  0.05075812  0.26188062  0.04255883  1
  N  N341  1  0.46110845  0.07075505  0.54115330  1
  N  N342  1  0.55536440  0.40409599  0.95576183  1
  N  N343  1  0.70894214  0.42413782  0.03745027  1
  N  N344  1  0.25812649  0.08477208  0.46553376  1
  N  N345  1  0.70097859  0.75767961  0.45900748  1
  N  N346  1  0.73020167  0.57540469  0.53859237  1
  N  N347  1  0.94111045  0.07532628  0.95950330  1
  N  N348  1  0.27944583  0.75953377  0.46444312  1
  N  N349  1  0.20542056  0.57601913  0.53951559  1
  N  N350  1  0.97479920  0.26135315  0.03859508  1
  N  N351  1  0.80816131  0.23664544  0.54246766  1
  N  N352  1  0.01627644  0.25769231  0.46528343  1
  N  N353  1  0.51888514  0.73789561  0.96607245  1
  N  N354  1  0.80767532  0.57355233  0.54535661  1
  N  N355  1  0.80462360  0.75583766  0.03995352  1
  N  N356  1  0.95580211  0.58655989  0.03849585  1
  N  N357  1  0.73675453  0.91423874  0.53574073  1
  N  N358  1  0.44801884  0.26113885  0.45786935  1
  N  N359  1  0.19572562  0.91173698  0.96074779  1
  N  N360  1  0.07190936  0.05261662  0.59730970  1
  N  N361  1  0.06535372  0.38447363  0.59703345  1
  N  N362  1  0.07192994  0.72203870  0.60190430  1
  N  N363  1  0.56722562  0.06169434  0.59895173  1
  N  N364  1  0.57423836  0.38923491  0.59729691  1
  N  N365  1  0.57041836  0.72253983  0.60257279  1
  N  N366  1  0.44208796  0.27421350  0.09037538  1
  N  N367  1  0.43556321  0.60919248  0.09148421  1
  N  N368  1  0.43718097  0.94776868  0.10703255  1
  N  N369  1  0.94418629  0.27832782  0.09476998  1
  N  N370  1  0.93535502  0.60775417  0.09681428  1
  N  N371  1  0.94930468  0.94066149  0.08582357  1
  N  N372  1  0.42703076  0.05600026  0.89685076  1
  N  N373  1  0.44032750  0.39070906  0.90738489  1
  N  N374  1  0.42250594  0.71777038  0.90006553  1
  N  N375  1  0.92496237  0.05670677  0.90112023  1
  N  N376  1  0.93903989  0.38882022  0.90700344  1
  N  N377  1  0.91967325  0.71841619  0.89458367  1
  N  N378  1  0.04959070  0.27501062  0.40890189  1
  N  N379  1  0.06522136  0.61288488  0.40165135  1
  N  N380  1  0.05397826  0.94073443  0.41068618  1
  N  N381  1  0.55654738  0.27788514  0.40666741  1
  N  N382  1  0.55484899  0.60857701  0.40894526  1
  N  N383  1  0.55165594  0.94211277  0.41070203  1
  N  N384  1  0.31971771  0.22488007  0.60264005  1
  N  N385  1  0.31572114  0.55959582  0.59125878  1
  N  N386  1  0.31848906  0.88936991  0.59452122  1
  N  N387  1  0.82538610  0.21996123  0.60048552  1
  N  N388  1  0.81874438  0.55656410  0.60402445  1
  N  N389  1  0.82510878  0.88851419  0.60201429  1
  N  N390  1  0.19617003  0.10816179  0.09741234  1
  N  N391  1  0.18084579  0.44681235  0.10067390  1
  N  N392  1  0.20329386  0.77325576  0.08396236  1
  N  N393  1  0.70362550  0.10886718  0.08513735  1
  N  N394  1  0.68339809  0.44466380  0.09404313  1
  N  N395  1  0.69485027  0.77094757  0.08789836  1
  N  N396  1  0.18226439  0.22242632  0.90151994  1
  N  N397  1  0.18408365  0.55838359  0.90991501  1
  N  N398  1  0.18025224  0.89030592  0.90423976  1
  N  N399  1  0.68411589  0.22149323  0.89659596  1
  N  N400  1  0.68508961  0.55636661  0.89796887  1
  N  N401  1  0.68113823  0.88650028  0.90032046  1
  N  N402  1  0.30102953  0.10851408  0.41806939  1
  N  N403  1  0.31854680  0.44400145  0.39411931  1
  N  N404  1  0.30688975  0.77676476  0.40876149  1
  N  N405  1  0.81949566  0.11411974  0.39046837  1
  N  N406  1  0.80329985  0.44156750  0.41467979  1
  N  N407  1  0.80966304  0.77420150  0.40777800  1
  N  N408  1  0.42785012  0.27969564  0.40019430  1
  N  N409  1  0.42634496  0.61458998  0.39418500  1
  N  N410  1  0.42554154  0.94451220  0.39728732  1
  N  N411  1  0.92245789  0.27725028  0.39713357  1
  N  N412  1  0.93805613  0.60519323  0.41607047  1
  N  N413  1  0.92669320  0.94690313  0.40026808  1
  N  N414  1  0.05296777  0.05948480  0.91067857  1
  N  N415  1  0.06883777  0.38906602  0.90063181  1
  N  N416  1  0.04608782  0.72096954  0.91455544  1
  N  N417  1  0.55520121  0.05675502  0.90942835  1
  N  N418  1  0.56737355  0.38566526  0.89645223  1
  N  N419  1  0.54992070  0.72248885  0.90895122  1
  N  N420  1  0.07035469  0.27973265  0.10134965  1
  N  N421  1  0.06353416  0.60554689  0.09231286  1
  N  N422  1  0.07625183  0.94561360  0.10796305  1
  N  N423  1  0.57126773  0.27872163  0.10215702  1
  N  N424  1  0.56557661  0.61194263  0.09615459  1
  N  N425  1  0.56273639  0.94021437  0.08942417  1
  N  N426  1  0.44053116  0.04740206  0.59688486  1
  N  N427  1  0.44674752  0.39703909  0.57916685  1
  N  N428  1  0.44413536  0.72859079  0.58686698  1
  N  N429  1  0.94227503  0.05651116  0.59151684  1
  N  N430  1  0.93638674  0.38912412  0.60159190  1
  N  N431  1  0.94567335  0.72352957  0.59403381  1
  N  N432  1  0.17701715  0.11161844  0.39458579  1
  N  N433  1  0.19395689  0.44483001  0.41423971  1
  N  N434  1  0.17978883  0.78023639  0.40255433  1
  N  N435  1  0.69216558  0.10738277  0.41013564  1
  N  N436  1  0.67544030  0.44457776  0.39578563  1
  N  N437  1  0.68074912  0.77695677  0.40163053  1
  N  N438  1  0.31239168  0.22134477  0.89992371  1
  N  N439  1  0.31451887  0.55838596  0.90974019  1
  N  N440  1  0.30708460  0.89421776  0.91422291  1
  N  N441  1  0.81085080  0.22711941  0.91019081  1
  N  N442  1  0.81246114  0.55929090  0.90917812  1
  N  N443  1  0.81159358  0.88744116  0.89906997  1
  N  N444  1  0.32388808  0.11313795  0.10086323  1
  N  N445  1  0.30848286  0.44611719  0.09565048  1
  N  N446  1  0.32863162  0.77682149  0.10298310  1
  N  N447  1  0.83121309  0.11508291  0.10420542  1
  N  N448  1  0.81225762  0.44291689  0.09165979  1
  N  N449  1  0.82271867  0.77701059  0.09818355  1
  N  N450  1  0.19244454  0.22609950  0.59131726  1
  N  N451  1  0.18813444  0.55758897  0.59995032  1
  N  N452  1  0.19193177  0.89129536  0.59716159  1
  N  N453  1  0.69949585  0.22454503  0.58976355  1
  N  N454  1  0.69286978  0.55588757  0.58995563  1
  N  N455  1  0.69917070  0.88994416  0.58524887  1
  Cl  Cl456  1  0.25938291  0.06543806  0.60831277  1
  Cl  Cl457  1  0.24889003  0.39819195  0.60322497  1
  Cl  Cl458  1  0.25647631  0.72231651  0.61965500  1
  Cl  Cl459  1  0.75105952  0.05229627  0.61360826  1
  Cl  Cl460  1  0.75700444  0.38335094  0.62173923  1
  Cl  Cl461  1  0.75965470  0.72359246  0.61277626  1
  Cl  Cl462  1  0.25557501  0.27600694  0.11656845  1
  Cl  Cl463  1  0.24888604  0.61499551  0.11453172  1
  Cl  Cl464  1  0.25683806  0.94632916  0.11278655  1
  Cl  Cl465  1  0.75968985  0.28233859  0.11576130  1
  Cl  Cl466  1  0.75190207  0.61605457  0.12701068  1
  Cl  Cl467  1  0.75357086  0.93801965  0.11033279  1
  Cl  Cl468  1  0.23993166  0.05104984  0.87908422  1
  Cl  Cl469  1  0.25388889  0.39248894  0.87619710  1
  Cl  Cl470  1  0.23060633  0.73080625  0.89594946  1
  Cl  Cl471  1  0.73890138  0.05849706  0.88295453  1
  Cl  Cl472  1  0.75236150  0.38730423  0.88952211  1
  Cl  Cl473  1  0.73525518  0.72296489  0.88371091  1
  Cl  Cl474  1  0.23886116  0.27703949  0.38708166  1
  Cl  Cl475  1  0.24498099  0.61644758  0.37833936  1
  Cl  Cl476  1  0.23950221  0.94876004  0.37779888  1
  Cl  Cl477  1  0.74031968  0.27615930  0.37971891  1
  Cl  Cl478  1  0.74376734  0.60850916  0.39796505  1
  Cl  Cl479  1  0.73602980  0.93422022  0.39331139  1
  Cl  Cl480  1  0.00701003  0.22125972  0.62027700  1
  Cl  Cl481  1  0.00401128  0.55259473  0.61444649  1
  Cl  Cl482  1  0.00690953  0.88862119  0.61633946  1
  Cl  Cl483  1  0.51244738  0.21845236  0.60434088  1
  Cl  Cl484  1  0.50683684  0.55637515  0.61015268  1
  Cl  Cl485  1  0.51467294  0.89453735  0.60333775  1
  Cl  Cl486  1  0.01448832  0.10955266  0.11070445  1
  Cl  Cl487  1  -0.00495194  0.44838253  0.12771218  1
  Cl  Cl488  1  0.01891317  0.76795944  0.10172647  1
  Cl  Cl489  1  0.51528012  0.10741455  0.10977022  1
  Cl  Cl490  1  0.49543597  0.44562424  0.10569374  1
  Cl  Cl491  1  0.51077548  0.78148394  0.12139968  1
  Cl  Cl492  1  -0.00432231  0.21962610  0.88354039  1
  Cl  Cl493  1  -0.00184677  0.55180958  0.88111258  1
  Cl  Cl494  1  -0.00219205  0.88511074  0.88326793  1
  Cl  Cl495  1  0.49809212  0.21619755  0.87208232  1
  Cl  Cl496  1  0.50021099  0.55474484  0.87733287  1
  Cl  Cl497  1  0.49394292  0.88902899  0.88311275  1
  Cl  Cl498  1  -0.00046312  0.11907713  0.37433812  1
  Cl  Cl499  1  0.00651368  0.44046339  0.40246079  1
  Cl  Cl500  1  -0.00345206  0.78370443  0.37661431  1
  Cl  Cl501  1  0.49105451  0.10430130  0.39803514  1
  Cl  Cl502  1  0.49690616  0.44728487  0.36832011  1
  Cl  Cl503  1  0.49541826  0.77953462  0.38798288  1
  Cl  Cl504  1  0.36438690  0.14725699  0.74386274  1
  Cl  Cl505  1  0.36063678  0.48336528  0.74940200  1
  Cl  Cl506  1  0.35801558  0.81612432  0.75586605  1
  Cl  Cl507  1  0.86035702  0.14776986  0.75040487  1
  Cl  Cl508  1  0.86110877  0.48204346  0.74233953  1
  Cl  Cl509  1  0.86296229  0.81398830  0.74712825  1
  Cl  Cl510  1  0.14147397  0.18410745  0.25493003  1
  Cl  Cl511  1  0.13830705  0.51903302  0.25227578  1
  Cl  Cl512  1  0.14213807  0.85037036  0.24044067  1
  Cl  Cl513  1  0.63952799  0.18403121  0.24526696  1
  Cl  Cl514  1  0.63947736  0.51820182  0.25370143  1
  Cl  Cl515  1  0.64101927  0.85058499  0.25291931  1
  Cl  Cl516  1  0.14184384  0.14903716  0.74755560  1
  Cl  Cl517  1  0.13902540  0.48162115  0.74537094  1
  Cl  Cl518  1  0.14133109  0.81689784  0.75386450  1
  Cl  Cl519  1  0.63963170  0.14882498  0.74467756  1
  Cl  Cl520  1  0.63998717  0.48098805  0.75494848  1
  Cl  Cl521  1  0.64170788  0.81788307  0.74188554  1
  Cl  Cl522  1  0.36295531  0.18579655  0.25750618  1
  Cl  Cl523  1  0.35940440  0.51848156  0.25105296  1
  Cl  Cl524  1  0.36360115  0.85374810  0.24604025  1
  Cl  Cl525  1  0.86435331  0.18549979  0.24685174  1
  Cl  Cl526  1  0.85978857  0.51753677  0.25447951  1
  Cl  Cl527  1  0.85788986  0.85455269  0.24823416  1
  Cl  Cl528  1  0.11374247  0.31415777  0.75541705  1
  Cl  Cl529  1  0.10825568  0.64999395  0.74950799  1
  Cl  Cl530  1  0.10864644  0.98448015  0.74699045  1
  Cl  Cl531  1  0.61389915  0.31513203  0.74640059  1
  Cl  Cl532  1  0.61066813  0.64959197  0.74337280  1
  Cl  Cl533  1  0.60742117  0.98212726  0.75080016  1
  Cl  Cl534  1  0.38612706  0.02116997  0.24540330  1
  Cl  Cl535  1  0.39215456  0.35091824  0.24871613  1
  Cl  Cl536  1  0.38708968  0.68684257  0.24889594  1
  Cl  Cl537  1  0.88784204  0.02018926  0.25329711  1
  Cl  Cl538  1  0.88679632  0.35307027  0.25801152  1
  Cl  Cl539  1  0.88908463  0.68601857  0.25005982  1
  Cl  Cl540  1  0.39222410  0.31717431  0.74079458  1
  Cl  Cl541  1  0.39021767  0.64985461  0.75083944  1
  Cl  Cl542  1  0.38911456  0.98140975  0.74654944  1
  Cl  Cl543  1  0.89272207  0.31538079  0.74814918  1
  Cl  Cl544  1  0.88549385  0.64618394  0.75358358  1
  Cl  Cl545  1  0.88795254  0.98084690  0.75479475  1
  Cl  Cl546  1  0.10950572  0.01704359  0.24702237  1
  Cl  Cl547  1  0.10865606  0.35071867  0.24994119  1
  Cl  Cl548  1  0.10656392  0.68665137  0.25547871  1
  Cl  Cl549  1  0.60731761  0.01907645  0.25699423  1
  Cl  Cl550  1  0.61302918  0.35308477  0.24517510  1
  Cl  Cl551  1  0.61025182  0.68400936  0.25348899  1
