# generated using pymatgen
data_H8PbC4(N3Cl2)2
_symmetry_space_group_name_H-M   'P 1'
_cell_length_a   16.62998060
_cell_length_b   22.51217862
_cell_length_c   21.59385787
_cell_angle_alpha   89.99935404
_cell_angle_beta   90.01090813
_cell_angle_gamma   90.00229882
_symmetry_Int_Tables_number   1
_chemical_formula_structural   H8PbC4(N3Cl2)2
_chemical_formula_sum   'H192 Pb24 C96 N144 Cl96'
_cell_volume   8084.24559692
_cell_formula_units_Z   24
loop_
 _symmetry_equiv_pos_site_id
 _symmetry_equiv_pos_as_xyz
  1  'x, y, z'
loop_
 _atom_site_type_symbol
 _atom_site_label
 _atom_site_symmetry_multiplicity
 _atom_site_fract_x
 _atom_site_fract_y
 _atom_site_fract_z
 _atom_site_occupancy
  H  H0  1  -0.00137724  0.03250068  0.68526193  1
  H  H1  1  0.00737799  0.36690946  0.68322192  1
  H  H2  1  -0.01034832  0.69513011  0.67608079  1
  H  H3  1  0.50757314  0.02972268  0.68222375  1
  H  H4  1  0.50333313  0.36254169  0.67739005  1
  H  H5  1  0.50372680  0.69660698  0.67729994  1
  H  H6  1  0.00158962  0.30307081  0.17944655  1
  H  H7  1  -0.00850675  0.63676027  0.17832099  1
  H  H8  1  -0.00385520  0.96997227  0.17977921  1
  H  H9  1  0.50405531  0.30389863  0.18254402  1
  H  H10  1  0.49142443  0.63546712  0.17915910  1
  H  H11  1  0.50840192  0.97167878  0.18007232  1
  H  H12  1  -0.00818404  0.02976685  0.82041520  1
  H  H13  1  -0.00907541  0.36147177  0.82310193  1
  H  H14  1  0.00670281  0.69750329  0.82103527  1
  H  H15  1  0.50336953  0.02983635  0.81983201  1
  H  H16  1  0.51296697  0.36467734  0.82428322  1
  H  H17  1  0.49102763  0.69704611  0.81836233  1
  H  H18  1  -0.00314432  0.30640614  0.31757833  1
  H  H19  1  0.00442860  0.63609102  0.32196402  1
  H  H20  1  0.00724027  0.96767647  0.31736401  1
  H  H21  1  0.48955439  0.30317042  0.32178405  1
  H  H22  1  0.49385983  0.63953314  0.32375927  1
  H  H23  1  0.49943369  0.96841421  0.32052576  1
  H  H24  1  0.23488242  0.20126478  0.67990168  1
  H  H25  1  0.25358765  0.53105786  0.67661629  1
  H  H26  1  0.24014253  0.86073599  0.67721591  1
  H  H27  1  0.76376340  0.19561702  0.67898682  1
  H  H28  1  0.74989049  0.52979816  0.67854354  1
  H  H29  1  0.74564485  0.86393029  0.67855920  1
  H  H30  1  0.24437751  0.13883853  0.18080138  1
  H  H31  1  0.24061075  0.47079521  0.17300275  1
  H  H32  1  0.24102049  0.80317881  0.18229519  1
  H  H33  1  0.75894433  0.13828721  0.17731015  1
  H  H34  1  0.75733257  0.47078743  0.18013483  1
  H  H35  1  0.75065698  0.80330894  0.17945786  1
  H  H36  1  0.25214114  0.19332262  0.81993620  1
  H  H37  1  0.25007735  0.52901484  0.82033037  1
  H  H38  1  0.24725634  0.86333522  0.81771622  1
  H  H39  1  0.74102716  0.19748590  0.81894856  1
  H  H40  1  0.75146936  0.53079351  0.82153605  1
  H  H41  1  0.74691331  0.86496757  0.81935605  1
  H  H42  1  0.24933250  0.13395276  0.31783243  1
  H  H43  1  0.24726489  0.47155573  0.32299895  1
  H  H44  1  0.25034917  0.80344988  0.32565667  1
  H  H45  1  0.75027903  0.13193713  0.31691447  1
  H  H46  1  0.74716958  0.46931178  0.31771962  1
  H  H47  1  0.75165842  0.80311992  0.31864886  1
  H  H48  1  0.12495166  0.05434481  0.61805744  1
  H  H49  1  0.11706643  0.39285576  0.60167697  1
  H  H50  1  0.12980835  0.71612117  0.62376146  1
  H  H51  1  0.62334020  0.05329331  0.60563889  1
  H  H52  1  0.61649727  0.39095780  0.59916158  1
  H  H53  1  0.62809308  0.72229969  0.60698269  1
  H  H54  1  0.36978672  0.28499772  0.12319635  1
  H  H55  1  0.38075759  0.60832970  0.09710929  1
  H  H56  1  0.37223996  0.95041517  0.12325716  1
  H  H57  1  0.86946892  0.28045391  0.11626967  1
  H  H58  1  0.87916880  0.60770783  0.09969555  1
  H  H59  1  0.87295792  0.94636063  0.10615091  1
  H  H60  1  0.38073958  0.05518520  0.88938649  1
  H  H61  1  0.37463642  0.38382054  0.88040805  1
  H  H62  1  0.37381115  0.71937185  0.89322823  1
  H  H63  1  0.88858732  0.05505709  0.90481511  1
  H  H64  1  0.87876451  0.39164109  0.90227035  1
  H  H65  1  0.86940585  0.71952058  0.87823393  1
  H  H66  1  0.12473656  0.28145685  0.38309101  1
  H  H67  1  0.12323644  0.61118689  0.39743357  1
  H  H68  1  0.12203908  0.94412587  0.39766880  1
  H  H69  1  0.62330755  0.28024389  0.38329029  1
  H  H70  1  0.62808377  0.61572696  0.38483531  1
  H  H71  1  0.62216922  0.94478553  0.39346991  1
  H  H72  1  0.37517197  0.21768765  0.62417780  1
  H  H73  1  0.37330098  0.55660264  0.60299895  1
  H  H74  1  0.37596735  0.88239346  0.61820332  1
  H  H75  1  0.86953788  0.22582998  0.59486258  1
  H  H76  1  0.87085517  0.55610559  0.60542094  1
  H  H77  1  0.87378343  0.88517797  0.61410290  1
  H  H78  1  0.11670353  0.11454157  0.11388785  1
  H  H79  1  0.12835838  0.44104639  0.09505830  1
  H  H80  1  0.13153675  0.77719372  0.10071903  1
  H  H81  1  0.61949461  0.11612283  0.12449430  1
  H  H82  1  0.62250341  0.44769884  0.11940902  1
  H  H83  1  0.62998580  0.77877646  0.10617459  1
  H  H84  1  0.12775570  0.22115683  0.88747975  1
  H  H85  1  0.12286850  0.55155416  0.88898289  1
  H  H86  1  0.12855132  0.88870388  0.89409413  1
  H  H87  1  0.63461428  0.22451232  0.90155115  1
  H  H88  1  0.62132494  0.55371487  0.88793294  1
  H  H89  1  0.63252954  0.88699235  0.89636392  1
  H  H90  1  0.37526051  0.11985305  0.38862831  1
  H  H91  1  0.38021184  0.44662312  0.38328567  1
  H  H92  1  0.36899153  0.77551385  0.39869334  1
  H  H93  1  0.87473067  0.11309832  0.38769784  1
  H  H94  1  0.88006941  0.44956939  0.37853403  1
  H  H95  1  0.86709956  0.77743338  0.39605320  1
  H  H96  1  0.37587098  0.27691558  0.40063738  1
  H  H97  1  0.38078291  0.61117830  0.40278680  1
  H  H98  1  0.37309971  0.94492217  0.38969433  1
  H  H99  1  0.87566791  0.27840800  0.39035410  1
  H  H100  1  0.87485562  0.61242100  0.38851235  1
  H  H101  1  0.87410394  0.94823924  0.38335482  1
  H  H102  1  0.13385229  0.04813935  0.87064572  1
  H  H103  1  0.12624088  0.38509817  0.88085752  1
  H  H104  1  0.11687554  0.72287715  0.90165130  1
  H  H105  1  0.62997998  0.05253600  0.88659115  1
  H  H106  1  0.62040995  0.39463660  0.90645901  1
  H  H107  1  0.62239406  0.71806279  0.88120843  1
  H  H108  1  0.11885813  0.28020509  0.10522797  1
  H  H109  1  0.12676155  0.61374305  0.11841379  1
  H  H110  1  0.12153864  0.94639232  0.10860264  1
  H  H111  1  0.61797002  0.27926191  0.10527134  1
  H  H112  1  0.62751084  0.61525362  0.11721821  1
  H  H113  1  0.61970957  0.94306235  0.09967857  1
  H  H114  1  0.37480661  0.05401052  0.61936964  1
  H  H115  1  0.36902413  0.38628433  0.61793557  1
  H  H116  1  0.37935003  0.72153813  0.60764033  1
  H  H117  1  0.87600116  0.04842914  0.61236808  1
  H  H118  1  0.86977008  0.38678890  0.62396669  1
  H  H119  1  0.88640621  0.72578165  0.59044121  1
  H  H120  1  0.12851040  0.10730171  0.38974112  1
  H  H121  1  0.13253340  0.44494868  0.40085664  1
  H  H122  1  0.12066283  0.77920091  0.39053926  1
  H  H123  1  0.62496271  0.11237249  0.38906024  1
  H  H124  1  0.63162536  0.44484755  0.39427589  1
  H  H125  1  0.61857699  0.78146081  0.38309695  1
  H  H126  1  0.37641471  0.22146374  0.89016657  1
  H  H127  1  0.37205264  0.55454617  0.89291153  1
  H  H128  1  0.37685477  0.88647653  0.88645275  1
  H  H129  1  0.88031366  0.21509397  0.87103592  1
  H  H130  1  0.86981418  0.55462036  0.89772360  1
  H  H131  1  0.88091070  0.88494682  0.88005313  1
  H  H132  1  0.36522490  0.11129608  0.10768664  1
  H  H133  1  0.37542413  0.44754102  0.11435607  1
  H  H134  1  0.37823776  0.78317225  0.12356726  1
  H  H135  1  0.86523539  0.10830797  0.09454949  1
  H  H136  1  0.87035079  0.44417775  0.10095321  1
  H  H137  1  0.87887524  0.77915482  0.11180541  1
  H  H138  1  0.13044110  0.22709689  0.59295428  1
  H  H139  1  0.12465462  0.55437079  0.60990370  1
  H  H140  1  0.12850566  0.89122330  0.59883647  1
  H  H141  1  0.62422438  0.21752305  0.62731781  1
  H  H142  1  0.62214232  0.55333118  0.61213054  1
  H  H143  1  0.62489447  0.88661889  0.60572824  1
  H  H144  1  0.70498152  0.25268980  1.00616334  1
  H  H145  1  0.06517031  0.24885842  -0.00377878  1
  H  H146  1  0.66354264  0.58166801  0.99347446  1
  H  H147  1  0.54934417  0.41666209  0.49590752  1
  H  H148  1  0.41909181  0.91135469  0.49725451  1
  H  H149  1  0.05024383  0.75161768  1.00768924  1
  H  H150  1  0.69244036  0.91504235  1.00593735  1
  H  H151  1  0.16822263  0.58254040  0.99767771  1
  H  H152  1  0.68949257  0.41973563  0.50351566  1
  H  H153  1  0.79422565  0.24629126  0.49429596  1
  H  H154  1  0.94793006  0.41862786  1.00414958  1
  H  H155  1  0.83630994  0.91699222  0.50173852  1
  H  H156  1  0.20955728  0.25364828  0.49517371  1
  H  H157  1  0.80452870  0.75061601  0.50312446  1
  H  H158  1  0.16068991  0.74885696  0.49695204  1
  H  H159  1  0.39753629  0.91811116  0.01108753  1
  H  H160  1  0.93148382  0.26238564  0.49744118  1
  H  H161  1  0.04779152  0.42167888  0.49738641  1
  H  H162  1  0.55741439  0.25277348  -0.00368200  1
  H  H163  1  0.59449995  0.58723468  0.49169126  1
  H  H164  1  0.59217783  0.08262157  0.99747102  1
  H  H165  1  0.85084035  0.42276185  0.49192495  1
  H  H166  1  0.08356509  0.08047070  0.50557193  1
  H  H167  1  0.96610267  0.74996888  0.49203417  1
  H  H168  1  0.79059941  0.08065098  -0.00516070  1
  H  H169  1  0.82668299  0.09938046  0.50228176  1
  H  H170  1  0.92690738  0.05659487  0.49768087  1
  H  H171  1  0.19822958  0.41973058  0.50473763  1
  H  H172  1  0.42777107  0.74749313  1.00270073  1
  H  H173  1  0.67465796  0.08565720  0.49470464  1
  H  H174  1  0.08360704  0.25110092  0.49433644  1
  H  H175  1  0.56209798  0.06924501  0.49341348  1
  H  H176  1  0.96296652  0.08203619  1.00962821  1
  H  H177  1  0.89568004  0.74701019  0.98652621  1
  H  H178  1  0.41037417  0.06398742  0.50941362  1
  H  H179  1  0.15576941  0.08213274  0.00427883  1
  H  H180  1  0.64226491  0.25047339  0.51465048  1
  H  H181  1  0.86628712  0.24578274  0.98571394  1
  H  H182  1  0.68193144  0.74823679  -0.00104267  1
  H  H183  1  0.34426790  0.41735213  0.00613304  1
  H  H184  1  0.19991356  0.05050782  0.47453410  1
  H  H185  1  0.39684219  0.25589575  0.01009698  1
  H  H186  1  0.55222552  0.91719574  -0.00174993  1
  H  H187  1  0.31094144  0.13073347  0.49432649  1
  H  H188  1  0.80432598  0.41581000  -0.00446192  1
  H  H189  1  0.91987799  0.58414944  0.49434965  1
  H  H190  1  0.42717574  0.08578623  0.99918240  1
  H  H191  1  0.20166897  0.75109969  -0.00458905  1
  Pb  Pb192  1  0.25397886  0.04589199  0.74034176  1
  Pb  Pb193  1  0.25299443  0.38249586  0.74495915  1
  Pb  Pb194  1  0.25144171  0.71176835  0.75283440  1
  Pb  Pb195  1  0.75250290  0.04707740  0.75222960  1
  Pb  Pb196  1  0.75179671  0.38200525  0.75386750  1
  Pb  Pb197  1  0.75258647  0.71353173  0.74183645  1
  Pb  Pb198  1  0.25018727  0.28805821  0.25684093  1
  Pb  Pb199  1  0.25486292  0.61886361  0.25107594  1
  Pb  Pb200  1  0.24841880  0.95287227  0.25524544  1
  Pb  Pb201  1  0.74886287  0.28675894  0.25397884  1
  Pb  Pb202  1  0.75089816  0.62017717  0.24692422  1
  Pb  Pb203  1  0.75298075  0.95145484  0.24802902  1
  Pb  Pb204  1  0.00536247  0.21597584  0.73824550  1
  Pb  Pb205  1  0.00025890  0.54668210  0.74908997  1
  Pb  Pb206  1  0.00350137  0.87954587  0.74667962  1
  Pb  Pb207  1  0.50190963  0.21468687  0.75733238  1
  Pb  Pb208  1  0.50342537  0.54729610  0.74694949  1
  Pb  Pb209  1  0.50190412  0.87834144  0.75637623  1
  Pb  Pb210  1  -0.00039190  0.12124123  0.25145634  1
  Pb  Pb211  1  0.00187082  0.45399457  0.24428416  1
  Pb  Pb212  1  0.00476877  0.78344347  0.25045379  1
  Pb  Pb213  1  0.49877406  0.11855762  0.25441724  1
  Pb  Pb214  1  0.50153905  0.45427342  0.25694793  1
  Pb  Pb215  1  0.50033764  0.78711156  0.25052308  1
  C  C216  1  -0.00015173  0.04540044  0.63680524  1
  C  C217  1  -0.00236088  0.38145702  0.63583788  1
  C  C218  1  0.00163249  0.71109404  0.62954530  1
  C  C219  1  0.50104494  0.04430016  0.63450045  1
  C  C220  1  0.49633121  0.37837951  0.63033277  1
  C  C221  1  0.50405202  0.71312966  0.63036767  1
  C  C222  1  -0.00284248  0.28769708  0.13197118  1
  C  C223  1  -0.00050965  0.62010444  0.13176495  1
  C  C224  1  -0.00325983  0.95447759  0.13220508  1
  C  C225  1  0.49696182  0.28926303  0.13491562  1
  C  C226  1  0.49987325  0.62063837  0.13172141  1
  C  C227  1  0.50031604  0.95566735  0.13288188  1
  C  C228  1  0.00464334  0.04404327  0.86725430  1
  C  C229  1  -0.00166270  0.37810547  0.86980110  1
  C  C230  1  -0.00307683  0.71272162  0.86827262  1
  C  C231  1  0.50480898  0.04590909  0.86729509  1
  C  C232  1  0.50240428  0.38040114  0.87086702  1
  C  C233  1  0.49543926  0.71144091  0.86606504  1
  C  C234  1  -0.00142039  0.29008298  0.36498558  1
  C  C235  1  0.00047313  0.62010414  0.36920965  1
  C  C236  1  0.00092874  0.95296260  0.36501590  1
  C  C237  1  0.49666090  0.28716645  0.36859963  1
  C  C238  1  0.50131926  0.62246497  0.37038534  1
  C  C239  1  0.49821794  0.95237798  0.36789174  1
  C  C240  1  0.24629993  0.21534444  0.63266088  1
  C  C241  1  0.25024915  0.54713414  0.62953490  1
  C  C242  1  0.24857557  0.87790677  0.63093758  1
  C  C243  1  0.75279086  0.21167481  0.63215771  1
  C  C244  1  0.74777367  0.54628162  0.63158896  1
  C  C245  1  0.74868666  0.87901774  0.63099214  1
  C  C246  1  0.24219842  0.12228685  0.13378956  1
  C  C247  1  0.24859218  0.45403759  0.12635941  1
  C  C248  1  0.25055189  0.78823648  0.13506715  1
  C  C249  1  0.74805001  0.12185799  0.13078580  1
  C  C250  1  0.74986960  0.45474102  0.13316380  1
  C  C251  1  0.75350012  0.78734239  0.13203257  1
  C  C252  1  0.25251823  0.21122462  0.86634263  1
  C  C253  1  0.24820110  0.54524456  0.86754725  1
  C  C254  1  0.25119525  0.87910469  0.86515948  1
  C  C255  1  0.75252321  0.21224726  0.86607287  1
  C  C256  1  0.74712763  0.54652003  0.86893070  1
  C  C257  1  0.75330246  0.87907366  0.86700837  1
  C  C258  1  0.25118995  0.12057366  0.36602705  1
  C  C259  1  0.25321815  0.45579461  0.37017371  1
  C  C260  1  0.24615067  0.78707163  0.37270974  1
  C  C261  1  0.74946978  0.11817050  0.36524569  1
  C  C262  1  0.75329820  0.45450260  0.36538874  1
  C  C263  1  0.74556100  0.78799175  0.36610399  1
  C  C264  1  0.52041469  0.41248268  0.96578701  1
  C  C265  1  0.05569454  0.40900512  0.95703684  1
  C  C266  1  0.52436710  0.26325935  0.03837592  1
  C  C267  1  0.04388571  0.06666675  0.54277189  1
  C  C268  1  0.70492322  0.57520588  0.54030575  1
  C  C269  1  0.81551287  0.23689426  0.95271891  1
  C  C270  1  0.97596397  0.58780597  0.03787785  1
  C  C271  1  0.99137135  0.07076965  0.96571294  1
  C  C272  1  0.94655898  0.26090953  0.04175376  1
  C  C273  1  0.80584386  0.43142352  0.45643850  1
  C  C274  1  0.80704665  0.90427842  0.95635762  1
  C  C275  1  0.46670374  0.74378814  0.53904544  1
  C  C276  1  0.72048260  0.75945501  0.03854856  1
  C  C277  1  0.77156859  0.76114587  0.46097734  1
  C  C278  1  0.23131591  0.76133698  0.03913948  1
  C  C279  1  0.04413761  0.26147644  0.45568660  1
  C  C280  1  0.73466314  0.24035027  0.96321355  1
  C  C281  1  0.54599654  0.73658668  0.95691640  1
  C  C282  1  0.02776816  0.25999674  0.03596476  1
  C  C283  1  0.72406896  0.42971319  0.46206462  1
  C  C284  1  0.20050614  0.09363100  0.04256487  1
  C  C285  1  0.46466920  0.73725600  0.96248592  1
  C  C286  1  0.53146627  0.06593927  0.53782160  1
  C  C287  1  0.22129282  0.42064829  0.03171210  1
  C  C288  1  0.44317713  0.92747512  0.04585460  1
  C  C289  1  0.02025289  0.74094272  0.96431124  1
  C  C290  1  0.01739968  0.40913081  0.54020410  1
  C  C291  1  0.68505614  0.09308859  0.04538803  1
  C  C292  1  0.21354439  0.24355991  0.95730284  1
  C  C293  1  0.72613912  0.90492886  0.96400571  1
  C  C294  1  0.46679349  0.07397873  0.96111453  1
  C  C295  1  0.30754597  0.42498784  0.45872558  1
  C  C296  1  0.20868228  0.57256202  0.95940431  1
  C  C297  1  0.79381870  0.90657857  0.53851301  1
  C  C298  1  0.45935737  0.92333696  0.45946704  1
  C  C299  1  0.54895019  0.07293629  0.96007350  1
  C  C300  1  0.28208725  0.57746806  0.53681404  1
  C  C301  1  0.69019482  0.24155385  0.54798554  1
  C  C302  1  0.28111611  0.75436307  0.46600580  1
  C  C303  1  0.77255899  0.42643286  0.03823596  1
  C  C304  1  0.71226941  0.90677875  0.53713984  1
  C  C305  1  0.44262988  0.26480804  0.04498319  1
  C  C306  1  0.79064220  0.10001458  0.46027860  1
  C  C307  1  0.07094234  0.06773507  0.95214597  1
  C  C308  1  0.22602150  0.91207346  0.53771989  1
  C  C309  1  0.44048292  0.40887604  0.54220544  1
  C  C310  1  0.96232191  0.06045167  0.53971359  1
  C  C311  1  0.47122259  0.25657039  0.46300739  1
  N  N312  1  0.97728835  0.41000416  0.96334135  1
  N  N313  1  0.23327134  0.23851659  0.53649911  1
  N  N314  1  0.47288486  0.59218602  0.46506011  1
  N  N315  1  0.22879494  0.42547968  0.46386804  1
  N  N316  1  0.29970823  0.42426164  0.03887617  1
  N  N317  1  0.94157465  0.74052498  0.95484923  1
  N  N318  1  0.29515577  0.90709363  0.95694046  1
  N  N319  1  0.71110660  0.09962584  0.45954287  1
  N  N320  1  0.27952911  0.09250779  0.03984918  1
  N  N321  1  0.06662810  0.73899892  0.54564043  1
  N  N322  1  0.47725681  0.59218616  0.03557120  1
  N  N323  1  0.21275156  0.09288084  0.45940069  1
  N  N324  1  0.95864373  0.59264740  0.45863009  1
  N  N325  1  0.54407263  0.74409890  0.53749918  1
  N  N326  1  0.96009592  0.92771087  0.03821119  1
  N  N327  1  0.29118642  0.24341413  0.95918332  1
  N  N328  1  0.76307592  0.09040049  0.03631489  1
  N  N329  1  0.70413457  0.57346632  0.95839086  1
  N  N330  1  0.55062675  0.59388265  0.45758203  1
  N  N331  1  0.28786809  0.57398704  0.96118990  1
  N  N332  1  0.98971118  0.74308510  0.53596722  1
  N  N333  1  0.44371694  0.40844938  0.95866907  1
  N  N334  1  0.20477366  0.57626365  0.53749435  1
  N  N335  1  0.78214978  0.57370233  0.96344904  1
  N  N336  1  0.29652631  0.10082247  0.45988245  1
  N  N337  1  0.45204403  0.06753445  0.54412569  1
  N  N338  1  0.53861161  0.92454982  0.46174160  1
  N  N339  1  0.05314657  0.59020509  0.04245770  1
  N  N340  1  0.54837633  0.25852023  0.45882763  1
  N  N341  1  0.96440934  0.26084433  0.45742496  1
  N  N342  1  0.51916999  0.40952957  0.53672727  1
  N  N343  1  0.69267380  0.76193831  0.45654447  1
  N  N344  1  0.93886058  0.40614585  0.54734043  1
  N  N345  1  0.30324186  0.90868087  0.54238636  1
  N  N346  1  0.20230828  0.75698747  0.46230835  1
  N  N347  1  0.02850601  0.92730786  0.46122774  1
  N  N348  1  0.95250593  0.92932559  0.45678585  1
  N  N349  1  0.03650985  0.59202880  0.46312915  1
  N  N350  1  0.03614140  0.92728597  0.03896094  1
  N  N351  1  0.52218825  0.92422546  0.03917021  1
  N  N352  1  0.79988373  0.75974145  0.03972820  1
  N  N353  1  0.55305671  0.59465109  0.04224115  1
  N  N354  1  0.31025305  0.23486021  0.54569853  1
  N  N355  1  0.21900488  0.90802623  0.95951767  1
  N  N356  1  0.30991083  0.76215052  0.04695230  1
  N  N357  1  0.69377802  0.42687701  0.04436415  1
  N  N358  1  0.76876711  0.24423352  0.53772876  1
  N  N359  1  0.78287472  0.57614973  0.53678727  1
  N  N360  1  0.06582279  0.05685286  0.60317979  1
  N  N361  1  0.05493251  0.39368393  0.59403570  1
  N  N362  1  0.07328553  0.72105700  0.60454889  1
  N  N363  1  0.56223206  0.05370578  0.59424837  1
  N  N364  1  0.55472166  0.38866780  0.59019872  1
  N  N365  1  0.56761242  0.72469955  0.59568604  1
  N  N366  1  0.42724709  0.28063103  0.10512133  1
  N  N367  1  0.44284066  0.60816718  0.09069116  1
  N  N368  1  0.42938484  0.94575962  0.10443867  1
  N  N369  1  0.92824579  0.27730221  0.09991664  1
  N  N370  1  0.94060970  0.60576219  0.09120292  1
  N  N371  1  0.93393600  0.94424950  0.09595736  1
  N  N372  1  0.44086993  0.05709213  0.90316452  1
  N  N373  1  0.43243528  0.38840325  0.89824468  1
  N  N374  1  0.43428865  0.72158240  0.90466772  1
  N  N375  1  0.95076242  0.05576430  0.91125922  1
  N  N376  1  0.94062662  0.38905585  0.91043637  1
  N  N377  1  0.92753771  0.72220743  0.89606455  1
  N  N378  1  0.06547860  0.27769571  0.39790335  1
  N  N379  1  0.06217310  0.60858356  0.40683090  1
  N  N380  1  0.05997828  0.94116320  0.40445415  1
  N  N381  1  0.56448847  0.27755739  0.39872292  1
  N  N382  1  0.56914411  0.61284861  0.40056357  1
  N  N383  1  0.56110186  0.94219346  0.40419426  1
  N  N384  1  0.31778331  0.22158518  0.60571792  1
  N  N385  1  0.31282793  0.55989187  0.59204054  1
  N  N386  1  0.31726467  0.88710361  0.60196021  1
  N  N387  1  0.80746981  0.22177033  0.58877027  1
  N  N388  1  0.80941907  0.55785959  0.59511396  1
  N  N389  1  0.81521053  0.88937577  0.59826548  1
  N  N390  1  0.17619766  0.11167593  0.09999446  1
  N  N391  1  0.18936217  0.43906078  0.08579599  1
  N  N392  1  0.19341336  0.77692834  0.09285253  1
  N  N393  1  0.67553240  0.11148221  0.10431458  1
  N  N394  1  0.68154807  0.44448459  0.10352470  1
  N  N395  1  0.69091635  0.77610005  0.09474518  1
  N  N396  1  0.18768272  0.22424217  0.90125254  1
  N  N397  1  0.18269121  0.55547864  0.90201871  1
  N  N398  1  0.19027829  0.89094951  0.90285917  1
  N  N399  1  0.69654546  0.22494725  0.90880361  1
  N  N400  1  0.68134477  0.55676845  0.90146550  1
  N  N401  1  0.69349129  0.88905934  0.90692449  1
  N  N402  1  0.31538748  0.12133142  0.40191591  1
  N  N403  1  0.32260263  0.44278030  0.40039687  1
  N  N404  1  0.30840746  0.77296272  0.41065917  1
  N  N405  1  0.81498481  0.11167893  0.40186326  1
  N  N406  1  0.82243190  0.44642471  0.39630663  1
  N  N407  1  0.80574571  0.77675369  0.40578788  1
  N  N408  1  0.43713035  0.27391028  0.40891302  1
  N  N409  1  0.44261403  0.60917549  0.41015101  1
  N  N410  1  0.43303662  0.94047581  0.40217871  1
  N  N411  1  0.93652236  0.28211730  0.40232200  1
  N  N412  1  0.93488980  0.61003968  0.40204393  1
  N  N413  1  0.93405221  0.94507595  0.39708787  1
  N  N414  1  0.07848053  0.05211065  0.89251099  1
  N  N415  1  0.06886746  0.38991102  0.89891985  1
  N  N416  1  0.05492784  0.72420254  0.91046820  1
  N  N417  1  0.57090809  0.05573029  0.90123788  1
  N  N418  1  0.55881161  0.39525858  0.91330799  1
  N  N419  1  0.56405930  0.72131187  0.89857365  1
  N  N420  1  0.05816934  0.27695125  0.09371485  1
  N  N421  1  0.06787822  0.61050749  0.10243062  1
  N  N422  1  0.06056974  0.94392105  0.09717495  1
  N  N423  1  0.55684342  0.27830773  0.09478146  1
  N  N424  1  0.56836193  0.61255883  0.10184984  1
  N  N425  1  0.55746862  0.94387345  0.09209649  1
  N  N426  1  0.43355629  0.05076264  0.60315759  1
  N  N427  1  0.42635380  0.39041577  0.60048141  1
  N  N428  1  0.43932813  0.72500975  0.59483622  1
  N  N429  1  0.93595131  0.04867288  0.59887096  1
  N  N430  1  0.92815495  0.38935526  0.60716874  1
  N  N431  1  0.94877251  0.72336241  0.58570075  1
  N  N432  1  0.18949635  0.10284790  0.39966090  1
  N  N433  1  0.19429003  0.44661369  0.41010783  1
  N  N434  1  0.17999083  0.77806463  0.40511266  1
  N  N435  1  0.68579769  0.10823228  0.40026024  1
  N  N436  1  0.69275934  0.44398489  0.40482376  1
  N  N437  1  0.67818016  0.77869868  0.39755622  1
  N  N438  1  0.31564483  0.22311507  0.90120846  1
  N  N439  1  0.31089233  0.55690442  0.90353860  1
  N  N440  1  0.31654800  0.88925929  0.89840033  1
  N  N441  1  0.82474444  0.21967746  0.89227515  1
  N  N442  1  0.80843710  0.55756188  0.90703142  1
  N  N443  1  0.82301809  0.88890099  0.89788866  1
  N  N444  1  0.30395359  0.11055842  0.09711781  1
  N  N445  1  0.31712691  0.44551496  0.09698886  1
  N  N446  1  0.32000244  0.77882505  0.10682151  1
  N  N447  1  0.80293428  0.11007731  0.08831612  1
  N  N448  1  0.80868440  0.44300853  0.09245770  1
  N  N449  1  0.81879468  0.77738192  0.09870122  1
  N  N450  1  0.19251443  0.22709464  0.58915909  1
  N  N451  1  0.18467981  0.55726579  0.59663852  1
  N  N452  1  0.19013355  0.89360931  0.59060115  1
  N  N453  1  0.68036121  0.22325272  0.60691655  1
  N  N454  1  0.68154144  0.55739840  0.59778788  1
  N  N455  1  0.68518053  0.89027468  0.59280327  1
  Cl  Cl456  1  0.25170150  0.06053969  0.60388128  1
  Cl  Cl457  1  0.23895488  0.39195236  0.60634229  1
  Cl  Cl458  1  0.25543478  0.72057966  0.61841134  1
  Cl  Cl459  1  0.74732353  0.05773058  0.61455118  1
  Cl  Cl460  1  0.73833501  0.38993880  0.61853527  1
  Cl  Cl461  1  0.76378589  0.72484072  0.60709477  1
  Cl  Cl462  1  0.24233150  0.28511427  0.12673704  1
  Cl  Cl463  1  0.25482456  0.60999801  0.11733715  1
  Cl  Cl464  1  0.24421995  0.94863578  0.12461459  1
  Cl  Cl465  1  0.74257865  0.27769203  0.12152691  1
  Cl  Cl466  1  0.75239600  0.61122113  0.11366556  1
  Cl  Cl467  1  0.74361390  0.94691268  0.11166650  1
  Cl  Cl468  1  0.25950672  0.05528633  0.86937355  1
  Cl  Cl469  1  0.25017287  0.38549246  0.87720687  1
  Cl  Cl470  1  0.24034939  0.72265274  0.88758794  1
  Cl  Cl471  1  0.76278719  0.05615829  0.89176247  1
  Cl  Cl472  1  0.75447047  0.39392490  0.88927910  1
  Cl  Cl473  1  0.74607162  0.71955684  0.87550276  1
  Cl  Cl474  1  0.24763322  0.27842924  0.39704553  1
  Cl  Cl475  1  0.25351076  0.61422768  0.38528898  1
  Cl  Cl476  1  0.24516201  0.95204083  0.39170517  1
  Cl  Cl477  1  0.75420833  0.26991031  0.39271053  1
  Cl  Cl478  1  0.75164314  0.61346627  0.37971326  1
  Cl  Cl479  1  0.74925794  0.94959312  0.38166135  1
  Cl  Cl480  1  -0.00213628  0.22986341  0.59733320  1
  Cl  Cl481  1  -0.00498147  0.55633817  0.61422263  1
  Cl  Cl482  1  0.00429470  0.88445432  0.61642547  1
  Cl  Cl483  1  0.49964077  0.21575497  0.62576232  1
  Cl  Cl484  1  0.49916190  0.55141565  0.61356950  1
  Cl  Cl485  1  0.50073808  0.88382631  0.62505935  1
  Cl  Cl486  1  -0.01323359  0.11226850  0.11629654  1
  Cl  Cl487  1  -0.00396062  0.44129164  0.10561473  1
  Cl  Cl488  1  0.00664094  0.77424368  0.11420403  1
  Cl  Cl489  1  0.49127221  0.11051596  0.12263747  1
  Cl  Cl490  1  0.49817196  0.44474904  0.12626525  1
  Cl  Cl491  1  0.50666598  0.78326325  0.11742679  1
  Cl  Cl492  1  0.00747849  0.21967065  0.86969191  1
  Cl  Cl493  1  -0.00610947  0.54907756  0.88223292  1
  Cl  Cl494  1  0.00678696  0.88313220  0.87895575  1
  Cl  Cl495  1  0.50700327  0.22528880  0.89128384  1
  Cl  Cl496  1  0.49835895  0.55142988  0.87891210  1
  Cl  Cl497  1  0.50577315  0.89103649  0.89442145  1
  Cl  Cl498  1  0.00332583  0.11223316  0.38668429  1
  Cl  Cl499  1  0.01154973  0.44411012  0.38010897  1
  Cl  Cl500  1  -0.00830410  0.77228120  0.39310479  1
  Cl  Cl501  1  0.50034841  0.10785307  0.39294758  1
  Cl  Cl502  1  0.50851719  0.44137584  0.39391320  1
  Cl  Cl503  1  0.49144960  0.77802833  0.38076582  1
  Cl  Cl504  1  0.36168755  0.14598081  0.74110600  1
  Cl  Cl505  1  0.35636731  0.47749603  0.74939200  1
  Cl  Cl506  1  0.36253384  0.81347810  0.75052478  1
  Cl  Cl507  1  0.86095752  0.14718872  0.74890564  1
  Cl  Cl508  1  0.85687875  0.47871890  0.74510227  1
  Cl  Cl509  1  0.86444491  0.81385295  0.75312129  1
  Cl  Cl510  1  0.13968307  0.18628311  0.25986959  1
  Cl  Cl511  1  0.14132330  0.51843342  0.24442289  1
  Cl  Cl512  1  0.14042257  0.84957189  0.25768735  1
  Cl  Cl513  1  0.63658664  0.18608865  0.25095467  1
  Cl  Cl514  1  0.64204433  0.51772011  0.24660055  1
  Cl  Cl515  1  0.63671565  0.85389775  0.25369486  1
  Cl  Cl516  1  0.13837439  0.14487928  0.74425883  1
  Cl  Cl517  1  0.13688638  0.48065162  0.74729466  1
  Cl  Cl518  1  0.14027120  0.81262843  0.74516370  1
  Cl  Cl519  1  0.63921592  0.14731893  0.74982314  1
  Cl  Cl520  1  0.63741719  0.48129685  0.75213418  1
  Cl  Cl521  1  0.64319290  0.81555696  0.74968944  1
  Cl  Cl522  1  0.35917365  0.18638322  0.25388378  1
  Cl  Cl523  1  0.36125071  0.51779551  0.25381539  1
  Cl  Cl524  1  0.36136201  0.85302127  0.24750098  1
  Cl  Cl525  1  0.85856328  0.18535659  0.25340580  1
  Cl  Cl526  1  0.86353286  0.51966626  0.25461518  1
  Cl  Cl527  1  0.85587947  0.85331258  0.24697185  1
  Cl  Cl528  1  0.10531456  0.31321839  0.75044484  1
  Cl  Cl529  1  0.10846943  0.64865393  0.74699711  1
  Cl  Cl530  1  0.11460519  0.98066958  0.75045743  1
  Cl  Cl531  1  0.60282027  0.31400204  0.74948118  1
  Cl  Cl532  1  0.61133099  0.64725747  0.74872131  1
  Cl  Cl533  1  0.61095289  0.98144109  0.75344063  1
  Cl  Cl534  1  0.38448510  0.02045596  0.25114626  1
  Cl  Cl535  1  0.38989273  0.35299311  0.25185130  1
  Cl  Cl536  1  0.39209979  0.68461884  0.24912762  1
  Cl  Cl537  1  0.88715886  0.02080614  0.25514127  1
  Cl  Cl538  1  0.88827815  0.35335627  0.24984459  1
  Cl  Cl539  1  0.88776744  0.68653610  0.24929014  1
  Cl  Cl540  1  0.38311183  0.31148403  0.74808675  1
  Cl  Cl541  1  0.38936769  0.64647579  0.74929188  1
  Cl  Cl542  1  0.39129699  0.97950061  0.74627969  1
  Cl  Cl543  1  0.88503891  0.31144082  0.74520648  1
  Cl  Cl544  1  0.88863537  0.64734199  0.75387207  1
  Cl  Cl545  1  0.89113150  0.98069511  0.74957239  1
  Cl  Cl546  1  0.10960652  0.01969351  0.25072842  1
  Cl  Cl547  1  0.10883618  0.35059666  0.25327579  1
  Cl  Cl548  1  0.10450346  0.68604752  0.25154723  1
  Cl  Cl549  1  0.60437454  0.02034262  0.25240692  1
  Cl  Cl550  1  0.61199005  0.35256138  0.25858983  1
  Cl  Cl551  1  0.61355486  0.68711053  0.25242522  1
