# generated using pymatgen
data_H8PbC4(N3Cl2)2
_symmetry_space_group_name_H-M   'P 1'
_cell_length_a   16.63433359
_cell_length_b   22.51819867
_cell_length_c   21.59727445
_cell_angle_alpha   89.99925812
_cell_angle_beta   90.00275865
_cell_angle_gamma   89.99242212
_symmetry_Int_Tables_number   1
_chemical_formula_structural   H8PbC4(N3Cl2)2
_chemical_formula_sum   'H192 Pb24 C96 N144 Cl96'
_cell_volume   8089.80392893
_cell_formula_units_Z   24
loop_
 _symmetry_equiv_pos_site_id
 _symmetry_equiv_pos_as_xyz
  1  'x, y, z'
loop_
 _atom_site_type_symbol
 _atom_site_label
 _atom_site_symmetry_multiplicity
 _atom_site_fract_x
 _atom_site_fract_y
 _atom_site_fract_z
 _atom_site_occupancy
  H  H0  1  -0.01229634  0.02812592  0.67803736  1
  H  H1  1  -0.01511330  0.36198758  0.68162146  1
  H  H2  1  -0.00428097  0.69597457  0.67993499  1
  H  H3  1  0.52193231  0.03054287  0.67626520  1
  H  H4  1  0.51016266  0.36529162  0.67779154  1
  H  H5  1  0.49651988  0.69693805  0.68253523  1
  H  H6  1  0.00765005  0.30811642  0.17550762  1
  H  H7  1  0.00277317  0.63604607  0.17775703  1
  H  H8  1  -0.01154678  0.96895800  0.17584423  1
  H  H9  1  0.49589195  0.30559828  0.18041317  1
  H  H10  1  0.48695329  0.63911197  0.17849550  1
  H  H11  1  0.51519244  0.96914078  0.17940658  1
  H  H12  1  0.00021717  0.03335561  0.81420230  1
  H  H13  1  0.00391381  0.36040993  0.82613730  1
  H  H14  1  0.00754205  0.69282820  0.82108047  1
  H  H15  1  0.49703988  0.02880408  0.81987399  1
  H  H16  1  0.49813647  0.36394298  0.81944279  1
  H  H17  1  0.48824199  0.69658772  0.82195544  1
  H  H18  1  -0.01272327  0.30017127  0.32165395  1
  H  H19  1  -0.01095544  0.64091535  0.32117036  1
  H  H20  1  0.00410374  0.97236127  0.32269624  1
  H  H21  1  0.50709839  0.30296534  0.31978312  1
  H  H22  1  0.49671887  0.63509824  0.32100592  1
  H  H23  1  0.49631026  0.97384217  0.32418889  1
  H  H24  1  0.25981881  0.19318561  0.67966645  1
  H  H25  1  0.25298019  0.52947064  0.68107923  1
  H  H26  1  0.25621234  0.86190776  0.67841445  1
  H  H27  1  0.74522656  0.19543803  0.68040347  1
  H  H28  1  0.75368341  0.53136843  0.67802164  1
  H  H29  1  0.74227817  0.86381119  0.67904098  1
  H  H30  1  0.23275114  0.13767404  0.17662714  1
  H  H31  1  0.24981771  0.47342454  0.17156625  1
  H  H32  1  0.24698645  0.80593422  0.17863239  1
  H  H33  1  0.76776092  0.13747014  0.17802724  1
  H  H34  1  0.75885968  0.47549428  0.17836235  1
  H  H35  1  0.75223590  0.80187957  0.18002586  1
  H  H36  1  0.26418347  0.19804599  0.81864615  1
  H  H37  1  0.23602220  0.52611506  0.82261706  1
  H  H38  1  0.25198328  0.86405830  0.82771454  1
  H  H39  1  0.73687308  0.19952211  0.82195180  1
  H  H40  1  0.76604440  0.52921656  0.82399278  1
  H  H41  1  0.74691297  0.85821629  0.81867660  1
  H  H42  1  0.25769699  0.14022205  0.32591724  1
  H  H43  1  0.23783254  0.46872903  0.32108188  1
  H  H44  1  0.25084718  0.80287833  0.31779576  1
  H  H45  1  0.74940758  0.13416989  0.31952340  1
  H  H46  1  0.76349155  0.46350274  0.31536567  1
  H  H47  1  0.74588550  0.80932220  0.32181698  1
  H  H48  1  0.13007680  0.04537024  0.63027961  1
  H  H49  1  0.11612082  0.38758254  0.62008434  1
  H  H50  1  0.12148250  0.72115388  0.61028107  1
  H  H51  1  0.63407063  0.05854770  0.59724946  1
  H  H52  1  0.61508580  0.39072059  0.59409005  1
  H  H53  1  0.62276574  0.72225964  0.61213708  1
  H  H54  1  0.37141510  0.28373682  0.10968864  1
  H  H55  1  0.37686289  0.60839454  0.09748512  1
  H  H56  1  0.37501533  0.94966562  0.12423295  1
  H  H57  1  0.87229026  0.28280615  0.11665607  1
  H  H58  1  0.87980840  0.60962547  0.10762942  1
  H  H59  1  0.88336649  0.93904594  0.09172564  1
  H  H60  1  0.37326669  0.05272105  0.89077046  1
  H  H61  1  0.37699420  0.38859731  0.89478799  1
  H  H62  1  0.37035949  0.72388035  0.89657375  1
  H  H63  1  0.87533288  0.05412576  0.88340005  1
  H  H64  1  0.87583582  0.38940113  0.89047831  1
  H  H65  1  0.86864875  0.71396429  0.87657404  1
  H  H66  1  0.11956106  0.28136216  0.38152920  1
  H  H67  1  0.12879235  0.61672008  0.37213662  1
  H  H68  1  0.12664326  0.94511788  0.39443875  1
  H  H69  1  0.61934473  0.27510320  0.39894913  1
  H  H70  1  0.63377347  0.61426221  0.37851089  1
  H  H71  1  0.63333043  0.94930221  0.37834576  1
  H  H72  1  0.37629079  0.22212402  0.60227220  1
  H  H73  1  0.36594998  0.55799359  0.60189511  1
  H  H74  1  0.36490705  0.89302800  0.59556231  1
  H  H75  1  0.87768934  0.21747167  0.61539063  1
  H  H76  1  0.86028245  0.56116788  0.59501513  1
  H  H77  1  0.86995563  0.88721754  0.61017080  1
  H  H78  1  0.13279631  0.10421931  0.09080369  1
  H  H79  1  0.12234758  0.45030989  0.10726857  1
  H  H80  1  0.13407173  0.77901359  0.09936812  1
  H  H81  1  0.62624967  0.11758479  0.12878279  1
  H  H82  1  0.62767669  0.44957206  0.11284904  1
  H  H83  1  0.63391633  0.77565249  0.10370986  1
  H  H84  1  0.12574141  0.21782728  0.87654403  1
  H  H85  1  0.11637111  0.55283402  0.89860644  1
  H  H86  1  0.12413978  0.88543718  0.89204040  1
  H  H87  1  0.63264311  0.22640193  0.90603074  1
  H  H88  1  0.62668651  0.54706828  0.87308914  1
  H  H89  1  0.62175099  0.88610805  0.88811394  1
  H  H90  1  0.37020846  0.10747249  0.40479166  1
  H  H91  1  0.37716629  0.44885738  0.37705216  1
  H  H92  1  0.37448355  0.78153821  0.38792670  1
  H  H93  1  0.86608916  0.11264170  0.39424717  1
  H  H94  1  0.87969030  0.44529570  0.39315842  1
  H  H95  1  0.87511428  0.78482861  0.38584187  1
  H  H96  1  0.37158876  0.28117587  0.38027646  1
  H  H97  1  0.38679657  0.61035872  0.40275701  1
  H  H98  1  0.38712996  0.94370962  0.40569972  1
  H  H99  1  0.87164463  0.27525340  0.39881929  1
  H  H100  1  0.88602260  0.61079297  0.40786448  1
  H  H101  1  0.87836378  0.94596439  0.38975251  1
  H  H102  1  0.12482870  0.05032867  0.88471775  1
  H  H103  1  0.12447028  0.38842377  0.89842582  1
  H  H104  1  0.11550973  0.72272290  0.90177474  1
  H  H105  1  0.62205531  0.05609940  0.88986977  1
  H  H106  1  0.62603844  0.38880972  0.88517428  1
  H  H107  1  0.61872076  0.71585097  0.88401849  1
  H  H108  1  0.11849905  0.27911128  0.09338499  1
  H  H109  1  0.12865104  0.61028167  0.10909383  1
  H  H110  1  0.12832804  0.94825687  0.12365862  1
  H  H111  1  0.62096398  0.27732574  0.11175612  1
  H  H112  1  0.62291745  0.61757749  0.11938504  1
  H  H113  1  0.62078988  0.94197102  0.09485649  1
  H  H114  1  0.38666227  0.05270733  0.61684801  1
  H  H115  1  0.37009390  0.38178499  0.62643347  1
  H  H116  1  0.37469147  0.72214696  0.60871061  1
  H  H117  1  0.88678332  0.05618142  0.59325906  1
  H  H118  1  0.86787212  0.38492148  0.60319837  1
  H  H119  1  0.87304891  0.72232401  0.60999564  1
  H  H120  1  0.12352655  0.11644737  0.38565222  1
  H  H121  1  0.13089735  0.43978288  0.40369851  1
  H  H122  1  0.12522309  0.78338080  0.38663097  1
  H  H123  1  0.61744219  0.11238339  0.38253799  1
  H  H124  1  0.63096196  0.44734214  0.37754439  1
  H  H125  1  0.62567105  0.78087769  0.39512180  1
  H  H126  1  0.37249986  0.22514966  0.90074693  1
  H  H127  1  0.36475965  0.55367122  0.88887309  1
  H  H128  1  0.37192839  0.88873213  0.89832603  1
  H  H129  1  0.87815202  0.21893298  0.87397445  1
  H  H130  1  0.86993183  0.55565143  0.90834395  1
  H  H131  1  0.87104679  0.88554367  0.88629615  1
  H  H132  1  0.37549871  0.11872282  0.12902585  1
  H  H133  1  0.37116054  0.44820674  0.10162178  1
  H  H134  1  0.38175398  0.78198664  0.11764773  1
  H  H135  1  0.87005938  0.10582992  0.09308773  1
  H  H136  1  0.87589689  0.44751910  0.10187743  1
  H  H137  1  0.88199624  0.77849101  0.11264163  1
  H  H138  1  0.12861035  0.21783658  0.61458562  1
  H  H139  1  0.11891778  0.55344414  0.62376948  1
  H  H140  1  0.11911079  0.88444851  0.62159416  1
  H  H141  1  0.62903384  0.22078738  0.60347510  1
  H  H142  1  0.61438323  0.55156967  0.62450631  1
  H  H143  1  0.62169453  0.89215512  0.60485512  1
  H  H144  1  0.30019035  0.25704677  1.00364481  1
  H  H145  1  0.20443970  0.40846421  0.50633089  1
  H  H146  1  0.58326943  0.42075944  0.99460405  1
  H  H147  1  0.83966337  0.75444378  0.49661272  1
  H  H148  1  0.16657588  0.75495426  0.49761834  1
  H  H149  1  0.82157208  0.42971553  0.50468176  1
  H  H150  1  0.57232687  0.25624391  0.00412827  1
  H  H151  1  0.04665024  0.75036569  1.00708882  1
  H  H152  1  0.33009757  0.75163960  0.49789029  1
  H  H153  1  0.63985048  0.57886609  -0.01121275  1
  H  H154  1  0.08014452  0.07447739  0.99712711  1
  H  H155  1  0.08117829  0.41456619  0.50687608  1
  H  H156  1  0.45934140  0.91655779  0.50611920  1
  H  H157  1  0.45474675  0.58444840  0.50884695  1
  H  H158  1  0.68019011  0.75600961  0.49917958  1
  H  H159  1  0.79186377  0.08719238  -0.00698045  1
  H  H160  1  0.61062934  0.58830013  0.48955759  1
  H  H161  1  0.93142516  0.39323940  0.49756767  1
  H  H162  1  0.96209459  0.08267179  0.48956937  1
  H  H163  1  0.58491244  0.74673556  0.99773838  1
  H  H164  1  0.66300595  0.41975414  0.49154401  1
  H  H165  1  0.20030263  0.75086191  -0.00614193  1
  H  H166  1  0.54221781  0.41657562  0.48856079  1
  H  H167  1  0.08995844  0.24957280  0.49535512  1
  H  H168  1  0.96008245  0.91291532  -0.00767959  1
  H  H169  1  0.85939367  0.24923340  0.98279978  1
  H  H170  1  0.28954597  0.91918866  0.49606930  1
  H  H171  1  0.54456671  0.91564776  -0.00842024  1
  H  H172  1  0.30329836  0.08589226  0.50667276  1
  H  H173  1  0.89274009  0.74084228  0.98552658  1
  H  H174  1  0.21302353  0.08188684  -0.00720129  1
  H  H175  1  0.92035275  0.07778282  0.99653408  1
  H  H176  1  0.69150924  0.24730637  0.49570635  1
  H  H177  1  0.12047384  0.07396084  0.51646460  1
  H  H178  1  0.44746265  0.58538786  -0.00363234  1
  H  H179  1  0.63985079  0.08403790  0.01618590  1
  H  H180  1  0.70689664  0.25562481  1.00964008  1
  H  H181  1  0.36616012  0.08338369  0.01644227  1
  H  H182  1  0.82540205  0.91706889  0.99620705  1
  H  H183  1  0.41904347  0.25487994  -0.00059020  1
  H  H184  1  0.30051568  0.58273256  0.49951375  1
  H  H185  1  0.67314735  0.90396915  0.99608923  1
  H  H186  1  0.80941698  0.08362193  0.50496369  1
  H  H187  1  0.96709331  0.58418854  0.50518440  1
  H  H188  1  0.14662965  0.58305023  0.51035783  1
  H  H189  1  0.38491471  0.40928623  0.51175688  1
  H  H190  1  0.78680746  0.58703490  0.49458929  1
  H  H191  1  0.55169595  0.24461920  0.50399283  1
  Pb  Pb192  1  0.25147830  0.04575829  0.75457210  1
  Pb  Pb193  1  0.24363529  0.38049819  0.75332923  1
  Pb  Pb194  1  0.24229933  0.71779462  0.75136213  1
  Pb  Pb195  1  0.74520901  0.05078322  0.74790280  1
  Pb  Pb196  1  0.74642752  0.38118919  0.74232941  1
  Pb  Pb197  1  0.74698184  0.71302866  0.74206270  1
  Pb  Pb198  1  0.25097821  0.28724781  0.24335828  1
  Pb  Pb199  1  0.26016390  0.61579245  0.25464585  1
  Pb  Pb200  1  0.25733326  0.95075605  0.26217891  1
  Pb  Pb201  1  0.75410894  0.28234263  0.25369113  1
  Pb  Pb202  1  0.75854509  0.61763912  0.25595853  1
  Pb  Pb203  1  0.75344048  0.95363666  0.23689395  1
  Pb  Pb204  1  -0.00032307  0.21305033  0.74574422  1
  Pb  Pb205  1  -0.00560103  0.54735399  0.75028691  1
  Pb  Pb206  1  -0.00642368  0.88273247  0.75643491  1
  Pb  Pb207  1  0.49466770  0.21740166  0.75374673  1
  Pb  Pb208  1  0.49197742  0.54850089  0.75212372  1
  Pb  Pb209  1  0.49734076  0.88105590  0.74483546  1
  Pb  Pb210  1  0.00678672  0.11678090  0.24175871  1
  Pb  Pb211  1  0.00645090  0.45024868  0.25856213  1
  Pb  Pb212  1  0.00550307  0.78560791  0.24568875  1
  Pb  Pb213  1  0.49817515  0.11968338  0.25568095  1
  Pb  Pb214  1  0.50621057  0.45039574  0.24587075  1
  Pb  Pb215  1  0.50825196  0.78508538  0.25004375  1
  C  C216  1  0.00220954  0.04274374  0.63146410  1
  C  C217  1  -0.01094443  0.37692987  0.63380772  1
  C  C218  1  -0.00295665  0.71261901  0.63308666  1
  C  C219  1  0.51397690  0.04653596  0.62950219  1
  C  C220  1  0.49789628  0.37915195  0.63059428  1
  C  C221  1  0.49819079  0.71334499  0.63528706  1
  C  C222  1  -0.00040919  0.29079070  0.12898423  1
  C  C223  1  0.00395583  0.61952246  0.13083361  1
  C  C224  1  -0.00025962  0.95314878  0.12927795  1
  C  C225  1  0.49665801  0.28987081  0.13277723  1
  C  C226  1  0.49516653  0.62307298  0.13156161  1
  C  C227  1  0.50348694  0.95396687  0.13254961  1
  C  C228  1  0.00007450  0.04578683  0.86277110  1
  C  C229  1  0.00121297  0.37908263  0.87215197  1
  C  C230  1  -0.00351579  0.70873921  0.86790592  1
  C  C231  1  0.49778056  0.04543340  0.86684839  1
  C  C232  1  0.50014289  0.38032355  0.86664874  1
  C  C233  1  0.49312515  0.71190013  0.86930472  1
  C  C234  1  -0.00641330  0.28570747  0.36922223  1
  C  C235  1  0.00115534  0.62379892  0.36717682  1
  C  C236  1  0.00344952  0.95498477  0.36931486  1
  C  C237  1  0.49912360  0.28684718  0.36673167  1
  C  C238  1  0.50674535  0.62117198  0.36860588  1
  C  C239  1  0.50531540  0.95687802  0.37055305  1
  C  C240  1  0.25504065  0.21026531  0.63283601  1
  C  C241  1  0.24597760  0.54584913  0.63402667  1
  C  C242  1  0.24726452  0.87849367  0.63178378  1
  C  C243  1  0.75089359  0.21116803  0.63308268  1
  C  C244  1  0.74295042  0.54664170  0.63105261  1
  C  C245  1  0.74441799  0.88047028  0.63195205  1
  C  C246  1  0.24698450  0.12153039  0.13033691  1
  C  C247  1  0.24773658  0.45708794  0.12416818  1
  C  C248  1  0.25443393  0.78943638  0.13176212  1
  C  C249  1  0.75477013  0.12143320  0.13152522  1
  C  C250  1  0.75401461  0.45825162  0.13158236  1
  C  C251  1  0.75629951  0.78589930  0.13258922  1
  C  C252  1  0.25396893  0.21326455  0.86559066  1
  C  C253  1  0.23910508  0.54250003  0.86978829  1
  C  C254  1  0.24922624  0.87963907  0.87508603  1
  C  C255  1  0.75002851  0.21491776  0.86862551  1
  C  C256  1  0.75309453  0.54369266  0.87077767  1
  C  C257  1  0.74580108  0.87529119  0.86572624  1
  C  C258  1  0.25082030  0.12225731  0.37214537  1
  C  C259  1  0.24888926  0.45290694  0.36771868  1
  C  C260  1  0.25011586  0.78842444  0.36583861  1
  C  C261  1  0.74449160  0.11996270  0.36726463  1
  C  C262  1  0.75776825  0.45134455  0.36382475  1
  C  C263  1  0.74848182  0.79152276  0.36860078  1
  C  C264  1  0.23173371  0.76089909  0.03681545  1
  C  C265  1  0.72431230  0.23763032  0.53819592  1
  C  C266  1  0.45999658  0.07291046  0.96010549  1
  C  C267  1  0.69343714  0.09455801  0.45762887  1
  C  C268  1  0.78797969  0.43248132  0.46162355  1
  C  C269  1  0.76985146  0.57196771  0.96773492  1
  C  C270  1  0.95904617  0.06850627  0.95718446  1
  C  C271  1  0.20370553  0.42839411  0.03437954  1
  C  C272  1  0.46023657  0.74062117  0.96369937  1
  C  C273  1  0.95987463  0.74426973  0.54134401  1
  C  C274  1  0.79599174  0.76326967  0.45922289  1
  C  C275  1  0.96397148  0.92244058  0.45953202  1
  C  C276  1  0.20773441  0.76370443  0.45957594  1
  C  C277  1  0.19075638  0.57434866  0.54640643  1
  C  C278  1  0.53698370  0.07796178  0.53549230  1
  C  C279  1  0.45606340  0.26269100  0.04005327  1
  C  C280  1  0.78742391  0.90597192  0.95686587  1
  C  C281  1  0.68955454  0.56928695  0.95727738  1
  C  C282  1  0.43415616  0.40168010  0.54413073  1
  C  C283  1  0.51450431  0.40503402  0.53254348  1
  C  C284  1  0.06940157  0.06563753  0.54671184  1
  C  C285  1  0.06415376  0.92361726  0.04418700  1
  C  C286  1  0.96362574  0.25815098  0.46450942  1
  C  C287  1  0.77461977  0.09402534  0.46367941  1
  C  C288  1  0.03376669  0.41409052  0.96303796  1
  C  C289  1  0.31496699  0.09174172  0.04841126  1
  C  C290  1  0.28428294  0.90815148  0.96777879  1
  C  C291  1  0.28991127  0.76241056  0.45985218  1
  C  C292  1  0.54214143  0.40920049  0.95733676  1
  C  C293  1  0.28382062  0.42758118  0.03249116  1
  C  C294  1  0.96827615  0.58789956  0.03944331  1
  C  C295  1  0.04110000  0.06681984  0.95760844  1
  C  C296  1  0.23212406  0.42190188  0.46263906  1
  C  C297  1  0.98945856  0.06985330  0.53335557  1
  C  C298  1  0.04497885  0.25955851  0.46017789  1
  C  C299  1  0.03942912  0.40382224  0.54401276  1
  C  C300  1  0.01752658  0.73830879  0.96375387  1
  C  C301  1  0.54160598  0.73806780  0.96119579  1
  C  C302  1  0.56536714  0.92468620  0.45597758  1
  C  C303  1  0.52094031  0.25679375  0.46131984  1
  C  C304  1  0.51777386  0.92609871  0.03627538  1
  C  C305  1  0.27164138  0.24319102  0.96067202  1
  C  C306  1  0.48439432  0.59484276  0.46519692  1
  C  C307  1  0.20326278  0.90725549  0.96566360  1
  C  C308  1  0.68918383  0.09292171  0.04825211  1
  C  C309  1  0.70638697  0.43040433  0.45566240  1
  C  C310  1  0.73342715  0.24420404  0.96512683  1
  C  C311  1  0.68087893  0.57409910  0.54495238  1
  N  N312  1  0.95987962  0.40197719  0.53867872  1
  N  N313  1  0.75906971  0.57705577  0.53630207  1
  N  N314  1  0.20706138  0.57281702  0.96358453  1
  N  N315  1  0.98950906  0.59116703  0.46053390  1
  N  N316  1  0.02172142  0.25823792  0.03440403  1
  N  N317  1  0.46209557  0.74160069  0.54144010  1
  N  N318  1  0.70776564  0.42679836  0.04169402  1
  N  N319  1  0.31032659  0.76083228  0.04315707  1
  N  N320  1  0.45984940  0.07592694  0.54035940  1
  N  N321  1  0.55294766  0.59716320  0.04399176  1
  N  N322  1  0.80326008  0.23715097  0.54248393  1
  N  N323  1  0.27344151  0.09327368  0.46562575  1
  N  N324  1  0.95633110  0.41475317  0.96180181  1
  N  N325  1  0.04545384  0.58878481  0.03838697  1
  N  N326  1  0.78398681  0.42618566  0.03793164  1
  N  N327  1  0.19595972  0.09534879  0.46007422  1
  N  N328  1  0.71625081  0.76032989  0.46086199  1
  N  N329  1  0.03781311  0.74349891  0.54014454  1
  N  N330  1  0.43979691  0.92762330  0.04638297  1
  N  N331  1  0.28379873  0.24181058  0.53872190  1
  N  N332  1  0.72461097  0.75660228  0.03835697  1
  N  N333  1  0.20770425  0.24042077  0.54280440  1
  N  N334  1  0.80120071  0.75717271  0.04152915  1
  N  N335  1  0.31009462  0.42469322  0.45358202  1
  N  N336  1  0.56304586  0.59613791  0.45596423  1
  N  N337  1  0.93905001  0.73553243  0.95392062  1
  N  N338  1  0.53897162  0.74203932  0.54272055  1
  N  N339  1  0.04114505  0.92203009  0.46222628  1
  N  N340  1  0.46286217  0.40883149  0.96089159  1
  N  N341  1  0.70768048  0.90558391  0.95687041  1
  N  N342  1  0.76738592  0.08943937  0.03670640  1
  N  N343  1  0.19339300  0.24043359  0.95267948  1
  N  N344  1  0.18693200  0.90803785  0.54643097  1
  N  N345  1  0.44231344  0.25816187  0.45498880  1
  N  N346  1  0.06605987  0.59367113  0.45012176  1
  N  N347  1  0.94587497  0.26030501  0.04155996  1
  N  N348  1  0.98611799  0.92165652  0.03463506  1
  N  N349  1  0.23694801  0.08658480  0.03650342  1
  N  N350  1  0.53544968  0.25939171  0.04192023  1
  N  N351  1  0.26981156  0.57678999  0.54044815  1
  N  N352  1  0.28306474  0.57309213  0.96047194  1
  N  N353  1  0.78675079  0.90932533  0.54009967  1
  N  N354  1  0.48723897  0.92412375  0.46414695  1
  N  N355  1  0.53770751  0.07435426  0.96088614  1
  N  N356  1  0.47563771  0.59237159  0.03827936  1
  N  N357  1  0.26407856  0.91051059  0.53898838  1
  N  N358  1  0.81134589  0.24257335  0.95270988  1
  N  N359  1  0.71069589  0.91125149  0.53862927  1
  N  N360  1  0.07581838  0.04918916  0.60744452  1
  N  N361  1  0.05738867  0.39038247  0.60320945  1
  N  N362  1  0.06085531  0.72345233  0.59855078  1
  N  N363  1  0.57282769  0.06031822  0.58881073  1
  N  N364  1  0.55323253  0.39080143  0.58691852  1
  N  N365  1  0.56216913  0.72494568  0.60091953  1
  N  N366  1  0.43156821  0.28011718  0.09680797  1
  N  N367  1  0.43876932  0.61098144  0.09028373  1
  N  N368  1  0.43274547  0.94482548  0.10605807  1
  N  N369  1  0.93072984  0.28016258  0.10028404  1
  N  N370  1  0.93973497  0.60670596  0.09496410  1
  N  N371  1  0.94528141  0.94178969  0.08618820  1
  N  N372  1  0.43339601  0.05589434  0.90307659  1
  N  N373  1  0.43856467  0.39110526  0.90400012  1
  N  N374  1  0.43095457  0.72518229  0.90828103  1
  N  N375  1  0.93484366  0.05533750  0.89799508  1
  N  N376  1  0.93589849  0.39281158  0.90387681  1
  N  N377  1  0.92635571  0.71589360  0.89545552  1
  N  N378  1  0.06215407  0.27688959  0.39976556  1
  N  N379  1  0.07280085  0.61201229  0.39139064  1
  N  N380  1  0.06611503  0.94260861  0.40457367  1
  N  N381  1  0.55758779  0.27418769  0.40750928  1
  N  N382  1  0.57640787  0.61343109  0.39675369  1
  N  N383  1  0.57677103  0.94431383  0.39790141  1
  N  N384  1  0.31469124  0.22327771  0.59442404  1
  N  N385  1  0.30386197  0.55649987  0.59361651  1
  N  N386  1  0.30271287  0.89085660  0.58979935  1
  N  N387  1  0.81799337  0.22075743  0.60157432  1
  N  N388  1  0.79786263  0.55817771  0.58872927  1
  N  N389  1  0.80931517  0.89037016  0.59787459  1
  N  N390  1  0.19486509  0.10890182  0.08583129  1
  N  N391  1  0.18074817  0.44595879  0.09042912  1
  N  N392  1  0.19567210  0.77766931  0.09102568  1
  N  N393  1  0.68150892  0.11097467  0.10747370  1
  N  N394  1  0.68791633  0.44623080  0.09998569  1
  N  N395  1  0.69573636  0.77439695  0.09454900  1
  N  N396  1  0.18411361  0.22223213  0.89344883  1
  N  N397  1  0.17807290  0.55355957  0.90762562  1
  N  N398  1  0.18218690  0.89016143  0.90870155  1
  N  N399  1  0.69481779  0.22715537  0.91288109  1
  N  N400  1  0.68066509  0.55174136  0.89582812  1
  N  N401  1  0.68220715  0.88297085  0.90153203  1
  N  N402  1  0.30851664  0.11032433  0.41253296  1
  N  N403  1  0.31925103  0.44374130  0.39442026  1
  N  N404  1  0.31470445  0.77761512  0.40122545  1
  N  N405  1  0.80555275  0.11008392  0.40613327  1
  N  N406  1  0.81882028  0.44504071  0.40400371  1
  N  N407  1  0.81589033  0.78082842  0.40137158  1
  N  N408  1  0.43056504  0.27671846  0.39607532  1
  N  N409  1  0.44907384  0.61019882  0.41108601  1
  N  N410  1  0.44917074  0.94582333  0.41233707  1
  N  N411  1  0.93261172  0.27379852  0.40971613  1
  N  N412  1  0.94864095  0.61206139  0.41146458  1
  N  N413  1  0.93791050  0.94248513  0.40376583  1
  N  N414  1  0.06520058  0.05249854  0.89874112  1
  N  N415  1  0.06404515  0.39260910  0.90913584  1
  N  N416  1  0.05349084  0.72255431  0.91010658  1
  N  N417  1  0.56124621  0.05721929  0.90128290  1
  N  N418  1  0.56651460  0.39209765  0.89970996  1
  N  N419  1  0.56074680  0.72032458  0.90121196  1
  N  N420  1  0.05636236  0.27743120  0.08827362  1
  N  N421  1  0.06814189  0.60889834  0.09657243  1
  N  N422  1  0.07247741  0.94230588  0.10308816  1
  N  N423  1  0.56062714  0.27921616  0.09818991  1
  N  N424  1  0.56472666  0.61397566  0.10265554  1
  N  N425  1  0.55873078  0.94189925  0.08895635  1
  N  N426  1  0.44552030  0.05608651  0.60036114  1
  N  N427  1  0.42525094  0.38613457  0.60492932  1
  N  N428  1  0.43592460  0.72398755  0.59853035  1
  N  N429  1  0.94879693  0.05534672  0.58672623  1
  N  N430  1  0.92929612  0.38151346  0.59362202  1
  N  N431  1  0.93288928  0.72571236  0.59745442  1
  N  N432  1  0.18210500  0.11256785  0.40174694  1
  N  N433  1  0.19293397  0.43936858  0.41032147  1
  N  N434  1  0.18463805  0.77956275  0.40091871  1
  N  N435  1  0.67579786  0.10992940  0.39935238  1
  N  N436  1  0.68897145  0.44232111  0.39475937  1
  N  N437  1  0.68714839  0.77924600  0.40532645  1
  N  N438  1  0.31074432  0.22603164  0.90783581  1
  N  N439  1  0.30447344  0.55410136  0.90245235  1
  N  N440  1  0.31233279  0.89156859  0.91265870  1
  N  N441  1  0.82125990  0.22430768  0.89342659  1
  N  N442  1  0.80807031  0.55664724  0.91567758  1
  N  N443  1  0.81115987  0.88921498  0.89982681  1
  N  N444  1  0.32079959  0.11171976  0.10716963  1
  N  N445  1  0.31167022  0.44466535  0.08733646  1
  N  N446  1  0.32280943  0.77878728  0.10219852  1
  N  N447  1  0.80800614  0.11063072  0.08730485  1
  N  N448  1  0.81412931  0.44579558  0.09332738  1
  N  N449  1  0.82203084  0.77529042  0.09986472  1
  N  N450  1  0.18852904  0.22117828  0.60113713  1
  N  N451  1  0.17564968  0.55663247  0.60498444  1
  N  N452  1  0.17692810  0.88924097  0.60457402  1
  N  N453  1  0.69038655  0.22245386  0.59362976  1
  N  N454  1  0.67036909  0.55601253  0.60414062  1
  N  N455  1  0.68277539  0.89323836  0.59547300  1
  Cl  Cl456  1  0.26298167  0.05791118  0.61851567  1
  Cl  Cl457  1  0.23890194  0.39000397  0.61826480  1
  Cl  Cl458  1  0.25003703  0.72185153  0.61552199  1
  Cl  Cl459  1  0.76308154  0.05951850  0.61421442  1
  Cl  Cl460  1  0.74168197  0.39287823  0.60624667  1
  Cl  Cl461  1  0.74664462  0.72244566  0.60475802  1
  Cl  Cl462  1  0.24575115  0.27947742  0.10716944  1
  Cl  Cl463  1  0.25626199  0.60714194  0.12273543  1
  Cl  Cl464  1  0.25085875  0.95429002  0.13206068  1
  Cl  Cl465  1  0.74444800  0.27424234  0.11581852  1
  Cl  Cl466  1  0.75130707  0.61332414  0.12555279  1
  Cl  Cl467  1  0.75046953  0.93903842  0.09679772  1
  Cl  Cl468  1  0.24869661  0.05786926  0.89210350  1
  Cl  Cl469  1  0.25188732  0.38574496  0.88528364  1
  Cl  Cl470  1  0.23906337  0.72570081  0.88628020  1
  Cl  Cl471  1  0.74982679  0.05926710  0.89009198  1
  Cl  Cl472  1  0.75022851  0.38465572  0.87344764  1
  Cl  Cl473  1  0.74543486  0.71837712  0.87191468  1
  Cl  Cl474  1  0.24707250  0.28234173  0.37233712  1
  Cl  Cl475  1  0.26600038  0.60600839  0.39568489  1
  Cl  Cl476  1  0.26384302  0.94190083  0.40063477  1
  Cl  Cl477  1  0.74351321  0.27497362  0.38658861  1
  Cl  Cl478  1  0.76613832  0.61049288  0.40022576  1
  Cl  Cl479  1  0.75703392  0.94841815  0.36720285  1
  Cl  Cl480  1  0.00407577  0.22030453  0.61232461  1
  Cl  Cl481  1  -0.01868395  0.56243132  0.60027106  1
  Cl  Cl482  1  -0.00820032  0.88433934  0.62587295  1
  Cl  Cl483  1  0.50423328  0.22134005  0.61810285  1
  Cl  Cl484  1  0.48686985  0.55749549  0.61489673  1
  Cl  Cl485  1  0.48831187  0.89607443  0.60313110  1
  Cl  Cl486  1  0.00101112  0.10279445  0.10471762  1
  Cl  Cl487  1  -0.00371133  0.45090363  0.12677246  1
  Cl  Cl488  1  0.00864960  0.77794801  0.10815881  1
  Cl  Cl489  1  0.50100918  0.11977663  0.12475646  1
  Cl  Cl490  1  0.50298369  0.44860894  0.11360463  1
  Cl  Cl491  1  0.51134239  0.77668753  0.11477358  1
  Cl  Cl492  1  0.00157551  0.21690697  0.87479513  1
  Cl  Cl493  1  -0.00628087  0.55590909  0.88246385  1
  Cl  Cl494  1  -0.00688026  0.88627325  0.89460422  1
  Cl  Cl495  1  0.50536657  0.22801728  0.89548140  1
  Cl  Cl496  1  0.48664561  0.56151276  0.88727615  1
  Cl  Cl497  1  0.50032955  0.89255201  0.87980025  1
  Cl  Cl498  1  -0.00577324  0.11420439  0.37654750  1
  Cl  Cl499  1  0.00533364  0.43907187  0.39722403  1
  Cl  Cl500  1  -0.00168657  0.78399664  0.37554465  1
  Cl  Cl501  1  0.49053684  0.10563744  0.38790649  1
  Cl  Cl502  1  0.50533923  0.45039739  0.37981074  1
  Cl  Cl503  1  0.50260406  0.78582668  0.38171192  1
  Cl  Cl504  1  0.36119492  0.14823443  0.75352148  1
  Cl  Cl505  1  0.35680449  0.48038607  0.74769338  1
  Cl  Cl506  1  0.36072621  0.81516676  0.75232906  1
  Cl  Cl507  1  0.86332706  0.14693674  0.75681803  1
  Cl  Cl508  1  0.85556169  0.48400691  0.74532326  1
  Cl  Cl509  1  0.85668131  0.81518742  0.75227130  1
  Cl  Cl510  1  0.14282737  0.18370190  0.25436550  1
  Cl  Cl511  1  0.14088208  0.51902180  0.25705685  1
  Cl  Cl512  1  0.13972675  0.85415451  0.25121965  1
  Cl  Cl513  1  0.63330451  0.18768189  0.24774774  1
  Cl  Cl514  1  0.63520671  0.52441338  0.25894662  1
  Cl  Cl515  1  0.64318620  0.85299768  0.24863683  1
  Cl  Cl516  1  0.13537334  0.14395650  0.75143731  1
  Cl  Cl517  1  0.13343806  0.48181365  0.74272604  1
  Cl  Cl518  1  0.14213368  0.81458279  0.74865993  1
  Cl  Cl519  1  0.64344977  0.14758805  0.75272541  1
  Cl  Cl520  1  0.63288950  0.48078123  0.75290941  1
  Cl  Cl521  1  0.63505043  0.81337990  0.74315359  1
  Cl  Cl522  1  0.36085403  0.18571974  0.24634095  1
  Cl  Cl523  1  0.35965302  0.51905509  0.25414585  1
  Cl  Cl524  1  0.35685699  0.85178584  0.24676715  1
  Cl  Cl525  1  0.85582486  0.18512957  0.24968845  1
  Cl  Cl526  1  0.85824290  0.52037073  0.25303803  1
  Cl  Cl527  1  0.86280231  0.85189249  0.24282332  1
  Cl  Cl528  1  0.10700626  0.31477957  0.74923953  1
  Cl  Cl529  1  0.10809824  0.64705391  0.74364679  1
  Cl  Cl530  1  0.11526365  0.97756971  0.74322580  1
  Cl  Cl531  1  0.60635594  0.31748118  0.74753047  1
  Cl  Cl532  1  0.61326380  0.64299842  0.74475267  1
  Cl  Cl533  1  0.61265169  0.98022523  0.75282496  1
  Cl  Cl534  1  0.39070730  0.01803885  0.24655999  1
  Cl  Cl535  1  0.38918531  0.35325056  0.25610659  1
  Cl  Cl536  1  0.39419116  0.68525778  0.25179202  1
  Cl  Cl537  1  0.89049677  0.01867888  0.24304354  1
  Cl  Cl538  1  0.88595745  0.35385991  0.25357787  1
  Cl  Cl539  1  0.89199362  0.68598541  0.24906225  1
  Cl  Cl540  1  0.38680987  0.31213700  0.74471678  1
  Cl  Cl541  1  0.39135249  0.64880520  0.75100421  1
  Cl  Cl542  1  0.39222550  0.98482269  0.74212789  1
  Cl  Cl543  1  0.88682817  0.31333409  0.75086852  1
  Cl  Cl544  1  0.88808847  0.65056380  0.74995858  1
  Cl  Cl545  1  0.89317953  0.98087253  0.75548544  1
  Cl  Cl546  1  0.10857745  0.01992138  0.25160539  1
  Cl  Cl547  1  0.10493300  0.35028785  0.25163652  1
  Cl  Cl548  1  0.11267639  0.68573799  0.25468754  1
  Cl  Cl549  1  0.61248971  0.02087373  0.25087597  1
  Cl  Cl550  1  0.60782173  0.35396119  0.24680982  1
  Cl  Cl551  1  0.61352810  0.68960883  0.25700473  1
