# generated using pymatgen
data_H8PbC4(N3Cl2)2
_symmetry_space_group_name_H-M   'P 1'
_cell_length_a   16.62267446
_cell_length_b   22.50276449
_cell_length_c   21.58814733
_cell_angle_alpha   90.00101059
_cell_angle_beta   89.99633452
_cell_angle_gamma   89.99966370
_symmetry_Int_Tables_number   1
_chemical_formula_structural   H8PbC4(N3Cl2)2
_chemical_formula_sum   'H192 Pb24 C96 N144 Cl96'
_cell_volume   8075.17879318
_cell_formula_units_Z   24
loop_
 _symmetry_equiv_pos_site_id
 _symmetry_equiv_pos_as_xyz
  1  'x, y, z'
loop_
 _atom_site_type_symbol
 _atom_site_label
 _atom_site_symmetry_multiplicity
 _atom_site_fract_x
 _atom_site_fract_y
 _atom_site_fract_z
 _atom_site_occupancy
  H  H0  1  0.00080546  0.03174268  0.68041530  1
  H  H1  1  0.00971030  0.36418242  0.67935159  1
  H  H2  1  0.00255527  0.69706605  0.68121208  1
  H  H3  1  0.50197543  0.03179460  0.68038086  1
  H  H4  1  0.49106405  0.36593461  0.68154069  1
  H  H5  1  0.49931893  0.69858064  0.68069525  1
  H  H6  1  -0.00155995  0.30228246  0.17896037  1
  H  H7  1  0.00206200  0.63282777  0.18343752  1
  H  H8  1  -0.00832541  0.96754408  0.17815846  1
  H  H9  1  0.50744031  0.30172127  0.18005899  1
  H  H10  1  0.49736821  0.63448448  0.17693727  1
  H  H11  1  0.51106435  0.96906625  0.17987316  1
  H  H12  1  0.00864449  0.03263466  0.81714942  1
  H  H13  1  -0.00994473  0.36433519  0.82172163  1
  H  H14  1  0.00555528  0.69712040  0.81734016  1
  H  H15  1  0.49652530  0.03050297  0.81886270  1
  H  H16  1  0.50628017  0.36671669  0.82164357  1
  H  H17  1  0.49242444  0.69638129  0.81927408  1
  H  H18  1  -0.00572138  0.30186036  0.32284883  1
  H  H19  1  -0.00259499  0.63570196  0.32059158  1
  H  H20  1  -0.00119243  0.96668644  0.31839954  1
  H  H21  1  0.50208823  0.30079984  0.31643015  1
  H  H22  1  0.50164861  0.63263612  0.32307878  1
  H  H23  1  0.50464925  0.96908903  0.32236138  1
  H  H24  1  0.25932177  0.20033810  0.67913623  1
  H  H25  1  0.25440380  0.53226747  0.67670461  1
  H  H26  1  0.24340879  0.86529885  0.67828534  1
  H  H27  1  0.74149716  0.19845429  0.67954849  1
  H  H28  1  0.74622807  0.53274530  0.68095065  1
  H  H29  1  0.75825123  0.86332443  0.67931261  1
  H  H30  1  0.24467685  0.13621100  0.17959798  1
  H  H31  1  0.24473675  0.46723410  0.17722347  1
  H  H32  1  0.24677632  0.80099063  0.18454454  1
  H  H33  1  0.75158581  0.13572143  0.18177243  1
  H  H34  1  0.75191272  0.46740140  0.18190754  1
  H  H35  1  0.76038873  0.80200969  0.18180727  1
  H  H36  1  0.24896544  0.19882306  0.82243982  1
  H  H37  1  0.24070066  0.53108377  0.82076108  1
  H  H38  1  0.25013080  0.86653392  0.81998216  1
  H  H39  1  0.74767478  0.19941598  0.81985073  1
  H  H40  1  0.76062157  0.53172982  0.81870403  1
  H  H41  1  0.75330570  0.86546172  0.82067339  1
  H  H42  1  0.24878914  0.13464122  0.32024386  1
  H  H43  1  0.25060295  0.46807126  0.31975814  1
  H  H44  1  0.25811711  0.80256652  0.31917852  1
  H  H45  1  0.74893368  0.13487071  0.31874705  1
  H  H46  1  0.74824978  0.46907980  0.32034047  1
  H  H47  1  0.74827008  0.80135707  0.31929961  1
  H  H48  1  0.12741260  0.05360158  0.61261769  1
  H  H49  1  0.12707765  0.39074843  0.60394290  1
  H  H50  1  0.12621018  0.72002855  0.60936390  1
  H  H51  1  0.62405596  0.05469526  0.60713686  1
  H  H52  1  0.62841894  0.38400231  0.62206448  1
  H  H53  1  0.63061942  0.71753455  0.61633722  1
  H  H54  1  0.37019770  0.28273680  0.12099288  1
  H  H55  1  0.37761658  0.60813593  0.10369232  1
  H  H56  1  0.37905040  0.94743729  0.11552763  1
  H  H57  1  0.87280383  0.27900405  0.10868432  1
  H  H58  1  0.87515192  0.61356442  0.11574310  1
  H  H59  1  0.88550607  0.94032180  0.09381676  1
  H  H60  1  0.37141132  0.05465253  0.88821909  1
  H  H61  1  0.37201848  0.38493852  0.88043001  1
  H  H62  1  0.37933092  0.72304577  0.89857734  1
  H  H63  1  0.87209004  0.05044056  0.87829894  1
  H  H64  1  0.87685183  0.38951143  0.90113804  1
  H  H65  1  0.87676541  0.72010815  0.88263191  1
  H  H66  1  0.12958049  0.28206196  0.38396381  1
  H  H67  1  0.12687147  0.61227321  0.38616052  1
  H  H68  1  0.12971421  0.94838386  0.38334640  1
  H  H69  1  0.62523322  0.27896822  0.38713804  1
  H  H70  1  0.62419831  0.61357468  0.39405482  1
  H  H71  1  0.62486050  0.94351423  0.39589025  1
  H  H72  1  0.36264244  0.22381587  0.59456577  1
  H  H73  1  0.37194040  0.55740261  0.60094374  1
  H  H74  1  0.37524029  0.88664399  0.61323326  1
  H  H75  1  0.87573414  0.21960867  0.61924639  1
  H  H76  1  0.87489872  0.55257671  0.61348449  1
  H  H77  1  0.86750316  0.89109205  0.59667623  1
  H  H78  1  0.13112878  0.11029815  0.09998102  1
  H  H79  1  0.12777840  0.44492836  0.09983442  1
  H  H80  1  0.12403118  0.77992791  0.11318354  1
  H  H81  1  0.62612110  0.11275764  0.11411601  1
  H  H82  1  0.62503283  0.44666577  0.11276631  1
  H  H83  1  0.62373279  0.78290398  0.12278660  1
  H  H84  1  0.13000124  0.22468666  0.89654896  1
  H  H85  1  0.12827475  0.55629591  0.90127401  1
  H  H86  1  0.12068515  0.88819551  0.88701007  1
  H  H87  1  0.63033528  0.22350491  0.89787935  1
  H  H88  1  0.62227478  0.55000885  0.87657172  1
  H  H89  1  0.61981381  0.88668673  0.88196958  1
  H  H90  1  0.37133656  0.11136683  0.39327931  1
  H  H91  1  0.36885517  0.44803666  0.39438162  1
  H  H92  1  0.36995804  0.77573283  0.40027340  1
  H  H93  1  0.87533082  0.11270794  0.38779913  1
  H  H94  1  0.87168671  0.44614426  0.39106076  1
  H  H95  1  0.87316464  0.77910894  0.39143748  1
  H  H96  1  0.37533875  0.28116463  0.38401639  1
  H  H97  1  0.37525728  0.61246984  0.38985817  1
  H  H98  1  0.37627894  0.94617514  0.38739084  1
  H  H99  1  0.88298046  0.27500896  0.40445023  1
  H  H100  1  0.87837468  0.61105161  0.39483167  1
  H  H101  1  0.88067680  0.94565061  0.39264001  1
  H  H102  1  0.11967671  0.05827497  0.89773555  1
  H  H103  1  0.12457255  0.38476404  0.88282480  1
  H  H104  1  0.12618884  0.72245172  0.89157418  1
  H  H105  1  0.62029338  0.05328692  0.89140695  1
  H  H106  1  0.61907345  0.38902974  0.89922421  1
  H  H107  1  0.62692987  0.71915851  0.87806885  1
  H  H108  1  0.12171076  0.27860701  0.10779140  1
  H  H109  1  0.12507162  0.61168144  0.11242200  1
  H  H110  1  0.13104962  0.94854573  0.12484696  1
  H  H111  1  0.61728998  0.27712816  0.09847006  1
  H  H112  1  0.62643749  0.61235591  0.11064705  1
  H  H113  1  0.62740738  0.94326006  0.10299512  1
  H  H114  1  0.37540790  0.05496206  0.61016532  1
  H  H115  1  0.38137858  0.39095801  0.60031862  1
  H  H116  1  0.38149049  0.71946085  0.60604791  1
  H  H117  1  0.87878830  0.05510743  0.60666339  1
  H  H118  1  0.87854384  0.38505542  0.61393535  1
  H  H119  1  0.87692080  0.72023599  0.61110408  1
  H  H120  1  0.12279011  0.11134890  0.39030978  1
  H  H121  1  0.11954869  0.44767973  0.38419181  1
  H  H122  1  0.12305882  0.78320973  0.38038738  1
  H  H123  1  0.62620792  0.11119545  0.39226327  1
  H  H124  1  0.62171884  0.44752035  0.39048650  1
  H  H125  1  0.62449661  0.77804552  0.39273654  1
  H  H126  1  0.37892588  0.22187679  0.88783387  1
  H  H127  1  0.37591595  0.55200409  0.88002451  1
  H  H128  1  0.37011113  0.88915525  0.89403745  1
  H  H129  1  0.87863528  0.22006592  0.88589963  1
  H  H130  1  0.86869722  0.55569652  0.90205611  1
  H  H131  1  0.86804249  0.89086936  0.89951218  1
  H  H132  1  0.37956532  0.11454606  0.12041082  1
  H  H133  1  0.37578319  0.44546229  0.11309452  1
  H  H134  1  0.37377249  0.78023169  0.11765894  1
  H  H135  1  0.87551207  0.11461311  0.11148822  1
  H  H136  1  0.87435731  0.44448683  0.10720451  1
  H  H137  1  0.86963916  0.77625365  0.09804533  1
  H  H138  1  0.11783115  0.21606502  0.62832755  1
  H  H139  1  0.12307568  0.55217287  0.61247090  1
  H  H140  1  0.12753450  0.89081729  0.60028767  1
  H  H141  1  0.62768514  0.22269309  0.59972667  1
  H  H142  1  0.62573482  0.55685126  0.60561043  1
  H  H143  1  0.62217140  0.88306607  0.62055108  1
  H  H144  1  0.33805768  0.91415075  0.50721025  1
  H  H145  1  0.93541611  0.92024428  0.50438928  1
  H  H146  1  0.33139377  0.75621393  0.00341230  1
  H  H147  1  0.16983468  0.08370680  0.49497517  1
  H  H148  1  0.43681289  0.74479015  0.49449737  1
  H  H149  1  0.31411060  0.41828929  0.50472690  1
  H  H150  1  0.35235987  0.08365793  0.00789663  1
  H  H151  1  0.41716461  0.25571648  0.49723086  1
  H  H152  1  0.54788808  0.25190760  -0.00732640  1
  H  H153  1  0.69499426  0.25017289  1.00095343  1
  H  H154  1  0.28830616  0.24979815  0.48898273  1
  H  H155  1  0.07549383  0.74960124  0.50124097  1
  H  H156  1  0.07683856  0.58597931  0.00027181  1
  H  H157  1  0.58507597  0.58026028  0.00498783  1
  H  H158  1  0.80258183  0.91713083  1.00264458  1
  H  H159  1  0.06722361  0.73455825  0.99915319  1
  H  H160  1  0.29948490  0.74833638  0.50103243  1
  H  H161  1  0.10189988  0.25145432  0.49278626  1
  H  H162  1  0.05195436  0.08670810  1.00282968  1
  H  H163  1  0.66772580  0.08348959  0.00317278  1
  H  H164  1  0.57142626  0.91471504  0.49891161  1
  H  H165  1  0.79456949  0.91299527  0.49538326  1
  H  H166  1  0.19732763  0.58041654  1.00439169  1
  H  H167  1  0.18629780  0.40768317  0.00245949  1
  H  H168  1  0.33903332  0.25151232  0.99440547  1
  H  H169  1  0.57661096  0.25499968  0.50002944  1
  H  H170  1  0.59899354  0.75149892  0.98981174  1
  H  H171  1  0.44607391  0.74283892  1.00265239  1
  H  H172  1  0.15798695  0.91494222  0.99422165  1
  H  H173  1  0.17397915  0.76238044  -0.00103535  1
  H  H174  1  0.16052167  0.58048073  0.50541992  1
  H  H175  1  0.91735925  0.74515178  0.99604765  1
  H  H176  1  0.82505151  0.41687471  0.50063582  1
  H  H177  1  0.79578077  0.75019590  -0.00192627  1
  H  H178  1  0.42597807  0.08294329  0.50504585  1
  H  H179  1  0.45075173  0.41995629  0.49525091  1
  H  H180  1  0.69521051  0.24526852  0.49563734  1
  H  H181  1  0.66625505  0.41949250  0.49550296  1
  H  H182  1  0.34393739  0.42087949  0.00546234  1
  H  H183  1  0.96007144  0.91736809  -0.00682131  1
  H  H184  1  0.67011217  0.41806082  0.00302905  1
  H  H185  1  0.19643550  0.08853646  -0.00333824  1
  H  H186  1  0.83118712  0.08619444  0.00108697  1
  H  H187  1  0.79653630  0.57965004  1.00757237  1
  H  H188  1  0.31850676  0.91723968  1.00288280  1
  H  H189  1  0.82927802  0.08472268  0.49748750  1
  H  H190  1  0.83266229  0.58343506  0.50364157  1
  H  H191  1  0.91713605  0.58524484  0.00324230  1
  Pb  Pb192  1  0.25091116  0.04851791  0.75242112  1
  Pb  Pb193  1  0.24772938  0.37999214  0.74921296  1
  Pb  Pb194  1  0.24687824  0.71472242  0.74871679  1
  Pb  Pb195  1  0.74440986  0.04762433  0.74920315  1
  Pb  Pb196  1  0.75375835  0.38085735  0.75139598  1
  Pb  Pb197  1  0.75010178  0.71179330  0.75596434  1
  Pb  Pb198  1  0.24808606  0.28734320  0.24674175  1
  Pb  Pb199  1  0.24890331  0.61781420  0.24823687  1
  Pb  Pb200  1  0.25404314  0.95240244  0.24917984  1
  Pb  Pb201  1  0.75198337  0.28571011  0.24925809  1
  Pb  Pb202  1  0.75087093  0.61987971  0.25106160  1
  Pb  Pb203  1  0.74987941  0.95341490  0.24866809  1
  Pb  Pb204  1  -0.00105093  0.21155001  0.75354984  1
  Pb  Pb205  1  0.00013453  0.54464049  0.75651680  1
  Pb  Pb206  1  -0.00596396  0.88246050  0.74849276  1
  Pb  Pb207  1  0.50120910  0.21802132  0.74644784  1
  Pb  Pb208  1  0.49884724  0.54589003  0.74931389  1
  Pb  Pb209  1  0.49799969  0.87824221  0.74761431  1
  Pb  Pb210  1  0.00287599  0.11898795  0.24624893  1
  Pb  Pb211  1  -0.00217940  0.45374109  0.24624400  1
  Pb  Pb212  1  -0.00101482  0.78712127  0.24476989  1
  Pb  Pb213  1  0.49994959  0.12123703  0.25534466  1
  Pb  Pb214  1  0.49998649  0.45361968  0.25250527  1
  Pb  Pb215  1  0.50057227  0.78330289  0.25069491  1
  C  C216  1  0.00207575  0.04647181  0.63283852  1
  C  C217  1  0.00481301  0.37979240  0.63217894  1
  C  C218  1  0.00188914  0.71248472  0.63370953  1
  C  C219  1  0.50005660  0.04702435  0.63277411  1
  C  C220  1  0.50066610  0.38008093  0.63402571  1
  C  C221  1  0.50353202  0.71211343  0.63268302  1
  C  C222  1  -0.00263001  0.28682749  0.13159938  1
  C  C223  1  0.00070895  0.61932517  0.13513449  1
  C  C224  1  0.00259846  0.95301901  0.13091849  1
  C  C225  1  0.49782878  0.28737127  0.13259063  1
  C  C226  1  0.50092533  0.61872365  0.12963692  1
  C  C227  1  0.50555725  0.95364547  0.13265288  1
  C  C228  1  -0.00025492  0.04691199  0.86467367  1
  C  C229  1  -0.00259386  0.37945036  0.86891569  1
  C  C230  1  0.00338485  0.71262591  0.86502989  1
  C  C231  1  0.49630289  0.04598233  0.86621817  1
  C  C232  1  0.49878945  0.38048650  0.86937869  1
  C  C233  1  0.49940844  0.71208842  0.86664248  1
  C  C234  1  0.00266602  0.28679185  0.37017782  1
  C  C235  1  0.00123180  0.62004759  0.36774180  1
  C  C236  1  0.00279485  0.95367075  0.36654443  1
  C  C237  1  0.50089886  0.28660108  0.36452798  1
  C  C238  1  0.50041872  0.61925833  0.37149280  1
  C  C239  1  0.50232085  0.95339135  0.36974548  1
  C  C240  1  0.24664841  0.21367219  0.63180705  1
  C  C241  1  0.24938038  0.54727457  0.62915136  1
  C  C242  1  0.24903844  0.88056517  0.63080932  1
  C  C243  1  0.74790341  0.21272687  0.63192483  1
  C  C244  1  0.74891179  0.54733652  0.63316370  1
  C  C245  1  0.74974465  0.87834695  0.63198010  1
  C  C246  1  0.25162068  0.12098309  0.13203182  1
  C  C247  1  0.24949863  0.45226122  0.12939869  1
  C  C248  1  0.24814084  0.78654228  0.13652891  1
  C  C249  1  0.75116814  0.12047091  0.13402018  1
  C  C250  1  0.75057830  0.45264766  0.13407650  1
  C  C251  1  0.75149057  0.78725887  0.13443901  1
  C  C252  1  0.25315467  0.21447947  0.86975137  1
  C  C253  1  0.24795901  0.54564864  0.86821935  1
  C  C254  1  0.24641763  0.88144040  0.86790599  1
  C  C255  1  0.75198351  0.21410334  0.86762066  1
  C  C256  1  0.75026340  0.54609444  0.86609051  1
  C  C257  1  0.74730678  0.88024307  0.86813910  1
  C  C258  1  0.24743881  0.11920666  0.36784105  1
  C  C259  1  0.24666222  0.45397831  0.36760908  1
  C  C260  1  0.25066325  0.78734014  0.36651640  1
  C  C261  1  0.74999960  0.11964622  0.36638323  1
  C  C262  1  0.74679683  0.45356708  0.36801836  1
  C  C263  1  0.74849686  0.78661935  0.36709568  1
  C  C264  1  0.02097512  0.07390107  0.96036828  1
  C  C265  1  0.28119346  0.90705079  0.96274633  1
  C  C266  1  0.69286084  0.90836204  0.95759104  1
  C  C267  1  0.27828643  0.42814134  0.46383449  1
  C  C268  1  0.18038209  0.23641845  0.54636321  1
  C  C269  1  0.03722186  0.73907881  0.54055101  1
  C  C270  1  0.45772111  0.59542624  0.46337681  1
  C  C271  1  0.05237609  0.93118732  0.45825143  1
  C  C272  1  0.45428154  0.92463116  0.46108908  1
  C  C273  1  0.78615290  0.42689774  0.46146361  1
  C  C274  1  0.47233053  0.73617645  0.53583486  1
  C  C275  1  0.70885809  0.09434179  0.04065425  1
  C  C276  1  0.95654776  0.73892284  0.95615904  1
  C  C277  1  0.51759820  0.26201383  0.03617123  1
  C  C278  1  0.28222367  0.57591550  0.53381023  1
  C  C279  1  0.71057614  0.42773372  0.04151769  1
  C  C280  1  0.30646174  0.09308891  0.04380812  1
  C  C281  1  0.03914825  0.59571510  0.04020823  1
  C  C282  1  0.78925719  0.09451340  0.45899113  1
  C  C283  1  0.45682027  0.07372048  0.95879154  1
  C  C284  1  0.80346249  0.24050847  0.54287575  1
  C  C285  1  0.55444028  0.74108972  0.95436920  1
  C  C286  1  0.97107811  0.92994649  0.46336136  1
  C  C287  1  0.26021847  0.23906526  0.53314116  1
  C  C288  1  0.55355966  0.73528439  0.54126087  1
  C  C289  1  0.21823543  0.24519361  0.96393006  1
  C  C290  1  0.45729662  0.26405208  0.45837889  1
  C  C291  1  0.19687804  0.42796107  0.45844922  1
  C  C292  1  0.30507422  0.57438993  0.95648612  1
  C  C293  1  0.95715023  0.59573895  0.04154177  1
  C  C294  1  0.20999240  0.76530528  0.04093256  1
  C  C295  1  0.53933203  0.26343571  0.45958310  1
  C  C296  1  0.53807311  0.59584643  0.46466896  1
  C  C297  1  0.53369058  0.92438264  0.03840304  1
  C  C298  1  0.03431785  0.41032358  0.53866287  1
  C  C299  1  0.29209537  0.76434497  0.04275862  1
  C  C300  1  0.44368908  0.40662427  0.95813430  1
  C  C301  1  0.76794034  0.57068887  0.96308164  1
  C  C302  1  0.52477532  0.40759317  0.96466317  1
  C  C303  1  0.06610231  0.92763996  0.04447655  1
  C  C304  1  0.03354029  0.25770322  0.03932236  1
  C  C305  1  0.48099352  0.40764775  0.53819749  1
  C  C306  1  0.04384549  0.07211431  0.54023337  1
  C  C307  1  0.46477053  0.58764180  0.03571146  1
  C  C308  1  0.97347179  0.40813175  0.96384636  1
  C  C309  1  0.79108182  0.09547788  0.03968158  1
  C  C310  1  0.79107518  0.57314446  0.54149938  1
  C  C311  1  0.96953508  0.59138070  0.46174065  1
  N  N312  1  0.94226472  0.07055976  0.95419244  1
  N  N313  1  0.69195312  0.76432067  0.04643135  1
  N  N314  1  0.95791259  0.73962217  0.54061348  1
  N  N315  1  0.71123921  0.76095511  0.46128414  1
  N  N316  1  0.97691315  0.25823754  0.46585055  1
  N  N317  1  0.43892101  0.26319866  0.04370934  1
  N  N318  1  0.20909237  0.09329450  0.45912154  1
  N  N319  1  0.20155895  0.90612340  0.95924757  1
  N  N320  1  0.72487326  0.23998626  0.53688298  1
  N  N321  1  0.05082465  0.40665862  0.95937148  1
  N  N322  1  0.78745987  0.76139106  0.46104281  1
  N  N323  1  0.19384850  0.76345379  0.45536580  1
  N  N324  1  0.22647964  0.57465735  0.96289548  1
  N  N325  1  0.72526870  0.23912915  0.96133010  1
  N  N326  1  0.27150523  0.76083201  0.46074157  1
  N  N327  1  0.95621281  0.25772394  0.03830545  1
  N  N328  1  0.20342677  0.57343318  0.53885563  1
  N  N329  1  0.04748137  0.59169266  0.45991747  1
  N  N330  1  0.22026906  0.43148029  0.03381877  1
  N  N331  1  0.55961671  0.40533022  0.54539346  1
  N  N332  1  0.70996604  0.09406163  0.46101110  1
  N  N333  1  0.03640865  0.74045655  0.95854006  1
  N  N334  1  0.69001848  0.90383710  0.54464589  1
  N  N335  1  0.29718721  0.24265130  0.96009817  1
  N  N336  1  0.47513537  0.74223837  0.96071650  1
  N  N337  1  0.96612666  0.07277162  0.53709328  1
  N  N338  1  0.98805514  0.92535538  0.03492654  1
  N  N339  1  0.76761079  0.90736353  0.53792760  1
  N  N340  1  0.76926691  0.76228075  0.03918253  1
  N  N341  1  0.68947781  0.56953934  0.95453144  1
  N  N342  1  0.22694132  0.09125176  0.03799512  1
  N  N343  1  0.45624161  0.92539905  0.04119664  1
  N  N344  1  0.05420081  0.26097564  0.45788704  1
  N  N345  1  0.53370967  0.92426458  0.46276750  1
  N  N346  1  0.80309408  0.23857744  0.95843558  1
  N  N347  1  0.21711245  0.90746034  0.53553217  1
  N  N348  1  0.71185675  0.57448496  0.53836556  1
  N  N349  1  0.54361331  0.58992797  0.03902459  1
  N  N350  1  0.70643489  0.42739581  0.46000875  1
  N  N351  1  0.53465328  0.07395669  0.96095044  1
  N  N352  1  0.28755176  0.09365270  0.46160823  1
  N  N353  1  0.29846779  0.42218444  0.04157254  1
  N  N354  1  0.95675157  0.40834772  0.54044058  1
  N  N355  1  0.46246018  0.07250775  0.54161749  1
  N  N356  1  0.29518476  0.90634779  0.54156652  1
  N  N357  1  0.78980725  0.42717753  0.03920643  1
  N  N358  1  0.77151505  0.90865645  0.96247391  1
  N  N359  1  0.54037564  0.07254668  0.53909752  1
  N  N360  1  0.06801969  0.05649643  0.59815007  1
  N  N361  1  0.06630494  0.39306448  0.59363479  1
  N  N362  1  0.06585283  0.72277741  0.59745214  1
  N  N363  1  0.56339643  0.05696835  0.59636029  1
  N  N364  1  0.57002628  0.38839076  0.60542715  1
  N  N365  1  0.57199024  0.72097887  0.59966264  1
  N  N366  1  0.42849500  0.27905904  0.10406983  1
  N  N367  1  0.43801343  0.60575725  0.09171132  1
  N  N368  1  0.43870746  0.94383465  0.10137719  1
  N  N369  1  0.93331182  0.27621857  0.09701259  1
  N  N370  1  0.93457390  0.61043566  0.10081133  1
  N  N371  1  0.94798244  0.94284787  0.08782297  1
  N  N372  1  0.43108715  0.05719542  0.90140978  1
  N  N373  1  0.42897097  0.38982213  0.89938754  1
  N  N374  1  0.44119597  0.72113257  0.90735873  1
  N  N375  1  0.93080872  0.05427649  0.89432223  1
  N  N376  1  0.93810598  0.39189309  0.90979973  1
  N  N377  1  0.93599919  0.72387837  0.89785902  1
  N  N378  1  0.07103049  0.27836286  0.40000872  1
  N  N379  1  0.06696712  0.60970365  0.40008945  1
  N  N380  1  0.07105179  0.94519711  0.39980950  1
  N  N381  1  0.56525997  0.27736434  0.40078178  1
  N  N382  1  0.56485596  0.61015924  0.40865972  1
  N  N383  1  0.56384997  0.94286825  0.40663072  1
  N  N384  1  0.30086843  0.22454587  0.58774982  1
  N  N385  1  0.31105852  0.55973140  0.58977612  1
  N  N386  1  0.31567120  0.88967943  0.59900778  1
  N  N387  1  0.81773303  0.22411666  0.60166960  1
  N  N388  1  0.81535773  0.55641221  0.59932718  1
  N  N389  1  0.80559314  0.88934150  0.58998535  1
  N  N390  1  0.19337494  0.11141730  0.09147817  1
  N  N391  1  0.18936697  0.44078396  0.09105267  1
  N  N392  1  0.18384484  0.77848936  0.09975803  1
  N  N393  1  0.68570282  0.10961239  0.09959590  1
  N  N394  1  0.68488590  0.44310137  0.09942326  1
  N  N395  1  0.68151071  0.77967790  0.10563772  1
  N  N396  1  0.19079769  0.22759464  0.90809639  1
  N  N397  1  0.19006099  0.55496123  0.90913595  1
  N  N398  1  0.18050122  0.89026935  0.90083213  1
  N  N399  1  0.69219815  0.22421857  0.90659207  1
  N  N400  1  0.68040243  0.55428453  0.89391041  1
  N  N401  1  0.67766355  0.89103107  0.89910097  1
  N  N402  1  0.31039932  0.10935234  0.40444419  1
  N  N403  1  0.30834347  0.44445505  0.40595152  1
  N  N404  1  0.30790569  0.77506041  0.40705927  1
  N  N405  1  0.81545301  0.10976855  0.40119752  1
  N  N406  1  0.81135566  0.44257420  0.40414608  1
  N  N407  1  0.81219656  0.77702862  0.40262250  1
  N  N408  1  0.43476241  0.27829292  0.39903214  1
  N  N409  1  0.43407818  0.60958328  0.40632336  1
  N  N410  1  0.43505316  0.94209415  0.40335772  1
  N  N411  1  0.94493103  0.27442413  0.41108466  1
  N  N412  1  0.93923965  0.60853354  0.40615335  1
  N  N413  1  0.94111685  0.94418245  0.40491645  1
  N  N414  1  0.05774518  0.05907840  0.90592021  1
  N  N415  1  0.06560862  0.38864689  0.89864170  1
  N  N416  1  0.06508993  0.72026930  0.90288790  1
  N  N417  1  0.55910741  0.05633168  0.90188889  1
  N  N418  1  0.55807889  0.39178084  0.91039988  1
  N  N419  1  0.56942042  0.72382955  0.89568765  1
  N  N420  1  0.06164700  0.27517608  0.09547338  1
  N  N421  1  0.06501533  0.61047220  0.09880887  1
  N  N422  1  0.07519891  0.94370678  0.10430337  1
  N  N423  1  0.55513696  0.27655237  0.09034787  1
  N  N424  1  0.56668173  0.60931514  0.09688404  1
  N  N425  1  0.56657494  0.94134209  0.09326639  1
  N  N426  1  0.43597757  0.05707599  0.59821205  1
  N  N427  1  0.44330589  0.39199187  0.59212328  1
  N  N428  1  0.44206869  0.72177062  0.59418601  1
  N  N429  1  0.94000234  0.05639437  0.59616129  1
  N  N430  1  0.93839960  0.38897394  0.60018551  1
  N  N431  1  0.93771506  0.72308508  0.59900826  1
  N  N432  1  0.18341664  0.10899477  0.40257106  1
  N  N433  1  0.17840040  0.44354762  0.40033466  1
  N  N434  1  0.18156908  0.77974466  0.39647868  1
  N  N435  1  0.68721955  0.10953754  0.40282647  1
  N  N436  1  0.68237057  0.44408628  0.40249874  1
  N  N437  1  0.68542383  0.77651916  0.40312167  1
  N  N438  1  0.31942212  0.22315706  0.90223093  1
  N  N439  1  0.31833445  0.55695598  0.89779326  1
  N  N440  1  0.30928372  0.89197555  0.90592559  1
  N  N441  1  0.81917005  0.22321089  0.89979206  1
  N  N442  1  0.80677449  0.55684116  0.90911715  1
  N  N443  1  0.80624931  0.89000261  0.90801084  1
  N  N444  1  0.32159839  0.11004848  0.10267868  1
  N  N445  1  0.31656270  0.44347280  0.09768757  1
  N  N446  1  0.31444065  0.77749016  0.10237808  1
  N  N447  1  0.81586995  0.11136032  0.09809144  1
  N  N448  1  0.81303733  0.44252270  0.09731104  1
  N  N449  1  0.80729454  0.77578167  0.09246461  1
  N  N450  1  0.17300341  0.22134878  0.60641456  1
  N  N451  1  0.18252236  0.55555891  0.59746516  1
  N  N452  1  0.18883828  0.89193454  0.59166574  1
  N  N453  1  0.68934312  0.22103638  0.59133096  1
  N  N454  1  0.68721267  0.55858032  0.59601062  1
  N  N455  1  0.67986729  0.88772326  0.60381553  1
  Cl  Cl456  1  0.25183079  0.05482802  0.61811607  1
  Cl  Cl457  1  0.25619907  0.38949075  0.61685247  1
  Cl  Cl458  1  0.25513536  0.72163578  0.61005040  1
  Cl  Cl459  1  0.75228710  0.05358054  0.61605752  1
  Cl  Cl460  1  0.75358700  0.38452951  0.61435244  1
  Cl  Cl461  1  0.75445129  0.71716457  0.62773227  1
  Cl  Cl462  1  0.24578812  0.28001255  0.11265952  1
  Cl  Cl463  1  0.24957331  0.60646406  0.11018126  1
  Cl  Cl464  1  0.25501140  0.94716755  0.11371062  1
  Cl  Cl465  1  0.74017075  0.27598462  0.11120359  1
  Cl  Cl466  1  0.75100535  0.61395909  0.11462942  1
  Cl  Cl467  1  0.76187322  0.93829097  0.10502922  1
  Cl  Cl468  1  0.24322566  0.05944686  0.89446848  1
  Cl  Cl469  1  0.24649206  0.38716591  0.88691687  1
  Cl  Cl470  1  0.25279052  0.72251493  0.88781529  1
  Cl  Cl471  1  0.74439643  0.05068389  0.88447558  1
  Cl  Cl472  1  0.74737505  0.38612694  0.88380268  1
  Cl  Cl473  1  0.75484606  0.72486837  0.89410303  1
  Cl  Cl474  1  0.25178136  0.28083634  0.38073327  1
  Cl  Cl475  1  0.25011346  0.61232157  0.38195451  1
  Cl  Cl476  1  0.25462079  0.94765072  0.38111393  1
  Cl  Cl477  1  0.75304467  0.27627488  0.38944589  1
  Cl  Cl478  1  0.75457562  0.61088370  0.38174986  1
  Cl  Cl479  1  0.75266008  0.94157021  0.38798386  1
  Cl  Cl480  1  -0.00513123  0.21596815  0.62287855  1
  Cl  Cl481  1  0.00038188  0.55072306  0.62429785  1
  Cl  Cl482  1  -0.00532515  0.89045294  0.61456000  1
  Cl  Cl483  1  0.49887829  0.22321220  0.61114897  1
  Cl  Cl484  1  0.49828905  0.55335386  0.61830230  1
  Cl  Cl485  1  0.49700460  0.88743731  0.61074514  1
  Cl  Cl486  1  0.00910391  0.11078650  0.11061751  1
  Cl  Cl487  1  0.00332417  0.44647640  0.11347618  1
  Cl  Cl488  1  -0.00562245  0.77665028  0.10392759  1
  Cl  Cl489  1  0.50282279  0.11651297  0.12530122  1
  Cl  Cl490  1  0.49871210  0.44996892  0.12054026  1
  Cl  Cl491  1  0.49694406  0.77431345  0.11191225  1
  Cl  Cl492  1  0.00566118  0.21938963  0.88399364  1
  Cl  Cl493  1  0.00001197  0.55657969  0.89231497  1
  Cl  Cl494  1  -0.00819609  0.89058550  0.89481520  1
  Cl  Cl495  1  0.50788623  0.22316535  0.88511821  1
  Cl  Cl496  1  0.49923282  0.55363528  0.88473691  1
  Cl  Cl497  1  0.49348643  0.88357083  0.87806119  1
  Cl  Cl498  1  0.00190402  0.11356800  0.37829700  1
  Cl  Cl499  1  -0.00506888  0.45034613  0.37767206  1
  Cl  Cl500  1  -0.00218843  0.78162064  0.37720520  1
  Cl  Cl501  1  0.49491495  0.11003414  0.39070451  1
  Cl  Cl502  1  0.49648635  0.44759363  0.38804675  1
  Cl  Cl503  1  0.49392212  0.77982901  0.38517084  1
  Cl  Cl504  1  0.35814972  0.14483821  0.75166846  1
  Cl  Cl505  1  0.36223659  0.47866961  0.75371789  1
  Cl  Cl506  1  0.36096136  0.81287662  0.74767687  1
  Cl  Cl507  1  0.86305229  0.14414943  0.75247845  1
  Cl  Cl508  1  0.86009928  0.47877661  0.74852821  1
  Cl  Cl509  1  0.86197457  0.81230009  0.75442043  1
  Cl  Cl510  1  0.14022422  0.18693275  0.25052178  1
  Cl  Cl511  1  0.13866777  0.52309806  0.24897618  1
  Cl  Cl512  1  0.13602066  0.85564562  0.25019885  1
  Cl  Cl513  1  0.63725059  0.18822232  0.25452851  1
  Cl  Cl514  1  0.63738564  0.52155412  0.24958240  1
  Cl  Cl515  1  0.63681538  0.85585111  0.24544629  1
  Cl  Cl516  1  0.13700194  0.14510715  0.74740240  1
  Cl  Cl517  1  0.14048308  0.47869239  0.75089684  1
  Cl  Cl518  1  0.14153099  0.81083680  0.75457129  1
  Cl  Cl519  1  0.64205049  0.14422986  0.75003138  1
  Cl  Cl520  1  0.63612188  0.47781047  0.75068627  1
  Cl  Cl521  1  0.63711062  0.81188811  0.74925125  1
  Cl  Cl522  1  0.36238032  0.18811728  0.24914033  1
  Cl  Cl523  1  0.36019634  0.52151160  0.24720225  1
  Cl  Cl524  1  0.35803614  0.85522439  0.24787314  1
  Cl  Cl525  1  0.86138103  0.18929721  0.24821459  1
  Cl  Cl526  1  0.86103688  0.52118581  0.24608553  1
  Cl  Cl527  1  0.86166391  0.85431039  0.24930574  1
  Cl  Cl528  1  0.11345717  0.31068546  0.75139847  1
  Cl  Cl529  1  0.11279900  0.64514411  0.75198114  1
  Cl  Cl530  1  0.11353231  0.97805380  0.75210444  1
  Cl  Cl531  1  0.61086027  0.30966819  0.74631834  1
  Cl  Cl532  1  0.61386648  0.64438446  0.75407682  1
  Cl  Cl533  1  0.61035003  0.97823842  0.74741551  1
  Cl  Cl534  1  0.38810136  0.02113978  0.25003347  1
  Cl  Cl535  1  0.38744149  0.35486871  0.24625651  1
  Cl  Cl536  1  0.38907053  0.68858206  0.24884591  1
  Cl  Cl537  1  0.88766488  0.02077181  0.24700755  1
  Cl  Cl538  1  0.88766234  0.35455227  0.24939910  1
  Cl  Cl539  1  0.88792328  0.68791218  0.24592268  1
  Cl  Cl540  1  0.38922258  0.31071981  0.75513413  1
  Cl  Cl541  1  0.39006320  0.64570137  0.75232600  1
  Cl  Cl542  1  0.38558602  0.97845713  0.74757470  1
  Cl  Cl543  1  0.88775288  0.31149738  0.74876641  1
  Cl  Cl544  1  0.88888326  0.64572083  0.75342794  1
  Cl  Cl545  1  0.89103068  0.97573840  0.75428601  1
  Cl  Cl546  1  0.11258263  0.02201570  0.24812512  1
  Cl  Cl547  1  0.11286448  0.35566285  0.25182669  1
  Cl  Cl548  1  0.11326666  0.68943218  0.24872422  1
  Cl  Cl549  1  0.61335911  0.02143424  0.25147165  1
  Cl  Cl550  1  0.61094878  0.35527395  0.25227374  1
  Cl  Cl551  1  0.61057430  0.68974615  0.24770096  1
