# generated using pymatgen
data_H8PbC4(N3Cl2)2
_symmetry_space_group_name_H-M   'P 1'
_cell_length_a   16.62443366
_cell_length_b   22.51416120
_cell_length_c   21.59404341
_cell_angle_alpha   89.99992466
_cell_angle_beta   89.99591931
_cell_angle_gamma   89.98889158
_symmetry_Int_Tables_number   1
_chemical_formula_structural   H8PbC4(N3Cl2)2
_chemical_formula_sum   'H192 Pb24 C96 N144 Cl96'
_cell_volume   8082.33023628
_cell_formula_units_Z   24
loop_
 _symmetry_equiv_pos_site_id
 _symmetry_equiv_pos_as_xyz
  1  'x, y, z'
loop_
 _atom_site_type_symbol
 _atom_site_label
 _atom_site_symmetry_multiplicity
 _atom_site_fract_x
 _atom_site_fract_y
 _atom_site_fract_z
 _atom_site_occupancy
  H  H0  1  0.00740274  0.03056955  0.67686707  1
  H  H1  1  0.00558731  0.36365713  0.67856581  1
  H  H2  1  0.00003041  0.69549253  0.68057257  1
  H  H3  1  0.49701483  0.02849000  0.67928228  1
  H  H4  1  0.49025015  0.36448305  0.67615399  1
  H  H5  1  0.51155582  0.69532436  0.67211092  1
  H  H6  1  0.00181087  0.30391527  0.17976487  1
  H  H7  1  -0.00757274  0.63425551  0.18285308  1
  H  H8  1  -0.00635515  0.97204562  0.17828107  1
  H  H9  1  0.49932874  0.30252169  0.17518851  1
  H  H10  1  0.51292557  0.63722998  0.17533363  1
  H  H11  1  0.49831985  0.96814963  0.18154547  1
  H  H12  1  0.01135162  0.02961022  0.82168043  1
  H  H13  1  0.00501917  0.36628835  0.82025455  1
  H  H14  1  0.01187514  0.69865732  0.81680790  1
  H  H15  1  0.50248226  0.02659231  0.82083279  1
  H  H16  1  0.50546174  0.36314152  0.81781154  1
  H  H17  1  0.49610569  0.69381805  0.82466148  1
  H  H18  1  -0.00748364  0.30449346  0.32124034  1
  H  H19  1  0.00948946  0.63678006  0.32066323  1
  H  H20  1  0.00767647  0.97173087  0.32113598  1
  H  H21  1  0.50222633  0.30441960  0.32332781  1
  H  H22  1  0.49463596  0.63971905  0.31860958  1
  H  H23  1  0.48625950  0.96807752  0.32492044  1
  H  H24  1  0.24751760  0.19776381  0.67593631  1
  H  H25  1  0.24496053  0.52982747  0.68273440  1
  H  H26  1  0.25129999  0.86165183  0.67937143  1
  H  H27  1  0.75679639  0.19749453  0.67972892  1
  H  H28  1  0.74963808  0.52714795  0.67359119  1
  H  H29  1  0.76059326  0.86265223  0.68108881  1
  H  H30  1  0.25130777  0.13807113  0.18070898  1
  H  H31  1  0.24853162  0.47113425  0.18253695  1
  H  H32  1  0.25130121  0.80505606  0.17810064  1
  H  H33  1  0.75591707  0.13561650  0.18075614  1
  H  H34  1  0.74387743  0.46999493  0.17833443  1
  H  H35  1  0.73993288  0.80031228  0.17754686  1
  H  H36  1  0.23431184  0.19902677  0.81929797  1
  H  H37  1  0.23336617  0.52904053  0.81946116  1
  H  H38  1  0.25555002  0.86651741  0.82021089  1
  H  H39  1  0.76526612  0.19864413  0.82041495  1
  H  H40  1  0.76264234  0.53308179  0.81959201  1
  H  H41  1  0.75897724  0.85918565  0.82082853  1
  H  H42  1  0.25266412  0.13753790  0.32050302  1
  H  H43  1  0.24570890  0.47071587  0.32351580  1
  H  H44  1  0.24381508  0.80265297  0.32151967  1
  H  H45  1  0.73868657  0.13335480  0.31979620  1
  H  H46  1  0.74879667  0.47173489  0.32009450  1
  H  H47  1  0.74793708  0.80347588  0.32216546  1
  H  H48  1  0.11521601  0.05792815  0.59553108  1
  H  H49  1  0.12693545  0.38711240  0.60552723  1
  H  H50  1  0.12256394  0.72251783  0.61091478  1
  H  H51  1  0.61208470  0.05504646  0.60012635  1
  H  H52  1  0.62474795  0.38371904  0.61927977  1
  H  H53  1  0.61477244  0.72665759  0.58837585  1
  H  H54  1  0.37721434  0.27581741  0.10512936  1
  H  H55  1  0.37665728  0.61903055  0.12097189  1
  H  H56  1  0.38285945  0.94666813  0.10412629  1
  H  H57  1  0.87824087  0.27722925  0.11073868  1
  H  H58  1  0.86967090  0.61477354  0.11045320  1
  H  H59  1  0.88910323  0.94065550  0.09255978  1
  H  H60  1  0.37775452  0.05248782  0.89073107  1
  H  H61  1  0.36984900  0.38241333  0.87541736  1
  H  H62  1  0.37179895  0.72093330  0.89486243  1
  H  H63  1  0.87625618  0.05126964  0.88120711  1
  H  H64  1  0.87085894  0.38678725  0.88424176  1
  H  H65  1  0.87203764  0.71789952  0.87305019  1
  H  H66  1  0.13252618  0.28464527  0.37626367  1
  H  H67  1  0.11514323  0.60887867  0.40397044  1
  H  H68  1  0.13449012  0.94762331  0.38914149  1
  H  H69  1  0.63549247  0.28097300  0.38414715  1
  H  H70  1  0.61797250  0.61301806  0.39067977  1
  H  H71  1  0.62603829  0.95049921  0.37436281  1
  H  H72  1  0.36734647  0.22250687  0.60178240  1
  H  H73  1  0.37853343  0.54831156  0.62194875  1
  H  H74  1  0.36830249  0.88719839  0.60161391  1
  H  H75  1  0.86311395  0.22559289  0.59752933  1
  H  H76  1  0.87898872  0.55129227  0.60860349  1
  H  H77  1  0.87401542  0.88845883  0.60226398  1
  H  H78  1  0.12524582  0.11477862  0.10954872  1
  H  H79  1  0.12883733  0.44590290  0.10685213  1
  H  H80  1  0.13717016  0.77628281  0.09884465  1
  H  H81  1  0.62575811  0.11237311  0.11552520  1
  H  H82  1  0.63519980  0.44284066  0.09635470  1
  H  H83  1  0.62963166  0.77602978  0.09680001  1
  H  H84  1  0.12652513  0.22143773  0.90255468  1
  H  H85  1  0.12858191  0.55565450  0.90436192  1
  H  H86  1  0.11970207  0.88617063  0.87687182  1
  H  H87  1  0.62341966  0.21708407  0.87291967  1
  H  H88  1  0.62491299  0.55262537  0.87893380  1
  H  H89  1  0.61899351  0.87906398  0.87539078  1
  H  H90  1  0.38174907  0.11345720  0.38737567  1
  H  H91  1  0.37297417  0.44480603  0.39164090  1
  H  H92  1  0.38048585  0.78518333  0.37956856  1
  H  H93  1  0.87559638  0.11416823  0.37758890  1
  H  H94  1  0.86999707  0.44480416  0.39308328  1
  H  H95  1  0.87782425  0.78367056  0.38515873  1
  H  H96  1  0.38752651  0.27821888  0.40214148  1
  H  H97  1  0.36950621  0.61218270  0.38940813  1
  H  H98  1  0.38210365  0.94149471  0.40946558  1
  H  H99  1  0.88714965  0.27582214  0.40440252  1
  H  H100  1  0.86974948  0.61770271  0.37595449  1
  H  H101  1  0.88533051  0.94612385  0.39365053  1
  H  H102  1  0.12363323  0.05938813  0.89988097  1
  H  H103  1  0.11829197  0.39050922  0.90118442  1
  H  H104  1  0.11846389  0.72488055  0.90056782  1
  H  H105  1  0.62622893  0.05254430  0.89218274  1
  H  H106  1  0.61744929  0.38982305  0.89620122  1
  H  H107  1  0.62067083  0.71923599  0.89384484  1
  H  H108  1  0.12598620  0.28378282  0.10862242  1
  H  H109  1  0.11961444  0.61261976  0.11361570  1
  H  H110  1  0.13347376  0.95191526  0.12480711  1
  H  H111  1  0.62600246  0.27871700  0.10669408  1
  H  H112  1  0.62251936  0.61094121  0.09444411  1
  H  H113  1  0.62997665  0.94740801  0.12219395  1
  H  H114  1  0.36427583  0.05149561  0.61450630  1
  H  H115  1  0.37746082  0.38867808  0.59701015  1
  H  H116  1  0.37077541  0.71698962  0.62153773  1
  H  H117  1  0.86981374  0.04819930  0.62350911  1
  H  H118  1  0.87778793  0.38536228  0.61437978  1
  H  H119  1  0.87368633  0.72105893  0.61114945  1
  H  H120  1  0.13199481  0.11058516  0.39209175  1
  H  H121  1  0.12401589  0.44446443  0.39508903  1
  H  H122  1  0.13257434  0.77823245  0.39990930  1
  H  H123  1  0.62995510  0.10860846  0.40450597  1
  H  H124  1  0.62129340  0.44572890  0.38584859  1
  H  H125  1  0.62899974  0.77768417  0.39589118  1
  H  H126  1  0.37276527  0.21715121  0.87289974  1
  H  H127  1  0.37410689  0.55088628  0.87292464  1
  H  H128  1  0.36688645  0.88732665  0.90088770  1
  H  H129  1  0.86808176  0.22554840  0.90641669  1
  H  H130  1  0.87228564  0.55761660  0.90178694  1
  H  H131  1  0.86319170  0.89250163  0.90531547  1
  H  H132  1  0.37467899  0.11183737  0.10991453  1
  H  H133  1  0.37714040  0.44627929  0.11380371  1
  H  H134  1  0.38493398  0.78214154  0.11569240  1
  H  H135  1  0.87458457  0.11156356  0.10515684  1
  H  H136  1  0.88119772  0.45073558  0.12137244  1
  H  H137  1  0.87566809  0.78305987  0.12212276  1
  H  H138  1  0.11909152  0.22278020  0.61076861  1
  H  H139  1  0.13013323  0.55319951  0.60599972  1
  H  H140  1  0.11972095  0.88576896  0.61644840  1
  H  H141  1  0.61692807  0.21808975  0.62535553  1
  H  H142  1  0.63067596  0.55781961  0.60117876  1
  H  H143  1  0.62573046  0.88226523  0.61844430  1
  H  H144  1  0.04538991  0.75366331  1.00352173  1
  H  H145  1  0.93753281  0.22659777  0.01843644  1
  H  H146  1  0.61236350  0.91812093  0.48956211  1
  H  H147  1  0.70879415  0.43011342  -0.00504165  1
  H  H148  1  0.20493236  0.58253087  1.00732084  1
  H  H149  1  0.19580556  0.24444880  1.00934622  1
  H  H150  1  0.35003385  0.57608977  0.50913709  1
  H  H151  1  0.79053089  0.25304180  1.00806859  1
  H  H152  1  0.96083809  0.24691621  0.50732378  1
  H  H153  1  0.88865547  0.08035338  0.50924783  1
  H  H154  1  0.58076588  0.24927969  0.00104130  1
  H  H155  1  0.30278601  0.91435874  1.00834203  1
  H  H156  1  0.30805166  0.26743172  0.50726112  1
  H  H157  1  0.96916359  0.91925269  -0.00697438  1
  H  H158  1  0.91616790  0.41666798  0.50143266  1
  H  H159  1  0.39759005  0.58660127  1.00610649  1
  H  H160  1  0.91957807  0.59213470  -0.00139124  1
  H  H161  1  0.60060415  0.41518608  0.50440081  1
  H  H162  1  0.07150819  0.57546042  0.01066355  1
  H  H163  1  0.80121644  0.58555814  1.00666473  1
  H  H164  1  0.35605948  0.24511691  0.98703876  1
  H  H165  1  0.70324743  0.07631764  0.50211205  1
  H  H166  1  0.15900594  0.24761968  0.50372976  1
  H  H167  1  0.81787894  0.08047943  -0.00090418  1
  H  H168  1  0.04134390  0.58065038  0.50714654  1
  H  H169  1  0.32401693  0.08060278  0.00234722  1
  H  H170  1  0.57454188  0.08045213  0.99610065  1
  H  H171  1  0.20612527  0.74935295  -0.00265726  1
  H  H172  1  0.83939248  0.58835700  0.50540496  1
  H  H173  1  0.63613089  0.24703143  0.51559101  1
  H  H174  1  0.14275815  0.91333437  -0.00936227  1
  H  H175  1  0.78443224  0.91483338  1.00494843  1
  H  H176  1  0.84300718  0.75122400  0.49781508  1
  H  H177  1  0.85550566  0.41500920  0.01561431  1
  H  H178  1  0.19471530  0.74834080  0.50713302  1
  H  H179  1  0.60066466  0.91700842  1.00767123  1
  H  H180  1  0.79202280  0.25516939  0.49320699  1
  H  H181  1  0.55461770  0.41849017  1.00347653  1
  H  H182  1  0.39427378  0.41331467  0.98803698  1
  H  H183  1  0.06659236  0.28267908  0.00187245  1
  H  H184  1  0.80964438  0.91660881  0.49630038  1
  H  H185  1  0.38588858  0.74982028  0.51095042  1
  H  H186  1  0.68975343  0.57689814  0.49681833  1
  H  H187  1  0.85345124  0.75145507  1.00715000  1
  H  H188  1  0.34089410  0.08236344  0.49187253  1
  H  H189  1  0.15501896  0.91564182  0.50569157  1
  H  H190  1  0.18378216  0.07757995  0.50026414  1
  H  H191  1  0.18924272  0.58026978  0.49676377  1
  Pb  Pb192  1  0.24614901  0.04720509  0.74740400  1
  Pb  Pb193  1  0.24209357  0.38300416  0.74903872  1
  Pb  Pb194  1  0.24560670  0.71433311  0.75954325  1
  Pb  Pb195  1  0.73984890  0.04925476  0.74669775  1
  Pb  Pb196  1  0.74670345  0.38040643  0.75756847  1
  Pb  Pb197  1  0.74065849  0.71557107  0.74318463  1
  Pb  Pb198  1  0.25552121  0.28628898  0.25460638  1
  Pb  Pb199  1  0.25107925  0.61988190  0.25281060  1
  Pb  Pb200  1  0.25297018  0.95230309  0.25535259  1
  Pb  Pb201  1  0.74968477  0.28401672  0.25171160  1
  Pb  Pb202  1  0.74695169  0.61762436  0.24933110  1
  Pb  Pb203  1  0.75863540  0.95172821  0.24410215  1
  Pb  Pb204  1  -0.00425760  0.21289164  0.75656558  1
  Pb  Pb205  1  -0.00755699  0.54994411  0.75685708  1
  Pb  Pb206  1  -0.00780046  0.88314644  0.75301481  1
  Pb  Pb207  1  0.49103298  0.21674606  0.74958301  1
  Pb  Pb208  1  0.49891270  0.54694009  0.74684155  1
  Pb  Pb209  1  0.49211274  0.87880330  0.75018716  1
  Pb  Pb210  1  0.00473621  0.12043941  0.24724826  1
  Pb  Pb211  1  0.00214823  0.45191446  0.25378072  1
  Pb  Pb212  1  0.00446546  0.78494649  0.24792317  1
  Pb  Pb213  1  0.50169153  0.11643113  0.25112580  1
  Pb  Pb214  1  0.49966918  0.45159475  0.24643065  1
  Pb  Pb215  1  0.50454411  0.78725001  0.24888221  1
  C  C216  1  -0.00353482  0.04556155  0.62998271  1
  C  C217  1  0.00282203  0.37896512  0.63109570  1
  C  C218  1  -0.00158384  0.71239250  0.63384211  1
  C  C219  1  0.49091965  0.04405633  0.63188706  1
  C  C220  1  0.49830297  0.37916431  0.62878993  1
  C  C221  1  0.49838691  0.71198225  0.62615200  1
  C  C222  1  0.00209212  0.28839799  0.13216685  1
  C  C223  1  -0.00559549  0.61971940  0.13482474  1
  C  C224  1  0.00520938  0.95640411  0.13163493  1
  C  C225  1  0.50145417  0.28600765  0.12806682  1
  C  C226  1  0.50311314  0.62231289  0.12826604  1
  C  C227  1  0.50468364  0.95452183  0.13372062  1
  C  C228  1  0.00344767  0.04666701  0.86803788  1
  C  C229  1  -0.00217840  0.38026394  0.86808957  1
  C  C230  1  0.00041376  0.71370984  0.86377029  1
  C  C231  1  0.50251690  0.04318506  0.86796961  1
  C  C232  1  0.49721134  0.37797650  0.86524539  1
  C  C233  1  0.49589104  0.71089007  0.87141008  1
  C  C234  1  0.00455233  0.28888289  0.36795404  1
  C  C235  1  -0.00231874  0.62206169  0.36770388  1
  C  C236  1  0.00896641  0.95573977  0.36831039  1
  C  C237  1  0.50838255  0.28831246  0.37028667  1
  C  C238  1  0.49396951  0.62293217  0.36572519  1
  C  C239  1  0.49910241  0.95338157  0.37163714  1
  C  C240  1  0.24464634  0.21400351  0.62855042  1
  C  C241  1  0.25156612  0.54389147  0.63490043  1
  C  C242  1  0.24652014  0.87823931  0.63241208  1
  C  C243  1  0.74480748  0.21280496  0.63281888  1
  C  C244  1  0.75310723  0.54501050  0.62689148  1
  C  C245  1  0.75322889  0.87790746  0.63369247  1
  C  C246  1  0.25027781  0.12136111  0.13360638  1
  C  C247  1  0.25169878  0.45489742  0.13523696  1
  C  C248  1  0.25745087  0.78877666  0.13107012  1
  C  C249  1  0.75191947  0.11935012  0.13355332  1
  C  C250  1  0.75366054  0.45460904  0.13112418  1
  C  C251  1  0.74938537  0.78597082  0.13022076  1
  C  C252  1  0.24499078  0.21271978  0.86686136  1
  C  C253  1  0.24570353  0.54471941  0.86604844  1
  C  C254  1  0.24687234  0.87972119  0.86810975  1
  C  C255  1  0.75185836  0.21358346  0.86715202  1
  C  C256  1  0.75312534  0.54753052  0.86697183  1
  C  C257  1  0.74727347  0.87508027  0.86738893  1
  C  C258  1  0.25604730  0.12084873  0.36769430  1
  C  C259  1  0.24787231  0.45376163  0.37035034  1
  C  C260  1  0.25207408  0.78820905  0.36902678  1
  C  C261  1  0.74775968  0.11856815  0.36707636  1
  C  C262  1  0.74703389  0.45443675  0.36665197  1
  C  C263  1  0.75225463  0.78791433  0.36949540  1
  C  C264  1  0.56265065  0.92749330  0.45790399  1
  C  C265  1  0.72544047  0.75813629  0.03410295  1
  C  C266  1  0.01760297  0.07441306  0.53374606  1
  C  C267  1  0.51452410  0.74637914  0.53046337  1
  C  C268  1  0.70442428  0.42434026  0.45757780  1
  C  C269  1  0.55590986  0.92809891  0.04279080  1
  C  C270  1  0.76371518  0.24264622  0.53680539  1
  C  C271  1  0.52249416  0.40637941  0.96144949  1
  C  C272  1  0.93699649  0.07147979  0.54215995  1
  C  C273  1  0.30996107  0.76355027  0.45744227  1
  C  C274  1  0.98921030  0.25874529  0.46346028  1
  C  C275  1  0.53349523  0.74242328  0.96243616  1
  C  C276  1  0.03491581  0.74353366  0.54185849  1
  C  C277  1  0.04995800  0.92693993  0.45996468  1
  C  C278  1  0.52601278  0.59375298  0.03218921  1
  C  C279  1  0.78161515  0.09126226  0.03960197  1
  C  C280  1  0.28577430  0.09227563  0.04129666  1
  C  C281  1  0.22902505  0.76022216  0.46592267  1
  C  C282  1  0.71823579  0.75810834  0.46334573  1
  C  C283  1  0.22282090  0.56941162  0.53843902  1
  C  C284  1  0.47471864  0.92864038  0.03798718  1
  C  C285  1  0.20004208  0.90585031  0.54246438  1
  C  C286  1  0.30646880  0.23624796  0.95447198  1
  C  C287  1  0.46149436  0.25612985  0.03471744  1
  C  C288  1  0.21325928  0.42235186  0.46228378  1
  C  C289  1  0.79977813  0.76047689  0.46127935  1
  C  C290  1  0.80636921  0.76017261  0.04125539  1
  C  C291  1  0.23174330  0.57233069  0.96243483  1
  C  C292  1  0.95799880  0.40646272  0.53857745  1
  C  C293  1  0.01297756  0.59415835  0.46387724  1
  C  C294  1  0.03964290  0.40690717  0.53730599  1
  C  C295  1  0.77220949  0.57452001  0.96294812  1
  C  C296  1  0.02642796  0.07982795  0.96154122  1
  C  C297  1  0.44516648  0.59593141  0.03973122  1
  C  C298  1  0.21999752  0.09025052  0.46045231  1
  C  C299  1  0.55740283  0.26074996  0.45969717  1
  C  C300  1  0.77732037  0.90548415  0.53860909  1
  C  C301  1  0.55315925  0.40591266  0.53910528  1
  C  C302  1  0.30462488  0.56740197  0.54429990  1
  C  C303  1  0.27097122  0.90397424  0.96566933  1
  C  C304  1  0.76369237  0.24128196  0.96370576  1
  C  C305  1  0.48242056  0.92459729  0.46842355  1
  C  C306  1  0.22541980  0.23674176  0.96516071  1
  C  C307  1  0.01677276  0.74176393  0.95970094  1
  C  C308  1  0.95566449  0.59777266  0.04017713  1
  C  C309  1  0.44085105  0.40377344  0.95404028  1
  C  C310  1  0.47192264  0.40735818  0.53313532  1
  C  C311  1  0.18964957  0.90323121  0.95704804  1
  N  N312  1  0.54065315  0.25767457  0.03646255  1
  N  N313  1  0.03534523  0.59630166  0.04228715  1
  N  N314  1  0.29476376  0.42532307  0.04389109  1
  N  N315  1  0.68576762  0.23883392  0.95275265  1
  N  N316  1  0.06730505  0.26056918  0.45356875  1
  N  N317  1  0.45926569  0.07134046  0.96012928  1
  N  N318  1  0.21866681  0.42497939  0.04141011  1
  N  N319  1  0.45628849  0.74342079  0.96383135  1
  N  N320  1  0.94914741  0.07708101  0.95696053  1
  N  N321  1  0.73296974  0.42167984  0.03796799  1
  N  N322  1  0.30961938  0.57183132  0.95148415  1
  N  N323  1  0.94708601  0.40244212  0.95939893  1
  N  N324  1  0.23464272  0.75900019  0.03827476  1
  N  N325  1  0.73011403  0.09112244  0.46166481  1
  N  N326  1  0.27785314  0.23754178  0.53452791  1
  N  N327  1  0.80723137  0.09406488  0.45406526  1
  N  N328  1  0.51844819  0.07301483  0.53674770  1
  N  N329  1  0.96074790  0.26372482  0.03958997  1
  N  N330  1  0.70216446  0.09135133  0.04237242  1
  N  N331  1  0.27925168  0.90700912  0.53723363  1
  N  N332  1  0.93478241  0.59832705  0.45494604  1
  N  N333  1  0.06880150  0.92953613  0.04753773  1
  N  N334  1  0.45504569  0.59176914  0.45765860  1
  N  N335  1  0.78227068  0.42347885  0.46106691  1
  N  N336  1  0.79871406  0.56987968  0.53666232  1
  N  N337  1  0.68533470  0.23995433  0.54754959  1
  N  N338  1  0.53763382  0.07170896  0.95905054  1
  N  N339  1  0.93856811  0.73952816  0.95041224  1
  N  N340  1  0.31214874  0.76110449  0.04277856  1
  N  N341  1  0.97231907  0.92630035  0.46277242  1
  N  N342  1  0.04353719  0.26156834  0.04019006  1
  N  N343  1  0.72068938  0.58233737  0.53761727  1
  N  N344  1  0.81118048  0.43284590  0.04418489  1
  N  N345  1  0.76054696  0.90677853  0.96094590  1
  N  N346  1  0.44218737  0.07138201  0.54146049  1
  N  N347  1  0.20649247  0.09316750  0.04085473  1
  N  N348  1  0.53120893  0.59196151  0.45813784  1
  N  N349  1  0.43733602  0.74148961  0.54215009  1
  N  N350  1  0.95728815  0.74303004  0.54099212  1
  N  N351  1  0.29053543  0.42272303  0.46263755  1
  N  N352  1  0.19914687  0.24613898  0.54086497  1
  N  N353  1  0.99229652  0.92603422  0.03764443  1
  N  N354  1  0.29955798  0.09149397  0.45753712  1
  N  N355  1  0.69367742  0.57266315  0.95525885  1
  N  N356  1  0.68392475  0.90243831  0.95187255  1
  N  N357  1  0.69854148  0.90368674  0.54426800  1
  N  N358  1  0.02338876  0.40444324  0.96495266  1
  N  N359  1  0.48027683  0.25930264  0.46665293  1
  N  N360  1  0.05338167  0.05885458  0.58679386  1
  N  N361  1  0.06640996  0.39047468  0.59324664  1
  N  N362  1  0.06241785  0.72501655  0.59777406  1
  N  N363  1  0.54990533  0.05614773  0.59257995  1
  N  N364  1  0.56801916  0.38839550  0.59995828  1
  N  N365  1  0.55284081  0.72783701  0.58223618  1
  N  N366  1  0.43700318  0.27334605  0.09152455  1
  N  N367  1  0.43238335  0.61360850  0.10062728  1
  N  N368  1  0.44403178  0.94452762  0.09273411  1
  N  N369  1  0.93883090  0.27163169  0.09956930  1
  N  N370  1  0.93005192  0.61322237  0.09725135  1
  N  N371  1  0.95189797  0.94494352  0.08771141  1
  N  N372  1  0.43827408  0.05424453  0.90297414  1
  N  N373  1  0.42684667  0.38624859  0.89423638  1
  N  N374  1  0.43247657  0.72342450  0.90587272  1
  N  N375  1  0.93486934  0.05668820  0.89703998  1
  N  N376  1  0.93001376  0.38756730  0.89930941  1
  N  N377  1  0.92996102  0.72229164  0.89068716  1
  N  N378  1  0.07525745  0.27975249  0.39408907  1
  N  N379  1  0.05304129  0.60895957  0.41082653  1
  N  N380  1  0.07474032  0.94446688  0.40264119  1
  N  N381  1  0.57739104  0.27770064  0.40084836  1
  N  N382  1  0.55686558  0.61170594  0.40154942  1
  N  N383  1  0.57158404  0.94537122  0.39668084  1
  N  N384  1  0.30608428  0.22753235  0.59243792  1
  N  N385  1  0.32083450  0.55171457  0.60436817  1
  N  N386  1  0.30637746  0.88966175  0.59358825  1
  N  N387  1  0.80120122  0.22595319  0.58969306  1
  N  N388  1  0.81931404  0.55658100  0.59505250  1
  N  N389  1  0.81236625  0.89015156  0.59337880  1
  N  N390  1  0.18617639  0.11106035  0.09866572  1
  N  N391  1  0.19041123  0.44291189  0.09797000  1
  N  N392  1  0.19934790  0.77718878  0.09103202  1
  N  N393  1  0.68564162  0.10881040  0.10152313  1
  N  N394  1  0.69735216  0.44565472  0.08875086  1
  N  N395  1  0.69130774  0.77366516  0.08771772  1
  N  N396  1  0.18827774  0.22214731  0.91010379  1
  N  N397  1  0.19090040  0.55620660  0.91014431  1
  N  N398  1  0.17603624  0.88815226  0.89658814  1
  N  N399  1  0.68034176  0.22181720  0.89230498  1
  N  N400  1  0.68365552  0.55628577  0.89558728  1
  N  N401  1  0.67594672  0.88432091  0.89338748  1
  N  N402  1  0.32158250  0.11092136  0.40062700  1
  N  N403  1  0.31239422  0.44259584  0.40401613  1
  N  N404  1  0.32326952  0.78028831  0.39842706  1
  N  N405  1  0.81791019  0.11084943  0.39534585  1
  N  N406  1  0.80868181  0.44245823  0.40297943  1
  N  N407  1  0.81962983  0.77881807  0.40171692  1
  N  N408  1  0.44976637  0.27705844  0.40967916  1
  N  N409  1  0.43034577  0.61097073  0.40046925  1
  N  N410  1  0.44404993  0.94012246  0.41647712  1
  N  N411  1  0.94931338  0.27572451  0.41115107  1
  N  N412  1  0.92700379  0.61525151  0.39463633  1
  N  N413  1  0.94672702  0.94487021  0.40444704  1
  N  N414  1  0.06232997  0.06149189  0.90843235  1
  N  N415  1  0.05605635  0.39084618  0.90850647  1
  N  N416  1  0.05616701  0.72604351  0.90682281  1
  N  N417  1  0.56536042  0.05394484  0.90368890  1
  N  N418  1  0.55614659  0.39006615  0.90584958  1
  N  N419  1  0.56073806  0.72291757  0.90682853  1
  N  N420  1  0.06553494  0.28549001  0.09544043  1
  N  N421  1  0.05886291  0.60683438  0.10168491  1
  N  N422  1  0.07670624  0.94675204  0.10622967  1
  N  N423  1  0.56584724  0.27664320  0.09386509  1
  N  N424  1  0.56099565  0.60953585  0.08551573  1
  N  N425  1  0.57331708  0.94448160  0.10345789  1
  N  N426  1  0.42379146  0.05328156  0.60041700  1
  N  N427  1  0.43884852  0.39123403  0.58706281  1
  N  N428  1  0.42688393  0.71968099  0.60096780  1
  N  N429  1  0.92524164  0.05378718  0.60301334  1
  N  N430  1  0.93638657  0.38912806  0.59811852  1
  N  N431  1  0.93433613  0.72350237  0.59966649  1
  N  N432  1  0.19257718  0.10825530  0.40462191  1
  N  N433  1  0.18420057  0.44098988  0.40685018  1
  N  N434  1  0.19400212  0.77586650  0.40939825  1
  N  N435  1  0.69223790  0.10563145  0.40883554  1
  N  N436  1  0.68073645  0.44252788  0.40035956  1
  N  N437  1  0.68979047  0.77470486  0.40799386  1
  N  N438  1  0.31668851  0.22157061  0.89330850  1
  N  N439  1  0.31665185  0.55466085  0.89154203  1
  N  N440  1  0.30523217  0.88938368  0.90988497  1
  N  N441  1  0.80571106  0.22603212  0.91161811  1
  N  N442  1  0.81046765  0.55909963  0.90913221  1
  N  N443  1  0.80079279  0.88761143  0.91081686  1
  N  N444  1  0.31424491  0.10911083  0.09798897  1
  N  N445  1  0.31685241  0.44403993  0.10182835  1
  N  N446  1  0.32583851  0.77849981  0.10084149  1
  N  N447  1  0.81341426  0.10786036  0.09520657  1
  N  N448  1  0.82361156  0.44322513  0.10443961  1
  N  N449  1  0.81991367  0.77722923  0.10219852  1
  N  N450  1  0.17844200  0.22263871  0.59553592  1
  N  N451  1  0.19109935  0.55484247  0.59524549  1
  N  N452  1  0.17875819  0.88902677  0.60090328  1
  N  N453  1  0.67415619  0.22069912  0.60631117  1
  N  N454  1  0.69173098  0.55649777  0.58974290  1
  N  N455  1  0.68497347  0.88672398  0.60359892  1
  Cl  Cl456  1  0.23717772  0.05925808  0.60932781  1
  Cl  Cl457  1  0.25245495  0.38294084  0.61598477  1
  Cl  Cl458  1  0.24366503  0.72250663  0.62715388  1
  Cl  Cl459  1  0.73315013  0.05556886  0.60631078  1
  Cl  Cl460  1  0.75209227  0.38217478  0.63008080  1
  Cl  Cl461  1  0.74428448  0.72224413  0.60753074  1
  Cl  Cl462  1  0.24873484  0.27484364  0.12044453  1
  Cl  Cl463  1  0.24095075  0.61368543  0.11693292  1
  Cl  Cl464  1  0.26226952  0.94670273  0.12058416  1
  Cl  Cl465  1  0.75423077  0.27988445  0.11364771  1
  Cl  Cl466  1  0.74697155  0.60967323  0.11486852  1
  Cl  Cl467  1  0.77379500  0.93617284  0.09960288  1
  Cl  Cl468  1  0.25252104  0.05565354  0.87998698  1
  Cl  Cl469  1  0.23934129  0.38674267  0.88032668  1
  Cl  Cl470  1  0.24086646  0.72410746  0.89708882  1
  Cl  Cl471  1  0.74868588  0.05131714  0.87979148  1
  Cl  Cl472  1  0.74359955  0.39609057  0.89478877  1
  Cl  Cl473  1  0.74374177  0.71882952  0.87546605  1
  Cl  Cl474  1  0.26370897  0.27735839  0.39199263  1
  Cl  Cl475  1  0.24138846  0.60855109  0.38731960  1
  Cl  Cl476  1  0.25836538  0.94667710  0.38747534  1
  Cl  Cl477  1  0.76321949  0.27535624  0.38796418  1
  Cl  Cl478  1  0.74055583  0.60648761  0.38851381  1
  Cl  Cl479  1  0.76288390  0.94671875  0.37710292  1
  Cl  Cl480  1  -0.00894093  0.22538433  0.61766755  1
  Cl  Cl481  1  0.00306983  0.55447725  0.61983181  1
  Cl  Cl482  1  -0.00402368  0.88573091  0.62264845  1
  Cl  Cl483  1  0.48946767  0.22085775  0.61821793  1
  Cl  Cl484  1  0.50867482  0.55476815  0.61605443  1
  Cl  Cl485  1  0.49461475  0.88251954  0.61602721  1
  Cl  Cl486  1  -0.00077341  0.11951735  0.11272774  1
  Cl  Cl487  1  0.00534687  0.45162448  0.12035205  1
  Cl  Cl488  1  0.01671641  0.77686403  0.11072538  1
  Cl  Cl489  1  0.50109600  0.11334073  0.11562480  1
  Cl  Cl490  1  0.51167506  0.44139358  0.11095540  1
  Cl  Cl491  1  0.50892249  0.78127969  0.11703921  1
  Cl  Cl492  1  -0.00357061  0.22541888  0.89602320  1
  Cl  Cl493  1  0.00223538  0.55811721  0.89789058  1
  Cl  Cl494  1  -0.01964355  0.90152262  0.89818392  1
  Cl  Cl495  1  0.49925289  0.21930044  0.88344984  1
  Cl  Cl496  1  0.50086838  0.55422613  0.87682596  1
  Cl  Cl497  1  0.48921023  0.88507232  0.88285243  1
  Cl  Cl498  1  0.00611002  0.11087529  0.37920686  1
  Cl  Cl499  1  -0.00362449  0.44640695  0.38733423  1
  Cl  Cl500  1  0.00827478  0.78409452  0.37668237  1
  Cl  Cl501  1  0.50930416  0.11364013  0.38376909  1
  Cl  Cl502  1  0.49725325  0.44298986  0.37831689  1
  Cl  Cl503  1  0.50631840  0.78063500  0.38276167  1
  Cl  Cl504  1  0.35786190  0.14774531  0.75120031  1
  Cl  Cl505  1  0.36525014  0.47684915  0.75298365  1
  Cl  Cl506  1  0.34967447  0.81798633  0.75025634  1
  Cl  Cl507  1  0.85630370  0.14742405  0.74711892  1
  Cl  Cl508  1  0.85894081  0.48092121  0.74876616  1
  Cl  Cl509  1  0.86014455  0.81175650  0.75326817  1
  Cl  Cl510  1  0.14233169  0.18673381  0.25544524  1
  Cl  Cl511  1  0.14254692  0.51748921  0.25103378  1
  Cl  Cl512  1  0.14585327  0.85338966  0.24728061  1
  Cl  Cl513  1  0.64966373  0.18638775  0.24920777  1
  Cl  Cl514  1  0.64838307  0.51792453  0.24945683  1
  Cl  Cl515  1  0.64612570  0.85184646  0.24984626  1
  Cl  Cl516  1  0.13825244  0.15065880  0.74654393  1
  Cl  Cl517  1  0.14179962  0.48117520  0.74804456  1
  Cl  Cl518  1  0.12749744  0.81248667  0.76019449  1
  Cl  Cl519  1  0.63701633  0.14651444  0.75109331  1
  Cl  Cl520  1  0.63824179  0.48263234  0.75303463  1
  Cl  Cl521  1  0.63841403  0.81503504  0.74763994  1
  Cl  Cl522  1  0.36231940  0.18182301  0.25255160  1
  Cl  Cl523  1  0.36420411  0.51936969  0.24977443  1
  Cl  Cl524  1  0.36431813  0.85121317  0.25209096  1
  Cl  Cl525  1  0.86634120  0.18575387  0.25344519  1
  Cl  Cl526  1  0.86738307  0.52181748  0.24756903  1
  Cl  Cl527  1  0.86658756  0.84986730  0.24146608  1
  Cl  Cl528  1  0.10574918  0.31479172  0.74837393  1
  Cl  Cl529  1  0.11065255  0.64613128  0.75079393  1
  Cl  Cl530  1  0.10801102  0.98030755  0.75089613  1
  Cl  Cl531  1  0.61016869  0.31287417  0.74898484  1
  Cl  Cl532  1  0.60470135  0.64970052  0.74608117  1
  Cl  Cl533  1  0.60739056  0.97800972  0.75159335  1
  Cl  Cl534  1  0.40222110  0.01811414  0.25263130  1
  Cl  Cl535  1  0.39560535  0.35032822  0.24517476  1
  Cl  Cl536  1  0.38748807  0.68895695  0.23996031  1
  Cl  Cl537  1  0.89496927  0.01874100  0.24744791  1
  Cl  Cl538  1  0.89768141  0.35263357  0.24411775  1
  Cl  Cl539  1  0.89257213  0.68717731  0.25369441  1
  Cl  Cl540  1  0.38843072  0.31219917  0.75318563  1
  Cl  Cl541  1  0.38210918  0.64576910  0.74901728  1
  Cl  Cl542  1  0.38734500  0.98363124  0.74835529  1
  Cl  Cl543  1  0.88497609  0.31431104  0.75724448  1
  Cl  Cl544  1  0.88848209  0.64481631  0.75439595  1
  Cl  Cl545  1  0.88518871  0.98346373  0.74658223  1
  Cl  Cl546  1  0.11761671  0.02024820  0.24152780  1
  Cl  Cl547  1  0.11653498  0.35218490  0.25463142  1
  Cl  Cl548  1  0.11120421  0.68241329  0.24756886  1
  Cl  Cl549  1  0.62276522  0.02014875  0.24730019  1
  Cl  Cl550  1  0.61441839  0.35136603  0.24894435  1
  Cl  Cl551  1  0.60809404  0.68159848  0.25113006  1
