# generated using pymatgen
data_H8PbC4(N3Cl2)2
_symmetry_space_group_name_H-M   'P 1'
_cell_length_a   16.62384818
_cell_length_b   22.51387605
_cell_length_c   21.59276491
_cell_angle_alpha   90.00206102
_cell_angle_beta   89.99743430
_cell_angle_gamma   89.98744552
_symmetry_Int_Tables_number   1
_chemical_formula_structural   H8PbC4(N3Cl2)2
_chemical_formula_sum   'H192 Pb24 C96 N144 Cl96'
_cell_volume   8081.46469537
_cell_formula_units_Z   24
loop_
 _symmetry_equiv_pos_site_id
 _symmetry_equiv_pos_as_xyz
  1  'x, y, z'
loop_
 _atom_site_type_symbol
 _atom_site_label
 _atom_site_symmetry_multiplicity
 _atom_site_fract_x
 _atom_site_fract_y
 _atom_site_fract_z
 _atom_site_occupancy
  H  H0  1  0.00056955  0.02633412  0.68143965  1
  H  H1  1  0.00932242  0.36285362  0.67573661  1
  H  H2  1  0.01266704  0.69994481  0.67794815  1
  H  H3  1  0.50595399  0.02820189  0.67889991  1
  H  H4  1  0.49417193  0.36078556  0.67912690  1
  H  H5  1  0.50392337  0.69733087  0.68309479  1
  H  H6  1  -0.00649059  0.30248270  0.17631992  1
  H  H7  1  -0.00948193  0.63382201  0.17827000  1
  H  H8  1  -0.00340212  0.97439964  0.17715538  1
  H  H9  1  0.50744990  0.30134229  0.18019955  1
  H  H10  1  0.51233097  0.63609600  0.17733322  1
  H  H11  1  0.49195567  0.97281013  0.17682090  1
  H  H12  1  0.01481495  0.03427265  0.82466057  1
  H  H13  1  0.00166859  0.36067035  0.82455132  1
  H  H14  1  0.01896659  0.69847968  0.82172471  1
  H  H15  1  0.48804389  0.03206661  0.82262561  1
  H  H16  1  0.50828008  0.36538958  0.82074170  1
  H  H17  1  0.48258003  0.69427434  0.82392927  1
  H  H18  1  0.00059728  0.30148422  0.32019592  1
  H  H19  1  -0.01015989  0.64039786  0.32447793  1
  H  H20  1  0.01278602  0.96922377  0.32505520  1
  H  H21  1  0.50778566  0.30181531  0.32210928  1
  H  H22  1  0.50367484  0.63884942  0.32465387  1
  H  H23  1  0.49391965  0.97003373  0.31955404  1
  H  H24  1  0.24615930  0.19497217  0.68061043  1
  H  H25  1  0.24535402  0.53074021  0.67737966  1
  H  H26  1  0.25347371  0.86074955  0.67741608  1
  H  H27  1  0.74608894  0.19761003  0.68106951  1
  H  H28  1  0.75709160  0.53050423  0.67965987  1
  H  H29  1  0.73382863  0.86371229  0.67312519  1
  H  H30  1  0.25164619  0.13617123  0.17106856  1
  H  H31  1  0.26077384  0.46970846  0.17776640  1
  H  H32  1  0.25310399  0.80375282  0.18255533  1
  H  H33  1  0.74744229  0.13745596  0.18347874  1
  H  H34  1  0.74428493  0.46959199  0.17924389  1
  H  H35  1  0.75020020  0.80061261  0.17819396  1
  H  H36  1  0.25049530  0.19323879  0.82538202  1
  H  H37  1  0.24902783  0.53033698  0.82285044  1
  H  H38  1  0.25818153  0.86702393  0.82005233  1
  H  H39  1  0.74706053  0.19178166  0.82444429  1
  H  H40  1  0.75144058  0.53219659  0.82035350  1
  H  H41  1  0.74875728  0.86508564  0.81873277  1
  H  H42  1  0.24329605  0.13686633  0.31997584  1
  H  H43  1  0.24607869  0.47085399  0.32211520  1
  H  H44  1  0.23696071  0.80297652  0.32292127  1
  H  H45  1  0.74530548  0.13683483  0.32223663  1
  H  H46  1  0.74734985  0.46694175  0.32346328  1
  H  H47  1  0.74677048  0.80897693  0.31862757  1
  H  H48  1  0.12311997  0.05142691  0.60817593  1
  H  H49  1  0.10841048  0.39563729  0.58912583  1
  H  H50  1  0.11949248  0.72571282  0.59528169  1
  H  H51  1  0.62129260  0.05550007  0.59996154  1
  H  H52  1  0.61215780  0.38649690  0.60152036  1
  H  H53  1  0.61759854  0.72493977  0.60236708  1
  H  H54  1  0.36746703  0.28111798  0.12505011  1
  H  H55  1  0.37960430  0.61315230  0.11697000  1
  H  H56  1  0.38594820  0.94536456  0.09252531  1
  H  H57  1  0.87063664  0.27595121  0.10543421  1
  H  H58  1  0.88803709  0.60634461  0.09260825  1
  H  H59  1  0.88866590  0.94240343  0.09503935  1
  H  H60  1  0.36545380  0.05533587  0.89494369  1
  H  H61  1  0.36760021  0.38439234  0.87279941  1
  H  H62  1  0.38410940  0.72643894  0.91159614  1
  H  H63  1  0.87485647  0.05065041  0.87404130  1
  H  H64  1  0.86796920  0.38401567  0.88390808  1
  H  H65  1  0.87613418  0.71615073  0.87055531  1
  H  H66  1  0.11624429  0.27659235  0.39866425  1
  H  H67  1  0.13225190  0.62219601  0.37405098  1
  H  H68  1  0.12384371  0.94270473  0.40461965  1
  H  H69  1  0.61537812  0.27686887  0.40397422  1
  H  H70  1  0.63205690  0.61129221  0.38919134  1
  H  H71  1  0.62844933  0.94941814  0.38186718  1
  H  H72  1  0.38045805  0.21805400  0.61753464  1
  H  H73  1  0.36274143  0.55784076  0.60102129  1
  H  H74  1  0.36819537  0.88759810  0.60206658  1
  H  H75  1  0.88083374  0.21743259  0.62052007  1
  H  H76  1  0.86320242  0.55981069  0.59681321  1
  H  H77  1  0.87556135  0.87944912  0.62423119  1
  H  H78  1  0.13054809  0.11422169  0.10003170  1
  H  H79  1  0.13477840  0.44390673  0.10890442  1
  H  H80  1  0.12520530  0.78179723  0.11570652  1
  H  H81  1  0.62933156  0.11164671  0.10602748  1
  H  H82  1  0.63723993  0.44408265  0.09552054  1
  H  H83  1  0.62523057  0.77648966  0.11031256  1
  H  H84  1  0.13094468  0.22066474  0.89911201  1
  H  H85  1  0.11701182  0.55100835  0.88511094  1
  H  H86  1  0.11785451  0.88348697  0.87259461  1
  H  H87  1  0.63427256  0.22213253  0.90293819  1
  H  H88  1  0.61663385  0.55202155  0.88157932  1
  H  H89  1  0.61366845  0.88806483  0.87888286  1
  H  H90  1  0.37831624  0.11860939  0.38022163  1
  H  H91  1  0.38441124  0.45079981  0.37748292  1
  H  H92  1  0.37519372  0.78442361  0.37435581  1
  H  H93  1  0.87385631  0.11401573  0.38584677  1
  H  H94  1  0.87983315  0.44461615  0.38596334  1
  H  H95  1  0.87927929  0.78414666  0.38290974  1
  H  H96  1  0.36970839  0.28403835  0.37536803  1
  H  H97  1  0.38421635  0.61467887  0.39931291  1
  H  H98  1  0.38018368  0.94388840  0.39813372  1
  H  H99  1  0.86734001  0.28039092  0.38147612  1
  H  H100  1  0.88869308  0.60679165  0.40909576  1
  H  H101  1  0.87750016  0.95140311  0.38088677  1
  H  H102  1  0.11873802  0.05983599  0.90970679  1
  H  H103  1  0.11571627  0.39051891  0.90170161  1
  H  H104  1  0.11914643  0.72799755  0.90938022  1
  H  H105  1  0.61495930  0.05374438  0.88804907  1
  H  H106  1  0.61069870  0.39284380  0.90818831  1
  H  H107  1  0.62637968  0.71403154  0.87022620  1
  H  H108  1  0.11966512  0.27806587  0.10735900  1
  H  H109  1  0.13280080  0.61646908  0.12695976  1
  H  H110  1  0.13483760  0.95477718  0.12265969  1
  H  H111  1  0.61364105  0.27415079  0.09644987  1
  H  H112  1  0.62702490  0.60854173  0.09847196  1
  H  H113  1  0.63000984  0.94823813  0.12265570  1
  H  H114  1  0.37335461  0.05105552  0.61730068  1
  H  H115  1  0.36412846  0.38701834  0.61272160  1
  H  H116  1  0.36982206  0.71967495  0.62019067  1
  H  H117  1  0.87424306  0.05155588  0.61023385  1
  H  H118  1  0.86587979  0.38176576  0.62895913  1
  H  H119  1  0.87462717  0.71766673  0.62605547  1
  H  H120  1  0.12982856  0.11109227  0.39653074  1
  H  H121  1  0.13892843  0.44106101  0.40483532  1
  H  H122  1  0.13028064  0.77731392  0.40595902  1
  H  H123  1  0.62489078  0.11530811  0.39578177  1
  H  H124  1  0.63273506  0.44404265  0.40195746  1
  H  H125  1  0.63113662  0.77936405  0.39663652  1
  H  H126  1  0.37905692  0.21821210  0.89289353  1
  H  H127  1  0.36575837  0.55519281  0.89706425  1
  H  H128  1  0.36328226  0.89387381  0.90296550  1
  H  H129  1  0.88168301  0.21927956  0.88108680  1
  H  H130  1  0.86374334  0.55870686  0.90171405  1
  H  H131  1  0.86187332  0.88965863  0.89811365  1
  H  H132  1  0.37897763  0.11265994  0.10668641  1
  H  H133  1  0.38287073  0.44590564  0.10369979  1
  H  H134  1  0.37456331  0.77557298  0.10993725  1
  H  H135  1  0.87814478  0.11573487  0.11557842  1
  H  H136  1  0.88342394  0.44668597  0.12525147  1
  H  H137  1  0.87408430  0.77821017  0.10878251  1
  H  H138  1  0.13239413  0.22363970  0.60078426  1
  H  H139  1  0.11488901  0.55605234  0.61225467  1
  H  H140  1  0.11963174  0.88062593  0.61693473  1
  H  H141  1  0.63243727  0.22079151  0.60366432  1
  H  H142  1  0.61749158  0.55075738  0.62435347  1
  H  H143  1  0.63199134  0.89099105  0.58910388  1
  H  H144  1  0.79030565  0.58997218  0.49445012  1
  H  H145  1  0.03717434  0.75172275  1.00708199  1
  H  H146  1  0.15283137  0.58544713  0.50517986  1
  H  H147  1  0.96789032  0.58345808  0.50830114  1
  H  H148  1  0.33058162  0.41878340  0.00059237  1
  H  H149  1  0.32041712  0.75672287  0.00338519  1
  H  H150  1  0.46818988  0.74862935  1.00897661  1
  H  H151  1  0.59223123  0.58820199  0.49667723  1
  H  H152  1  0.69851715  0.40449698  0.49908447  1
  H  H153  1  0.54005479  0.24290461  -0.00538450  1
  H  H154  1  0.02596562  0.41977054  0.49114068  1
  H  H155  1  0.96437747  0.57908826  -0.01003605  1
  H  H156  1  0.35871702  0.75317751  0.48963485  1
  H  H157  1  0.89639593  0.91720240  0.49550289  1
  H  H158  1  0.53034100  0.42110684  1.00506161  1
  H  H159  1  0.33543657  0.24555738  0.99807391  1
  H  H160  1  0.79313189  0.58578491  1.00251815  1
  H  H161  1  0.83698174  0.08116194  0.49784608  1
  H  H162  1  0.05202973  0.41519176  1.00511430  1
  H  H163  1  0.16731213  0.75523620  0.00328267  1
  H  H164  1  0.29035951  0.92521373  1.00710757  1
  H  H165  1  0.21402886  0.42394180  0.50596322  1
  H  H166  1  0.86394758  0.41834011  0.01468728  1
  H  H167  1  0.88771025  0.08298701  -0.01078613  1
  H  H168  1  0.36023390  0.41354283  0.48300062  1
  H  H169  1  0.57455322  0.08510886  1.00065775  1
  H  H170  1  0.30815448  0.91750074  0.49278227  1
  H  H171  1  0.40471876  0.08452400  0.50662290  1
  H  H172  1  0.64399815  0.91384867  0.98747990  1
  H  H173  1  0.89108868  0.74892645  0.51109248  1
  H  H174  1  0.44305379  0.57142991  0.49543689  1
  H  H175  1  0.38834021  0.25281786  0.48981165  1
  H  H176  1  0.96023329  0.91890683  -0.00533890  1
  H  H177  1  0.69277059  0.24782540  0.49458217  1
  H  H178  1  0.89518626  0.24839403  0.49299420  1
  H  H179  1  0.70279786  0.25105257  1.00457945  1
  H  H180  1  0.83255033  0.74951594  -0.00196700  1
  H  H181  1  0.12166814  0.58581080  0.01553610  1
  H  H182  1  0.05433215  0.24451217  0.49953184  1
  H  H183  1  0.70793657  0.41473424  -0.00805942  1
  H  H184  1  0.11626804  0.92110804  0.00864085  1
  H  H185  1  0.66498676  0.74838583  -0.00080658  1
  H  H186  1  0.46250436  0.91943459  -0.00717038  1
  H  H187  1  0.79906050  0.91754989  1.00483513  1
  H  H188  1  0.44537243  0.91442801  0.50398144  1
  H  H189  1  0.18984073  0.07872804  0.50372362  1
  H  H190  1  0.31168389  0.58373708  1.00623574  1
  H  H191  1  0.84780559  0.42106661  0.49597256  1
  Pb  Pb192  1  0.24125321  0.04842724  0.75265789  1
  Pb  Pb193  1  0.24123620  0.38152831  0.74634253  1
  Pb  Pb194  1  0.24097801  0.71714211  0.75951091  1
  Pb  Pb195  1  0.74453556  0.04832990  0.74680672  1
  Pb  Pb196  1  0.73777190  0.38251129  0.75030075  1
  Pb  Pb197  1  0.73941402  0.71567846  0.74445974  1
  Pb  Pb198  1  0.25388745  0.28403073  0.24939932  1
  Pb  Pb199  1  0.25896215  0.61837440  0.25440097  1
  Pb  Pb200  1  0.25645104  0.95263133  0.25261536  1
  Pb  Pb201  1  0.75482207  0.28449332  0.24647423  1
  Pb  Pb202  1  0.75678563  0.61805976  0.24678029  1
  Pb  Pb203  1  0.75689753  0.95302168  0.24196237  1
  Pb  Pb204  1  -0.00270836  0.21494787  0.74321380  1
  Pb  Pb205  1  -0.01056391  0.54966721  0.74783038  1
  Pb  Pb206  1  -0.01216476  0.88174056  0.76206204  1
  Pb  Pb207  1  0.49655611  0.21317911  0.75529240  1
  Pb  Pb208  1  0.48813161  0.54859410  0.74376172  1
  Pb  Pb209  1  0.49069146  0.88365314  0.74776753  1
  Pb  Pb210  1  0.00703925  0.11861286  0.24933283  1
  Pb  Pb211  1  0.00935961  0.45053719  0.25322727  1
  Pb  Pb212  1  0.00575527  0.78538166  0.24909293  1
  Pb  Pb213  1  0.50627925  0.11938191  0.24670977  1
  Pb  Pb214  1  0.50878020  0.45084700  0.24330271  1
  Pb  Pb215  1  0.50600661  0.78535840  0.24600056  1
  C  C216  1  -0.00077057  0.04265448  0.63414215  1
  C  C217  1  -0.00549506  0.37863795  0.62960619  1
  C  C218  1  0.00120154  0.71398390  0.63077669  1
  C  C219  1  0.50030279  0.04471526  0.63194704  1
  C  C220  1  0.48992220  0.37651894  0.63168344  1
  C  C221  1  0.49725689  0.71302348  0.63586312  1
  C  C222  1  -0.00524530  0.28604022  0.12936524  1
  C  C223  1  0.00474532  0.61910292  0.13145846  1
  C  C224  1  0.00655964  0.95824072  0.13027373  1
  C  C225  1  0.49578830  0.28621645  0.13329565  1
  C  C226  1  0.50663136  0.61946968  0.13059857  1
  C  C227  1  0.50264952  0.95640938  0.13028682  1
  C  C228  1  0.00171630  0.04839345  0.87154200  1
  C  C229  1  -0.00450143  0.37751284  0.87143215  1
  C  C230  1  0.00519756  0.71325995  0.86838603  1
  C  C231  1  0.49007993  0.04689690  0.87027896  1
  C  C232  1  0.49577454  0.38022852  0.86755127  1
  C  C233  1  0.49754498  0.71032272  0.86991806  1
  C  C234  1  -0.00508933  0.28605913  0.36774762  1
  C  C235  1  0.00337636  0.62415940  0.37066533  1
  C  C236  1  0.00399310  0.95444492  0.37233211  1
  C  C237  1  0.49657725  0.28759687  0.36924667  1
  C  C238  1  0.50677134  0.62190110  0.37168862  1
  C  C239  1  0.50104441  0.95465905  0.36684197  1
  C  C240  1  0.25290555  0.21123237  0.63360891  1
  C  C241  1  0.24040648  0.54792716  0.63058741  1
  C  C242  1  0.24732580  0.87599723  0.63006099  1
  C  C243  1  0.75281893  0.21188361  0.63345581  1
  C  C244  1  0.74544748  0.54670992  0.63315110  1
  C  C245  1  0.74758402  0.87812239  0.62639577  1
  C  C246  1  0.25377037  0.12079376  0.12346134  1
  C  C247  1  0.25981669  0.45370866  0.13036174  1
  C  C248  1  0.25145212  0.78832148  0.13483608  1
  C  C249  1  0.75150344  0.12207858  0.13596528  1
  C  C250  1  0.75582911  0.45368097  0.13246596  1
  C  C251  1  0.74974695  0.78506240  0.13052381  1
  C  C252  1  0.25396366  0.20977013  0.87247895  1
  C  C253  1  0.24418180  0.54569637  0.87034487  1
  C  C254  1  0.24624900  0.88115457  0.86722430  1
  C  C255  1  0.75397523  0.20970977  0.87063403  1
  C  C256  1  0.74430580  0.54723772  0.86777238  1
  C  C257  1  0.74067310  0.88041753  0.86607741  1
  C  C258  1  0.25016353  0.12198675  0.36738389  1
  C  C259  1  0.25663875  0.45469272  0.36890068  1
  C  C260  1  0.24852645  0.78827593  0.36985873  1
  C  C261  1  0.74864780  0.12178478  0.36982117  1
  C  C262  1  0.75360979  0.45188364  0.37112734  1
  C  C263  1  0.75232023  0.79216108  0.36556156  1
  C  C264  1  0.02088294  0.74204321  0.53406085  1
  C  C265  1  0.27448138  0.90525738  0.53401432  1
  C  C266  1  0.18144481  0.90609576  0.95299785  1
  C  C267  1  0.45169165  0.07396823  0.54300180  1
  C  C268  1  0.94089828  0.40564692  0.96028159  1
  C  C269  1  0.81050030  0.24434060  0.95672657  1
  C  C270  1  0.51773866  0.26014748  0.46599002  1
  C  C271  1  0.72703296  0.23767467  0.53609702  1
  C  C272  1  0.76141280  0.57750556  0.53793936  1
  C  C273  1  0.27360892  0.57324446  0.96637034  1
  C  C274  1  0.51132645  0.25623427  0.03789680  1
  C  C275  1  0.70784513  0.75852174  0.03683736  1
  C  C276  1  0.26147136  0.91069706  0.96446137  1
  C  C277  1  0.30570377  0.09610073  0.45643480  1
  C  C278  1  0.99100143  0.59078233  0.03450343  1
  C  C279  1  0.53332512  0.07411832  0.96332328  1
  C  C280  1  0.94711495  0.92757869  0.46135940  1
  C  C281  1  0.07069946  0.59707465  0.45453078  1
  C  C282  1  0.79427114  0.09327539  0.46185111  1
  C  C283  1  0.43708091  0.26192372  0.45724941  1
  C  C284  1  0.47737780  0.92604366  0.46167111  1
  C  C285  1  0.73427934  0.90684449  0.53066881  1
  C  C286  1  0.92525304  0.40794154  0.54759193  1
  C  C287  1  0.29820330  0.09228654  0.03321951  1
  C  C288  1  0.79016825  0.75915570  0.03627228  1
  C  C289  1  0.21764381  0.09288223  0.03094152  1
  C  C290  1  0.73657126  0.42527563  0.03602325  1
  C  C291  1  0.95942635  0.25478788  0.03765657  1
  C  C292  1  0.45146923  0.07403368  0.96410422  1
  C  C293  1  0.93770244  0.07415241  0.95767638  1
  C  C294  1  0.02824986  0.92511466  0.46790635  1
  C  C295  1  0.22902156  0.76007390  0.46647994  1
  C  C296  1  0.76730196  0.90733293  0.96194872  1
  C  C297  1  0.19350381  0.90229983  0.54085231  1
  C  C298  1  0.20633092  0.76243113  0.04302406  1
  C  C299  1  0.06744208  0.93017573  0.04431748  1
  C  C300  1  0.94190360  0.25905305  0.45700375  1
  C  C301  1  0.71282804  0.09470924  0.46400036  1
  C  C302  1  0.56826509  0.73772360  0.95224887  1
  C  C303  1  0.01809919  0.07682750  0.96843623  1
  C  C304  1  0.22440602  0.09247381  0.46343836  1
  C  C305  1  0.45721146  0.58925268  0.04235609  1
  C  C306  1  0.81378440  0.90325004  0.54199309  1
  C  C307  1  0.30965328  0.76215467  0.45716979  1
  C  C308  1  0.93580837  0.73951099  0.95217856  1
  C  C309  1  0.19183622  0.57130651  0.96122169  1
  C  C310  1  0.80798746  0.23595081  0.54396931  1
  C  C311  1  0.94021503  0.73976651  0.54331325  1
  N  N312  1  0.72495648  0.76028779  0.45964592  1
  N  N313  1  0.47396252  0.59873965  0.46575876  1
  N  N314  1  0.53411801  0.58809784  0.03505748  1
  N  N315  1  0.44652829  0.73926717  0.54612669  1
  N  N316  1  0.72622976  0.43127198  0.46695161  1
  N  N317  1  0.06900503  0.59420952  0.04697557  1
  N  N318  1  0.68308836  0.57510629  0.54719572  1
  N  N319  1  0.21744649  0.23961106  0.96562728  1
  N  N320  1  0.30294613  0.23979261  0.54465941  1
  N  N321  1  0.73195598  0.24393621  0.96315613  1
  N  N322  1  0.23761559  0.42024830  0.46153624  1
  N  N323  1  0.02128936  0.25869983  0.46205408  1
  N  N324  1  0.80426700  0.42332589  0.45861317  1
  N  N325  1  0.03667602  0.25576040  0.03675020  1
  N  N326  1  0.01316484  0.74297224  0.96410860  1
  N  N327  1  0.52231534  0.74145302  0.54027762  1
  N  N328  1  0.55214002  0.58908375  0.45933560  1
  N  N329  1  0.19591773  0.57642504  0.54156478  1
  N  N330  1  0.56408567  0.92713234  0.04543992  1
  N  N331  1  0.29349805  0.42778832  0.03796718  1
  N  N332  1  0.72071973  0.09398901  0.04121700  1
  N  N333  1  0.00249329  0.41203414  0.53526097  1
  N  N334  1  0.53056547  0.07588660  0.53697783  1
  N  N335  1  0.01971842  0.40814655  0.96523829  1
  N  N336  1  0.99318957  0.59171288  0.46532156  1
  N  N337  1  0.42973847  0.40643698  0.95174034  1
  N  N338  1  0.55612565  0.92747509  0.45627537  1
  N  N339  1  0.79691473  0.09547247  0.04462656  1
  N  N340  1  0.29541391  0.23826402  0.96199074  1
  N  N341  1  0.68773389  0.57184284  0.95651212  1
  N  N342  1  0.52055316  0.40271126  0.53630314  1
  N  N343  1  0.49112955  0.74186911  0.96502181  1
  N  N344  1  0.21519861  0.42645952  0.03822522  1
  N  N345  1  0.76524774  0.57440345  0.96171635  1
  N  N346  1  0.68838302  0.90683181  0.95418629  1
  N  N347  1  0.22720356  0.24158419  0.53876565  1
  N  N348  1  0.48698735  0.92521756  0.03667654  1
  N  N349  1  0.03564062  0.07138749  0.54064783  1
  N  N350  1  0.98859944  0.92541673  0.03671445  1
  N  N351  1  0.43303035  0.25856578  0.04719946  1
  N  N352  1  0.80067745  0.76179535  0.45474631  1
  N  N353  1  0.27383072  0.57694725  0.53652369  1
  N  N354  1  0.44408654  0.40142423  0.53975306  1
  N  N355  1  0.81501291  0.42523354  0.04719568  1
  N  N356  1  0.95919687  0.07152418  0.54162377  1
  N  N357  1  0.31524032  0.43169734  0.45493537  1
  N  N358  1  0.50662020  0.40957039  0.96207642  1
  N  N359  1  0.28583178  0.75937604  0.04248455  1
  N  N360  1  0.06179548  0.05369902  0.59785108  1
  N  N361  1  0.04605377  0.39093156  0.58486824  1
  N  N362  1  0.05773857  0.72650643  0.58671646  1
  N  N363  1  0.55923537  0.05731434  0.59277332  1
  N  N364  1  0.55014769  0.38700699  0.59294162  1
  N  N365  1  0.55531536  0.72540725  0.59584608  1
  N  N366  1  0.42519593  0.27720928  0.10691638  1
  N  N367  1  0.43760916  0.60802646  0.10011310  1
  N  N368  1  0.44837069  0.94600073  0.08690376  1
  N  N369  1  0.93060099  0.27317821  0.09340912  1
  N  N370  1  0.95060764  0.60612069  0.08679572  1
  N  N371  1  0.95104511  0.94547109  0.08849004  1
  N  N372  1  0.42591995  0.05783168  0.90769543  1
  N  N373  1  0.42375820  0.38893921  0.89254833  1
  N  N374  1  0.44638866  0.72213674  0.91506741  1
  N  N375  1  0.92923516  0.05641875  0.89642806  1
  N  N376  1  0.92543643  0.38834794  0.90154413  1
  N  N377  1  0.93093909  0.72217821  0.89257192  1
  N  N378  1  0.05407871  0.27470433  0.40689934  1
  N  N379  1  0.07725486  0.61560558  0.39521382  1
  N  N380  1  0.06257343  0.94119181  0.41419112  1
  N  N381  1  0.55367880  0.27563096  0.41299536  1
  N  N382  1  0.57294610  0.61243018  0.40437101  1
  N  N383  1  0.56908661  0.94539860  0.39720213  1
  N  N384  1  0.32067237  0.22079217  0.60292996  1
  N  N385  1  0.30102944  0.56012091  0.59236284  1
  N  N386  1  0.30724114  0.88864939  0.59101628  1
  N  N387  1  0.82314793  0.22078913  0.60302260  1
  N  N388  1  0.80095312  0.56038764  0.59033279  1
  N  N389  1  0.82126764  0.88575367  0.60142424  1
  N  N390  1  0.19017002  0.10999525  0.08601497  1
  N  N391  1  0.19511022  0.44232372  0.09610911  1
  N  N392  1  0.18463754  0.77871776  0.10081164  1
  N  N393  1  0.69126426  0.11037126  0.09762574  1
  N  N394  1  0.69942162  0.44220415  0.08897381  1
  N  N395  1  0.68454596  0.77445808  0.09589777  1
  N  N396  1  0.19205092  0.22222183  0.90952577  1
  N  N397  1  0.17495169  0.55487493  0.90235183  1
  N  N398  1  0.17274055  0.88852201  0.89384404  1
  N  N399  1  0.69605546  0.22067165  0.91105893  1
  N  N400  1  0.67518805  0.55561978  0.89768116  1
  N  N401  1  0.67210975  0.88930110  0.89553062  1
  N  N402  1  0.32046888  0.11354856  0.39806932  1
  N  N403  1  0.32711370  0.44368015  0.39489708  1
  N  N404  1  0.32013524  0.77965792  0.39597360  1
  N  N405  1  0.81530903  0.11044500  0.40205802  1
  N  N406  1  0.82157359  0.44480000  0.40229365  1
  N  N407  1  0.81940226  0.78152815  0.39670635  1
  N  N408  1  0.42540662  0.27897769  0.39603635  1
  N  N409  1  0.44535111  0.60854696  0.40804363  1
  N  N410  1  0.44173640  0.94241224  0.40709888  1
  N  N411  1  0.92545404  0.27646440  0.39845514  1
  N  N412  1  0.95080715  0.61088891  0.41427430  1
  N  N413  1  0.93387947  0.94600529  0.40066785  1
  N  N414  1  0.05661631  0.06111263  0.91663104  1
  N  N415  1  0.05404147  0.38880967  0.91085618  1
  N  N416  1  0.05712826  0.72443653  0.91325892  1
  N  N417  1  0.55604016  0.05717290  0.90384135  1
  N  N418  1  0.54824167  0.39223800  0.91180818  1
  N  N419  1  0.57223775  0.71991004  0.89287618  1
  N  N420  1  0.05897844  0.27541835  0.09516783  1
  N  N421  1  0.07657636  0.61163900  0.10670015  1
  N  N422  1  0.07858204  0.94897328  0.10321393  1
  N  N423  1  0.55117800  0.27336636  0.09014360  1
  N  N424  1  0.56536086  0.60728460  0.09131881  1
  N  N425  1  0.57330190  0.94448412  0.10434625  1
  N  N426  1  0.43179054  0.05545998  0.60127364  1
  N  N427  1  0.42370490  0.38558838  0.59894852  1
  N  N428  1  0.42925857  0.72168066  0.60510575  1
  N  N429  1  0.93533307  0.05378235  0.59943200  1
  N  N430  1  0.91994162  0.38846259  0.60668219  1
  N  N431  1  0.92964738  0.72224213  0.60448433  1
  N  N432  1  0.19105309  0.10897742  0.40678392  1
  N  N433  1  0.20104078  0.44436872  0.41161404  1
  N  N434  1  0.19211806  0.77584307  0.41397330  1
  N  N435  1  0.68534522  0.11182491  0.40864456  1
  N  N436  1  0.69432144  0.43897593  0.40984093  1
  N  N437  1  0.69320268  0.77931650  0.40455743  1
  N  N438  1  0.31921439  0.21941708  0.90597839  1
  N  N439  1  0.30488661  0.55732912  0.90853693  1
  N  N440  1  0.30106910  0.89452485  0.90995608  1
  N  N441  1  0.82423361  0.22403013  0.89908932  1
  N  N442  1  0.80162816  0.55894330  0.90847855  1
  N  N443  1  0.79997987  0.89137246  0.90714816  1
  N  N444  1  0.32059015  0.10904709  0.08989420  1
  N  N445  1  0.32208681  0.44465835  0.09336809  1
  N  N446  1  0.31365883  0.77865684  0.09808849  1
  N  N447  1  0.81756712  0.11269159  0.10308744  1
  N  N448  1  0.82625916  0.44329581  0.10644887  1
  N  N449  1  0.81441373  0.77551486  0.09499618  1
  N  N450  1  0.19468597  0.22386732  0.59385434  1
  N  N451  1  0.17427583  0.55829687  0.59838223  1
  N  N452  1  0.17757076  0.88490961  0.59878550  1
  N  N453  1  0.69359200  0.22249547  0.59338966  1
  N  N454  1  0.67486354  0.55575349  0.60676962  1
  N  N455  1  0.69359148  0.89180776  0.58172787  1
  Cl  Cl456  1  0.24563158  0.05053386  0.61802404  1
  Cl  Cl457  1  0.23165936  0.39993047  0.60261930  1
  Cl  Cl458  1  0.24168362  0.72315252  0.62624195  1
  Cl  Cl459  1  0.74912426  0.05450140  0.61083659  1
  Cl  Cl460  1  0.73391043  0.38819425  0.61026951  1
  Cl  Cl461  1  0.73988930  0.72207248  0.61697123  1
  Cl  Cl462  1  0.24341230  0.28014689  0.11671366  1
  Cl  Cl463  1  0.25749280  0.61664362  0.12096182  1
  Cl  Cl464  1  0.26690794  0.94591615  0.11671103  1
  Cl  Cl465  1  0.73725134  0.27549116  0.10428779  1
  Cl  Cl466  1  0.76341371  0.60481899  0.10538651  1
  Cl  Cl467  1  0.76529290  0.94060451  0.10582197  1
  Cl  Cl468  1  0.24094160  0.05671126  0.88537102  1
  Cl  Cl469  1  0.23844649  0.39075946  0.87930051  1
  Cl  Cl470  1  0.25531363  0.72990844  0.90207251  1
  Cl  Cl471  1  0.74186934  0.05170158  0.87395993  1
  Cl  Cl472  1  0.73510268  0.38833151  0.88930344  1
  Cl  Cl473  1  0.75219711  0.71614721  0.87874165  1
  Cl  Cl474  1  0.23754339  0.28284473  0.38086517  1
  Cl  Cl475  1  0.26093034  0.61550378  0.38646162  1
  Cl  Cl476  1  0.25323535  0.94425254  0.38583043  1
  Cl  Cl477  1  0.73794610  0.28188004  0.38043172  1
  Cl  Cl478  1  0.76335453  0.60485683  0.38542256  1
  Cl  Cl479  1  0.75086174  0.95169107  0.36890499  1
  Cl  Cl480  1  0.01221178  0.22651569  0.60400997  1
  Cl  Cl481  1  -0.01292926  0.55872209  0.60357817  1
  Cl  Cl482  1  0.00195580  0.88002925  0.63517511  1
  Cl  Cl483  1  0.50553929  0.22010027  0.62371911  1
  Cl  Cl484  1  0.48602171  0.55467022  0.60513245  1
  Cl  Cl485  1  0.49636378  0.89129856  0.61494844  1
  Cl  Cl486  1  0.00227812  0.11309065  0.11518462  1
  Cl  Cl487  1  0.01167659  0.44244814  0.11316845  1
  Cl  Cl488  1  0.00234311  0.77590728  0.10897555  1
  Cl  Cl489  1  0.50725470  0.11103394  0.11196976  1
  Cl  Cl490  1  0.51153619  0.44233171  0.10006401  1
  Cl  Cl491  1  0.49529150  0.77211623  0.10506006  1
  Cl  Cl492  1  0.00801089  0.22098281  0.87381774  1
  Cl  Cl493  1  -0.01472386  0.55425291  0.88479221  1
  Cl  Cl494  1  -0.01820672  0.88993244  0.89908117  1
  Cl  Cl495  1  0.50792524  0.22395529  0.89215144  1
  Cl  Cl496  1  0.49108616  0.55052447  0.87499100  1
  Cl  Cl497  1  0.48606803  0.89347568  0.89641863  1
  Cl  Cl498  1  0.00339996  0.11622681  0.37995290  1
  Cl  Cl499  1  0.01581395  0.44077167  0.39801574  1
  Cl  Cl500  1  0.00650511  0.77771681  0.38149471  1
  Cl  Cl501  1  0.50283724  0.11845003  0.37655320  1
  Cl  Cl502  1  0.51149459  0.45204053  0.37657180  1
  Cl  Cl503  1  0.51026863  0.77733380  0.37533662  1
  Cl  Cl504  1  0.36100123  0.14453087  0.75208930  1
  Cl  Cl505  1  0.35337236  0.48170585  0.74560817  1
  Cl  Cl506  1  0.35600764  0.81585701  0.75008552  1
  Cl  Cl507  1  0.86158443  0.14662698  0.74971025  1
  Cl  Cl508  1  0.85892396  0.47769803  0.74742376  1
  Cl  Cl509  1  0.85628516  0.81233480  0.74680602  1
  Cl  Cl510  1  0.14089344  0.18451894  0.24814112  1
  Cl  Cl511  1  0.14054284  0.52152189  0.24821560  1
  Cl  Cl512  1  0.14443564  0.85169104  0.24622967  1
  Cl  Cl513  1  0.64310250  0.18455252  0.24952563  1
  Cl  Cl514  1  0.64756146  0.51541772  0.25057099  1
  Cl  Cl515  1  0.64241374  0.85365819  0.23883808  1
  Cl  Cl516  1  0.14285675  0.14981786  0.74515183  1
  Cl  Cl517  1  0.13441006  0.48431384  0.74977145  1
  Cl  Cl518  1  0.13423600  0.80998907  0.76180658  1
  Cl  Cl519  1  0.63990877  0.15072157  0.75190215  1
  Cl  Cl520  1  0.63940096  0.48111879  0.74750120  1
  Cl  Cl521  1  0.63651323  0.81140892  0.75930473  1
  Cl  Cl522  1  0.35987650  0.18814126  0.24721881  1
  Cl  Cl523  1  0.35883236  0.51850844  0.25207909  1
  Cl  Cl524  1  0.36687107  0.85072414  0.25613720  1
  Cl  Cl525  1  0.86116620  0.19147876  0.24876538  1
  Cl  Cl526  1  0.86816990  0.51786156  0.24847154  1
  Cl  Cl527  1  0.86542450  0.85019212  0.24817456  1
  Cl  Cl528  1  0.10421895  0.31817307  0.74787549  1
  Cl  Cl529  1  0.10725626  0.64657973  0.75035235  1
  Cl  Cl530  1  0.10697929  0.97780350  0.75729945  1
  Cl  Cl531  1  0.60377928  0.31678759  0.75129653  1
  Cl  Cl532  1  0.60949570  0.64346356  0.75236680  1
  Cl  Cl533  1  0.61072433  0.97889378  0.75585761  1
  Cl  Cl534  1  0.39430150  0.01938648  0.25022168  1
  Cl  Cl535  1  0.38575703  0.35623960  0.24923451  1
  Cl  Cl536  1  0.39442658  0.68514724  0.24862088  1
  Cl  Cl537  1  0.89334555  0.01868566  0.24951704  1
  Cl  Cl538  1  0.88677980  0.35643461  0.25131372  1
  Cl  Cl539  1  0.89580558  0.68373914  0.24852558  1
  Cl  Cl540  1  0.38190796  0.31345699  0.75609078  1
  Cl  Cl541  1  0.39004849  0.64848192  0.74758411  1
  Cl  Cl542  1  0.39098849  0.98032713  0.75073510  1
  Cl  Cl543  1  0.88555469  0.31239467  0.74425348  1
  Cl  Cl544  1  0.88711230  0.64651452  0.74800074  1
  Cl  Cl545  1  0.88641912  0.97976201  0.75874952  1
  Cl  Cl546  1  0.11295613  0.01612141  0.25043168  1
  Cl  Cl547  1  0.10472686  0.35166284  0.25013147  1
  Cl  Cl548  1  0.11788041  0.68569988  0.24529775  1
  Cl  Cl549  1  0.61535613  0.01802782  0.24434613  1
  Cl  Cl550  1  0.60349844  0.35108819  0.24897317  1
  Cl  Cl551  1  0.61600465  0.68295635  0.24529360  1
