# generated using pymatgen
data_H8PbC4(N3Cl2)2
_symmetry_space_group_name_H-M   'P 1'
_cell_length_a   16.62416629
_cell_length_b   22.50344982
_cell_length_c   21.58952911
_cell_angle_alpha   89.99969336
_cell_angle_beta   90.00001716
_cell_angle_gamma   90.00165306
_symmetry_Int_Tables_number   1
_chemical_formula_structural   H8PbC4(N3Cl2)2
_chemical_formula_sum   'H192 Pb24 C96 N144 Cl96'
_cell_volume   8076.66641151
_cell_formula_units_Z   24
loop_
 _symmetry_equiv_pos_site_id
 _symmetry_equiv_pos_as_xyz
  1  'x, y, z'
loop_
 _atom_site_type_symbol
 _atom_site_label
 _atom_site_symmetry_multiplicity
 _atom_site_fract_x
 _atom_site_fract_y
 _atom_site_fract_z
 _atom_site_occupancy
  H  H0  1  0.00317766  0.03142295  0.68080637  1
  H  H1  1  0.01241592  0.36616258  0.67696326  1
  H  H2  1  0.00108194  0.69678146  0.67989550  1
  H  H3  1  0.49351977  0.03051913  0.67952216  1
  H  H4  1  0.48703743  0.36493804  0.68158072  1
  H  H5  1  0.50748879  0.69898190  0.68150115  1
  H  H6  1  0.00257879  0.30093292  0.17972934  1
  H  H7  1  -0.00254986  0.63436554  0.17909085  1
  H  H8  1  0.01002808  0.96704382  0.17893449  1
  H  H9  1  0.49483971  0.30440894  0.17786411  1
  H  H10  1  0.49333129  0.63576507  0.18212587  1
  H  H11  1  0.48905424  0.96701292  0.18147752  1
  H  H12  1  0.00930147  0.03152695  0.82041131  1
  H  H13  1  -0.00117232  0.36552202  0.82046894  1
  H  H14  1  -0.00514444  0.69780328  0.82102001  1
  H  H15  1  0.49098404  0.03073711  0.82196189  1
  H  H16  1  0.50027199  0.36612441  0.82348789  1
  H  H17  1  0.50821364  0.69779924  0.81822209  1
  H  H18  1  0.00776706  0.29985922  0.31802083  1
  H  H19  1  -0.00668914  0.63574521  0.32128005  1
  H  H20  1  0.00152690  0.96865663  0.31870700  1
  H  H21  1  0.50054760  0.30025988  0.31657334  1
  H  H22  1  0.50716755  0.63480355  0.32082509  1
  H  H23  1  0.50418879  0.97102829  0.31968741  1
  H  H24  1  0.24343497  0.19531750  0.68049946  1
  H  H25  1  0.24618599  0.53365227  0.67903043  1
  H  H26  1  0.25655683  0.86402634  0.68283104  1
  H  H27  1  0.74327845  0.19754892  0.68035264  1
  H  H28  1  0.74495945  0.53135522  0.67944790  1
  H  H29  1  0.74794074  0.86543745  0.67949132  1
  H  H30  1  0.24727304  0.13661587  0.18230073  1
  H  H31  1  0.25034392  0.46732524  0.18007488  1
  H  H32  1  0.25107588  0.80202970  0.18181064  1
  H  H33  1  0.75793501  0.13555651  0.17945961  1
  H  H34  1  0.75042331  0.46827136  0.17909099  1
  H  H35  1  0.75494319  0.80201586  0.17910490  1
  H  H36  1  0.24665057  0.20062938  0.82097981  1
  H  H37  1  0.25705158  0.53188646  0.82030646  1
  H  H38  1  0.25378185  0.86595498  0.81584525  1
  H  H39  1  0.75737737  0.19871997  0.82282289  1
  H  H40  1  0.74157995  0.52970271  0.81813436  1
  H  H41  1  0.74522272  0.86694562  0.82396098  1
  H  H42  1  0.24974430  0.13268460  0.32269974  1
  H  H43  1  0.25270012  0.46825610  0.31861779  1
  H  H44  1  0.24486467  0.80290239  0.31938832  1
  H  H45  1  0.74957877  0.13495879  0.32093782  1
  H  H46  1  0.75063545  0.46793528  0.32031856  1
  H  H47  1  0.74873126  0.80160583  0.32110877  1
  H  H48  1  0.12512296  0.05578439  0.60689447  1
  H  H49  1  0.11408381  0.39427000  0.59000834  1
  H  H50  1  0.11530655  0.72125336  0.59915770  1
  H  H51  1  0.62483820  0.05145661  0.61316286  1
  H  H52  1  0.62386898  0.38400177  0.62501337  1
  H  H53  1  0.61512422  0.72451837  0.60021940  1
  H  H54  1  0.37773093  0.27762131  0.10023656  1
  H  H55  1  0.38114929  0.61078482  0.10226636  1
  H  H56  1  0.38103851  0.94322358  0.09987889  1
  H  H57  1  0.86990567  0.28220362  0.11699757  1
  H  H58  1  0.88182185  0.60865986  0.10281147  1
  H  H59  1  0.86871326  0.95001353  0.12563479  1
  H  H60  1  0.38220570  0.06167878  0.90290577  1
  H  H61  1  0.37469080  0.38605731  0.89071389  1
  H  H62  1  0.37787539  0.71905025  0.88526943  1
  H  H63  1  0.87258164  0.05149653  0.87783212  1
  H  H64  1  0.87609369  0.38598934  0.89326978  1
  H  H65  1  0.88324476  0.72710077  0.90010838  1
  H  H66  1  0.11595895  0.27570979  0.39941067  1
  H  H67  1  0.12148633  0.61257887  0.38905664  1
  H  H68  1  0.12269774  0.94766915  0.39143748  1
  H  H69  1  0.61807845  0.27846784  0.39208137  1
  H  H70  1  0.61627678  0.60956600  0.40442080  1
  H  H71  1  0.62318395  0.94508677  0.39658858  1
  H  H72  1  0.37752573  0.21722065  0.61886479  1
  H  H73  1  0.37557421  0.55422957  0.61626641  1
  H  H74  1  0.37688221  0.88794419  0.60916347  1
  H  H75  1  0.88019064  0.21784412  0.62417096  1
  H  H76  1  0.87962276  0.55138293  0.61779814  1
  H  H77  1  0.87840033  0.88615328  0.61487508  1
  H  H78  1  0.12427520  0.11121315  0.10989128  1
  H  H79  1  0.12585963  0.44489495  0.10735511  1
  H  H80  1  0.12144279  0.77954392  0.11447444  1
  H  H81  1  0.62425518  0.11439917  0.11538309  1
  H  H82  1  0.62510983  0.44476558  0.10866069  1
  H  H83  1  0.62040313  0.78258733  0.11750245  1
  H  H84  1  0.12957310  0.22394652  0.89848144  1
  H  H85  1  0.11702820  0.54830258  0.87377796  1
  H  H86  1  0.12699941  0.88657544  0.88319380  1
  H  H87  1  0.62731486  0.21965083  0.88481081  1
  H  H88  1  0.62053354  0.55227861  0.89214048  1
  H  H89  1  0.63063264  0.88945258  0.90083564  1
  H  H90  1  0.37453310  0.11312570  0.39089849  1
  H  H91  1  0.37396871  0.44699920  0.39284922  1
  H  H92  1  0.38127614  0.78253386  0.37610131  1
  H  H93  1  0.87383364  0.11187700  0.39085889  1
  H  H94  1  0.87937538  0.44593298  0.38825347  1
  H  H95  1  0.87974544  0.77801344  0.38404254  1
  H  H96  1  0.36916103  0.27890388  0.37889330  1
  H  H97  1  0.36932647  0.61595777  0.37720579  1
  H  H98  1  0.37467768  0.94903175  0.38727546  1
  H  H99  1  0.86868855  0.28301193  0.37395517  1
  H  H100  1  0.87258134  0.61103580  0.39464332  1
  H  H101  1  0.87331097  0.94742134  0.38471947  1
  H  H102  1  0.11962330  0.05982450  0.90190799  1
  H  H103  1  0.12528132  0.38703785  0.89013571  1
  H  H104  1  0.13016737  0.71587273  0.88143875  1
  H  H105  1  0.62818493  0.04824677  0.88003497  1
  H  H106  1  0.62383353  0.38582874  0.89351259  1
  H  H107  1  0.62567097  0.72483235  0.89574965  1
  H  H108  1  0.11881911  0.27956423  0.10367177  1
  H  H109  1  0.13056336  0.61286715  0.11607493  1
  H  H110  1  0.11412859  0.94165771  0.09402105  1
  H  H111  1  0.62578112  0.28354803  0.11433112  1
  H  H112  1  0.62881135  0.61510515  0.12125470  1
  H  H113  1  0.62718911  0.94993344  0.12718189  1
  H  H114  1  0.37706790  0.05626435  0.60121643  1
  H  H115  1  0.37691461  0.39282090  0.59939856  1
  H  H116  1  0.36826854  0.71549862  0.62608445  1
  H  H117  1  0.87583589  0.05316730  0.61191307  1
  H  H118  1  0.87060912  0.38314414  0.62707248  1
  H  H119  1  0.86817690  0.72040357  0.61765177  1
  H  H120  1  0.12559630  0.11311590  0.39181089  1
  H  H121  1  0.12584121  0.44673015  0.38742250  1
  H  H122  1  0.13441080  0.77366254  0.40046671  1
  H  H123  1  0.62445567  0.11110666  0.39048743  1
  H  H124  1  0.63198807  0.44484427  0.39682776  1
  H  H125  1  0.63152899  0.77785533  0.39828733  1
  H  H126  1  0.37846449  0.22093354  0.88415619  1
  H  H127  1  0.36320404  0.55442134  0.90338926  1
  H  H128  1  0.37673260  0.88659859  0.88718147  1
  H  H129  1  0.87581138  0.22194732  0.89840220  1
  H  H130  1  0.86967928  0.55237038  0.88705560  1
  H  H131  1  0.87803110  0.88634494  0.88401476  1
  H  H132  1  0.37411010  0.11518276  0.11418150  1
  H  H133  1  0.37483360  0.44506405  0.10726144  1
  H  H134  1  0.37021767  0.77821403  0.10731066  1
  H  H135  1  0.87122040  0.11123663  0.09791181  1
  H  H136  1  0.87410339  0.44455927  0.10835755  1
  H  H137  1  0.86734153  0.77630278  0.09757027  1
  H  H138  1  0.13103397  0.22218982  0.60013998  1
  H  H139  1  0.12731811  0.55464817  0.60404425  1
  H  H140  1  0.12796541  0.88641554  0.61483464  1
  H  H141  1  0.63341434  0.22491867  0.59820896  1
  H  H142  1  0.63206596  0.55814874  0.59838446  1
  H  H143  1  0.63011787  0.88896562  0.60240145  1
  H  H144  1  0.07442188  0.92058407  0.50123771  1
  H  H145  1  0.83963939  0.41975387  0.49497286  1
  H  H146  1  0.61073101  0.91993151  0.01385685  1
  H  H147  1  0.29256164  0.58021809  1.00986403  1
  H  H148  1  0.04774652  0.08523023  1.00375469  1
  H  H149  1  0.20298967  0.75116640  0.50239470  1
  H  H150  1  0.20043627  0.24134687  0.49677712  1
  H  H151  1  0.34299530  0.58372844  0.50249325  1
  H  H152  1  0.19268892  0.25372867  1.00173707  1
  H  H153  1  0.65883681  0.25146737  0.99796360  1
  H  H154  1  0.10138405  0.58198467  0.00802816  1
  H  H155  1  0.70259968  0.58296140  0.49694579  1
  H  H156  1  0.40154585  0.24915822  0.49107339  1
  H  H157  1  0.60035330  0.41402026  0.51199759  1
  H  H158  1  0.67425958  0.58053374  1.00010063  1
  H  H159  1  0.06052873  0.25502757  -0.00758303  1
  H  H160  1  0.95190914  0.74147280  1.00345258  1
  H  H161  1  0.03898611  0.91752105  -0.01079950  1
  H  H162  1  0.54554193  0.75202052  0.49309390  1
  H  H163  1  0.17784415  0.09122251  0.00308698  1
  H  H164  1  0.79678658  0.75448102  -0.00458873  1
  H  H165  1  0.56265998  0.25099627  0.50174463  1
  H  H166  1  0.90839665  0.91829069  0.49579626  1
  H  H167  1  0.54373551  0.58445473  0.50537894  1
  H  H168  1  0.88177268  0.92055176  0.01479331  1
  H  H169  1  0.70316456  0.24638846  0.49647959  1
  H  H170  1  0.31576159  0.40785601  0.49138109  1
  H  H171  1  0.16841351  0.91009847  0.99668745  1
  H  H172  1  0.44785656  0.58165536  -0.00322889  1
  H  H173  1  0.94109823  0.57708517  -0.00439343  1
  H  H174  1  0.60144602  0.08530869  0.98485530  1
  H  H175  1  0.69412131  0.75411201  0.50324498  1
  H  H176  1  0.32254332  0.91946082  0.50214078  1
  H  H177  1  0.32862285  0.90844892  0.99995528  1
  H  H178  1  0.04677665  0.24845899  0.50687959  1
  H  H179  1  0.67181265  0.08038392  0.49491343  1
  H  H180  1  0.45484930  0.07702036  1.00520989  1
  H  H181  1  0.33002494  0.08894251  0.00195255  1
  H  H182  1  0.04640715  0.74424124  0.49670910  1
  H  H183  1  0.03476969  0.41828918  0.49161868  1
  H  H184  1  0.91965604  0.08134079  0.50227756  1
  H  H185  1  0.85933417  0.24863402  0.51048408  1
  H  H186  1  0.35951380  0.75155722  0.48973825  1
  H  H187  1  0.09988388  0.75163249  0.98612401  1
  H  H188  1  0.44693329  0.41345660  0.49726257  1
  H  H189  1  0.17509329  0.44151749  0.49487248  1
  H  H190  1  0.44936267  0.91705439  -0.00742711  1
  H  H191  1  0.31567687  0.74994518  -0.00031136  1
  Pb  Pb192  1  0.25587943  0.04889449  0.75608653  1
  Pb  Pb193  1  0.24642626  0.38328857  0.74062018  1
  Pb  Pb194  1  0.24696608  0.71180860  0.74495163  1
  Pb  Pb195  1  0.74678207  0.04739252  0.74304853  1
  Pb  Pb196  1  0.75048130  0.37797562  0.75219839  1
  Pb  Pb197  1  0.75069967  0.71875508  0.75143295  1
  Pb  Pb198  1  0.24281390  0.28440891  0.24771491  1
  Pb  Pb199  1  0.24922683  0.62166100  0.24905595  1
  Pb  Pb200  1  0.24918471  0.95460778  0.24525840  1
  Pb  Pb201  1  0.74674469  0.28843248  0.25548339  1
  Pb  Pb202  1  0.74515570  0.61855155  0.25484909  1
  Pb  Pb203  1  0.74679066  0.95309171  0.25554759  1
  Pb  Pb204  1  0.00149198  0.21248170  0.75202146  1
  Pb  Pb205  1  -0.00559087  0.54651566  0.75137071  1
  Pb  Pb206  1  0.00259639  0.88394747  0.74979389  1
  Pb  Pb207  1  0.50092594  0.21635547  0.74543030  1
  Pb  Pb208  1  0.50351897  0.54806198  0.74985373  1
  Pb  Pb209  1  0.49979269  0.87858866  0.75054018  1
  Pb  Pb210  1  -0.00633467  0.11854676  0.24506648  1
  Pb  Pb211  1  -0.00130778  0.45497871  0.25302854  1
  Pb  Pb212  1  -0.00214660  0.78559403  0.25076506  1
  Pb  Pb213  1  0.49929371  0.12171341  0.24368370  1
  Pb  Pb214  1  0.49417094  0.45236849  0.25539257  1
  Pb  Pb215  1  0.49968560  0.78824434  0.25088683  1
  C  C216  1  0.00141592  0.04682119  0.63324410  1
  C  C217  1  -0.00077744  0.38051559  0.63000687  1
  C  C218  1  -0.00499767  0.71178435  0.63236187  1
  C  C219  1  0.49841899  0.04547608  0.63191447  1
  C  C220  1  0.49550957  0.37968318  0.63399410  1
  C  C221  1  0.49699161  0.71276739  0.63404138  1
  C  C222  1  -0.00266388  0.28727224  0.13182733  1
  C  C223  1  0.00393065  0.61892154  0.13155421  1
  C  C224  1  -0.00303332  0.95263013  0.13181115  1
  C  C225  1  0.49907691  0.28884649  0.13062038  1
  C  C226  1  0.50137752  0.62085504  0.13476503  1
  C  C227  1  0.49950846  0.95312498  0.13396488  1
  C  C228  1  0.00087665  0.04637091  0.86764735  1
  C  C229  1  0.00025206  0.37977311  0.86824411  1
  C  C230  1  0.00293163  0.71303289  0.86848491  1
  C  C231  1  0.50040357  0.04648632  0.86909446  1
  C  C232  1  0.49957069  0.38001838  0.87177763  1
  C  C233  1  0.50408597  0.71304955  0.86578145  1
  C  C234  1  -0.00243318  0.28635777  0.36559580  1
  C  C235  1  -0.00396383  0.61983010  0.36845589  1
  C  C236  1  -0.00089823  0.95366050  0.36650107  1
  C  C237  1  0.49559277  0.28612569  0.36455552  1
  C  C238  1  0.49792686  0.62046989  0.36825572  1
  C  C239  1  0.50084923  0.95524974  0.36707139  1
  C  C240  1  0.25057360  0.21069566  0.63313599  1
  C  C241  1  0.25040946  0.54778981  0.63119425  1
  C  C242  1  0.25361303  0.87956742  0.63535099  1
  C  C243  1  0.75216028  0.21229186  0.63283174  1
  C  C244  1  0.75197623  0.54661811  0.63213184  1
  C  C245  1  0.75199673  0.88002845  0.63193777  1
  C  C246  1  0.24807120  0.12149694  0.13445998  1
  C  C247  1  0.25033546  0.45272141  0.13217018  1
  C  C248  1  0.24721443  0.78686660  0.13414149  1
  C  C249  1  0.75110511  0.12116060  0.13173347  1
  C  C250  1  0.74967308  0.45280608  0.13173366  1
  C  C251  1  0.74786901  0.78778766  0.13142646  1
  C  C252  1  0.25122573  0.21511634  0.86860006  1
  C  C253  1  0.24584868  0.54506956  0.86780022  1
  C  C254  1  0.25238930  0.88008895  0.86393631  1
  C  C255  1  0.75289986  0.21371459  0.87032610  1
  C  C256  1  0.74407876  0.54516044  0.86567807  1
  C  C257  1  0.75151899  0.88086878  0.87169561  1
  C  C258  1  0.25000504  0.11940634  0.37114727  1
  C  C259  1  0.25071330  0.45391725  0.36678270  1
  C  C260  1  0.25333429  0.78788527  0.36680653  1
  C  C261  1  0.74888800  0.11943521  0.36841934  1
  C  C262  1  0.75433368  0.45307198  0.36805955  1
  C  C263  1  0.75310822  0.78712796  0.36879482  1
  C  C264  1  0.27859341  0.76110641  0.03969558  1
  C  C265  1  0.43538573  0.73629211  0.54693511  1
  C  C266  1  0.47910217  0.59313032  0.03949159  1
  C  C267  1  0.97472653  0.58974999  0.03680641  1
  C  C268  1  0.71132204  0.57098415  0.95981442  1
  C  C269  1  0.95303525  0.92826612  0.45927860  1
  C  C270  1  0.78610218  0.24110627  0.96524566  1
  C  C271  1  0.03522420  0.92912948  0.46190633  1
  C  C272  1  0.51562277  0.73991931  0.53617840  1
  C  C273  1  0.21670568  0.57368831  0.53621210  1
  C  C274  1  0.43699716  0.59521583  0.45598846  1
  C  C275  1  0.01236975  0.92650257  0.03426965  1
  C  C276  1  0.79074521  0.09065187  0.46162139  1
  C  C277  1  0.29812823  0.57367516  0.53869438  1
  C  C278  1  0.30342909  0.24248388  0.95904290  1
  C  C279  1  0.93633862  0.26375238  0.45312698  1
  C  C280  1  0.01668824  0.26037040  0.46379118  1
  C  C281  1  0.81122090  0.23912849  0.54578650  1
  C  C282  1  0.94155769  0.07504555  0.95503305  1
  C  C283  1  0.54650458  0.26105761  0.04044143  1
  C  C284  1  0.26243931  0.57012003  0.96630836  1
  C  C285  1  0.47922258  0.92730248  0.03609459  1
  C  C286  1  0.96103005  0.07200486  0.54080286  1
  C  C287  1  0.18216269  0.56774290  0.95435203  1
  C  C288  1  0.55424369  0.40553180  0.54677479  1
  C  C289  1  0.96484284  0.40551936  0.96175653  1
  C  C290  1  0.94498638  0.26384982  0.04107200  1
  C  C291  1  0.21046942  0.09630792  0.46386193  1
  C  C292  1  0.78635821  0.42425960  0.03934326  1
  C  C293  1  0.29196148  0.09541735  0.04234776  1
  C  C294  1  0.28567055  0.90741999  0.54181640  1
  C  C295  1  0.80479376  0.75867125  0.45908577  1
  C  C296  1  0.56038619  0.92917875  0.04616511  1
  C  C297  1  0.31167839  0.76111039  0.45414933  1
  C  C298  1  0.80416660  0.90618215  0.96173156  1
  C  C299  1  0.96282506  0.59044969  0.46141805  1
  C  C300  1  0.72313831  0.90717598  0.96708645  1
  C  C301  1  0.02621735  0.26340404  0.03448173  1
  C  C302  1  0.29085300  0.90149264  0.95950094  1
  C  C303  1  0.44545808  0.26048339  0.45561814  1
  C  C304  1  0.93155430  0.40598314  0.54550171  1
  C  C305  1  0.79800777  0.90656402  0.54105052  1
  C  C306  1  0.29067676  0.09617522  0.46355451  1
  C  C307  1  0.53807427  0.40441603  0.96439743  1
  C  C308  1  0.70438100  0.24079388  0.96221099  1
  C  C309  1  0.52744253  0.26093565  0.46052789  1
  C  C310  1  0.20894492  0.90201818  0.95805470  1
  C  C311  1  0.45800399  0.40444753  0.96354229  1
  N  N312  1  0.23267610  0.75775493  0.46112639  1
  N  N313  1  0.04023805  0.07314751  0.53854389  1
  N  N314  1  0.20693042  0.42671559  0.45729218  1
  N  N315  1  0.20632010  0.90613180  0.54307616  1
  N  N316  1  0.69151242  0.76368434  0.04231978  1
  N  N317  1  0.72606164  0.75992176  0.46307918  1
  N  N318  1  0.00914675  0.40912308  0.53400191  1
  N  N319  1  0.71148334  0.09114067  0.46043401  1
  N  N320  1  0.47523084  0.40890645  0.53924381  1
  N  N321  1  0.19919826  0.76249727  0.04118226  1
  N  N322  1  0.04227625  0.40598595  0.96211254  1
  N  N323  1  0.54598574  0.07242862  0.54088220  1
  N  N324  1  0.04025101  0.59104565  0.46109865  1
  N  N325  1  0.77665686  0.09480457  0.03530214  1
  N  N326  1  0.71865105  0.42821310  0.46302984  1
  N  N327  1  0.70912966  0.42425846  0.03810869  1
  N  N328  1  0.46951496  0.07401093  0.53684902  1
  N  N329  1  0.21223162  0.42741291  0.03800009  1
  N  N330  1  0.76902334  0.76138029  0.03725028  1
  N  N331  1  0.28826501  0.42787235  0.03792564  1
  N  N332  1  0.53222564  0.92531398  0.46111873  1
  N  N333  1  0.97885412  0.74661585  0.96081734  1
  N  N334  1  0.21235934  0.09255968  0.04227358  1
  N  N335  1  0.72064409  0.90744458  0.53570713  1
  N  N336  1  0.94051876  0.73902154  0.54360708  1
  N  N337  1  0.05664943  0.73339245  0.95732455  1
  N  N338  1  0.73222741  0.24211331  0.53828167  1
  N  N339  1  0.45805453  0.73868431  0.95777556  1
  N  N340  1  0.55697527  0.06771930  0.95654180  1
  N  N341  1  0.45571212  0.92720221  0.45843645  1
  N  N342  1  0.79715417  0.42846946  0.45894339  1
  N  N343  1  0.73057733  0.57384421  0.53831689  1
  N  N344  1  0.93438366  0.92856313  0.04634791  1
  N  N345  1  0.30608705  0.23609338  0.54433521  1
  N  N346  1  0.47957570  0.08057560  0.96163902  1
  N  N347  1  0.28674802  0.43612433  0.46159207  1
  N  N348  1  0.05406759  0.59186294  0.04238523  1
  N  N349  1  0.79056421  0.57174883  0.95828210  1
  N  N350  1  0.46924419  0.25855080  0.03489395  1
  N  N351  1  0.22470511  0.24269283  0.96288541  1
  N  N352  1  0.01983207  0.07620113  0.96229385  1
  N  N353  1  0.01818733  0.73927121  0.53873562  1
  N  N354  1  0.51522277  0.59340773  0.46410377  1
  N  N355  1  0.70081958  0.09678897  0.04069047  1
  N  N356  1  0.53446862  0.74054336  0.96096794  1
  N  N357  1  0.22833593  0.23880708  0.53923951  1
  N  N358  1  0.55798046  0.59425869  0.04570717  1
  N  N359  1  0.80815575  0.57181311  0.54333230  1
  N  N360  1  0.06378659  0.05743776  0.59654204  1
  N  N361  1  0.05184942  0.39159859  0.58567443  1
  N  N362  1  0.05308848  0.72027814  0.59146294  1
  N  N363  1  0.56496716  0.05495347  0.59986915  1
  N  N364  1  0.56682053  0.38899663  0.60594778  1
  N  N365  1  0.55315953  0.72471307  0.59176274  1
  N  N366  1  0.43946248  0.27674918  0.09231708  1
  N  N367  1  0.44293272  0.60924269  0.09375081  1
  N  N368  1  0.44243293  0.94232317  0.09124121  1
  N  N369  1  0.92820883  0.27804429  0.09988336  1
  N  N370  1  0.94302549  0.60664086  0.09199466  1
  N  N371  1  0.92578478  0.94444321  0.10628994  1
  N  N372  1  0.44364704  0.05749019  0.91077411  1
  N  N373  1  0.43350080  0.38980277  0.90704217  1
  N  N374  1  0.43797532  0.72176633  0.89874722  1
  N  N375  1  0.92963529  0.05686581  0.89644125  1
  N  N376  1  0.93632898  0.38964290  0.90530011  1
  N  N377  1  0.94488954  0.72316571  0.90923429  1
  N  N378  1  0.05395465  0.27503851  0.40789854  1
  N  N379  1  0.06109871  0.60930682  0.40176547  1
  N  N380  1  0.06238438  0.94466129  0.40384135  1
  N  N381  1  0.55713721  0.27702574  0.40352724  1
  N  N382  1  0.55379298  0.61011022  0.41035709  1
  N  N383  1  0.56142718  0.94227742  0.40459445  1
  N  N384  1  0.31923090  0.22098572  0.60342720  1
  N  N385  1  0.31777234  0.55743909  0.59924035  1
  N  N386  1  0.31614329  0.89111273  0.59803442  1
  N  N387  1  0.82351667  0.22202401  0.60494412  1
  N  N388  1  0.82096785  0.55607224  0.60241724  1
  N  N389  1  0.81969619  0.89011612  0.59936090  1
  N  N390  1  0.18530811  0.11198707  0.09822831  1
  N  N391  1  0.18693078  0.44271925  0.09644379  1
  N  N392  1  0.18130426  0.77826147  0.10099543  1
  N  N393  1  0.68353204  0.11280002  0.10066929  1
  N  N394  1  0.68582828  0.44230587  0.09698192  1
  N  N395  1  0.67884826  0.77892077  0.10156581  1
  N  N396  1  0.19124889  0.22559827  0.90727405  1
  N  N397  1  0.17290307  0.55288862  0.89451055  1
  N  N398  1  0.18637876  0.88896780  0.89826466  1
  N  N399  1  0.68543121  0.22362878  0.90189306  1
  N  N400  1  0.68117036  0.55526085  0.90320656  1
  N  N401  1  0.69148793  0.89170244  0.91205022  1
  N  N402  1  0.31564953  0.11008026  0.40695905  1
  N  N403  1  0.31309808  0.44075771  0.40242027  1
  N  N404  1  0.32444807  0.77851846  0.39514608  1
  N  N405  1  0.81396941  0.10827572  0.40475764  1
  N  N406  1  0.81963656  0.44392652  0.40159722  1
  N  N407  1  0.82179592  0.77501650  0.40065974  1
  N  N408  1  0.42724908  0.27629180  0.39590464  1
  N  N409  1  0.42609556  0.61123640  0.39642285  1
  N  N410  1  0.43497397  0.94596452  0.40023494  1
  N  N411  1  0.92507084  0.27916262  0.39371099  1
  N  N412  1  0.93280194  0.60769219  0.40574732  1
  N  N413  1  0.93241854  0.94329004  0.39948308  1
  N  N414  1  0.05784680  0.05661127  0.90918858  1
  N  N415  1  0.06460844  0.38990991  0.90249505  1
  N  N416  1  0.07190839  0.72251843  0.89739356  1
  N  N417  1  0.57021811  0.05548689  0.89681502  1
  N  N418  1  0.56449393  0.38968433  0.90835129  1
  N  N419  1  0.56432848  0.72468364  0.90414434  1
  N  N420  1  0.05796916  0.27785448  0.09240677  1
  N  N421  1  0.07138625  0.61004427  0.10066533  1
  N  N422  1  0.05195961  0.94110562  0.08722742  1
  N  N423  1  0.56715061  0.27890928  0.09849071  1
  N  N424  1  0.56997775  0.61151895  0.10525863  1
  N  N425  1  0.57095947  0.94514352  0.10695509  1
  N  N426  1  0.43874389  0.05726713  0.59300937  1
  N  N427  1  0.43884049  0.39000182  0.59230367  1
  N  N428  1  0.42424598  0.72009225  0.60614503  1
  N  N429  1  0.93568258  0.05639348  0.59875705  1
  N  N430  1  0.92541844  0.38890707  0.60513904  1
  N  N431  1  0.92670237  0.72331554  0.60254795  1
  N  N432  1  0.18465360  0.11014860  0.40738748  1
  N  N433  1  0.18554567  0.44917634  0.40150164  1
  N  N434  1  0.19654367  0.77709924  0.40822002  1
  N  N435  1  0.68502152  0.10901706  0.40298060  1
  N  N436  1  0.69295388  0.44288720  0.40622335  1
  N  N437  1  0.69309108  0.77918220  0.40805543  1
  N  N438  1  0.32016076  0.22534425  0.90081807  1
  N  N439  1  0.30127586  0.55577097  0.91093949  1
  N  N440  1  0.31663879  0.88815714  0.90060707  1
  N  N441  1  0.81517284  0.22485722  0.90983970  1
  N  N442  1  0.80900554  0.55558226  0.89947114  1
  N  N443  1  0.82057801  0.89029156  0.90243451  1
  N  N444  1  0.31446681  0.11157012  0.09997126  1
  N  N445  1  0.31366894  0.44333090  0.09619700  1
  N  N446  1  0.30924128  0.77591177  0.09617155  1
  N  N447  1  0.80936824  0.11030663  0.09126686  1
  N  N448  1  0.81416261  0.44147708  0.09566696  1
  N  N449  1  0.80527869  0.77774947  0.09035647  1
  N  N450  1  0.19311142  0.22051604  0.59213361  1
  N  N451  1  0.18795762  0.55833574  0.59185218  1
  N  N452  1  0.18827184  0.88917367  0.60176715  1
  N  N453  1  0.69577931  0.22267174  0.59100866  1
  N  N454  1  0.69445291  0.55733031  0.59132353  1
  N  N455  1  0.69180954  0.89058498  0.59364927  1
  Cl  Cl456  1  0.25196195  0.05406577  0.62345170  1
  Cl  Cl457  1  0.24631106  0.39406543  0.59621015  1
  Cl  Cl458  1  0.23455533  0.72493713  0.60624314  1
  Cl  Cl459  1  0.74932195  0.05579326  0.60710624  1
  Cl  Cl460  1  0.74712518  0.38418940  0.61756002  1
  Cl  Cl461  1  0.73845044  0.72441912  0.61196495  1
  Cl  Cl462  1  0.24604994  0.27389130  0.10937400  1
  Cl  Cl463  1  0.25671485  0.61261854  0.11436074  1
  Cl  Cl464  1  0.24589572  0.94456952  0.10974498  1
  Cl  Cl465  1  0.74723391  0.28466537  0.12454762  1
  Cl  Cl466  1  0.75671437  0.61425013  0.12258027  1
  Cl  Cl467  1  0.75051249  0.94911484  0.12418764  1
  Cl  Cl468  1  0.24854107  0.06423823  0.89946863  1
  Cl  Cl469  1  0.24853905  0.38139279  0.87209880  1
  Cl  Cl470  1  0.25409418  0.71832256  0.87813492  1
  Cl  Cl471  1  0.74872104  0.04921009  0.87384679  1
  Cl  Cl472  1  0.75189769  0.38322327  0.87968881  1
  Cl  Cl473  1  0.76027075  0.72802635  0.89180582  1
  Cl  Cl474  1  0.23850802  0.27724932  0.38770837  1
  Cl  Cl475  1  0.24504939  0.61459017  0.38138320  1
  Cl  Cl476  1  0.25053210  0.94757032  0.37885920  1
  Cl  Cl477  1  0.74022469  0.27422237  0.39234758  1
  Cl  Cl478  1  0.73885963  0.61097081  0.39650095  1
  Cl  Cl479  1  0.74660933  0.95071261  0.38593812  1
  Cl  Cl480  1  0.01119092  0.22333907  0.61630636  1
  Cl  Cl481  1  0.00420036  0.54694978  0.62081705  1
  Cl  Cl482  1  0.00330489  0.88548617  0.61812374  1
  Cl  Cl483  1  0.50985529  0.22448493  0.60979900  1
  Cl  Cl484  1  0.51241103  0.55815687  0.60567628  1
  Cl  Cl485  1  0.50376179  0.88403839  0.62014917  1
  Cl  Cl486  1  0.00061338  0.10865286  0.10344886  1
  Cl  Cl487  1  0.00121308  0.44784410  0.12211515  1
  Cl  Cl488  1  -0.00978809  0.77314489  0.10506064  1
  Cl  Cl489  1  0.49706997  0.10756089  0.10481059  1
  Cl  Cl490  1  0.49782358  0.44750263  0.12382915  1
  Cl  Cl491  1  0.49395276  0.78195598  0.12329395  1
  Cl  Cl492  1  0.00557998  0.21846765  0.88611848  1
  Cl  Cl493  1  -0.00886132  0.55456385  0.88728009  1
  Cl  Cl494  1  0.00436973  0.88677198  0.88532379  1
  Cl  Cl495  1  0.50145405  0.21476990  0.87459720  1
  Cl  Cl496  1  0.49024871  0.55275462  0.88365668  1
  Cl  Cl497  1  0.50209525  0.89105639  0.88564022  1
  Cl  Cl498  1  -0.00382767  0.11394036  0.37620482  1
  Cl  Cl499  1  0.00430229  0.44137026  0.39417900  1
  Cl  Cl500  1  0.01219185  0.77137432  0.38871916  1
  Cl  Cl501  1  0.50257154  0.11500578  0.37359394  1
  Cl  Cl502  1  0.49829899  0.44491148  0.39857997  1
  Cl  Cl503  1  0.51024595  0.77539981  0.38621376  1
  Cl  Cl504  1  0.36033638  0.14436582  0.75129785  1
  Cl  Cl505  1  0.36049681  0.47756633  0.74178606  1
  Cl  Cl506  1  0.36059194  0.81128660  0.74873969  1
  Cl  Cl507  1  0.86424465  0.14494391  0.74766100  1
  Cl  Cl508  1  0.85957665  0.47891100  0.74621737  1
  Cl  Cl509  1  0.86177651  0.80853390  0.75078061  1
  Cl  Cl510  1  0.14161748  0.18823194  0.24844898  1
  Cl  Cl511  1  0.13743452  0.52123381  0.25142231  1
  Cl  Cl512  1  0.13660991  0.85392866  0.24668690  1
  Cl  Cl513  1  0.63645893  0.18829387  0.24920586  1
  Cl  Cl514  1  0.64235334  0.52301999  0.25229424  1
  Cl  Cl515  1  0.64009664  0.85435514  0.24619026  1
  Cl  Cl516  1  0.13795829  0.14530203  0.75115616  1
  Cl  Cl517  1  0.14126496  0.47727355  0.75105782  1
  Cl  Cl518  1  0.13774523  0.81205681  0.75202287  1
  Cl  Cl519  1  0.64351753  0.14482819  0.74915998  1
  Cl  Cl520  1  0.63877478  0.47846072  0.74623457  1
  Cl  Cl521  1  0.64143528  0.81021082  0.75134719  1
  Cl  Cl522  1  0.36296266  0.18802966  0.25093666  1
  Cl  Cl523  1  0.36063378  0.52090449  0.25558136  1
  Cl  Cl524  1  0.36185847  0.85367649  0.25213093  1
  Cl  Cl525  1  0.86068009  0.18906748  0.25144652  1
  Cl  Cl526  1  0.86396378  0.52107877  0.25393289  1
  Cl  Cl527  1  0.86441452  0.85555948  0.25264568  1
  Cl  Cl528  1  0.11118928  0.31397713  0.74776174  1
  Cl  Cl529  1  0.11266328  0.64337122  0.75569477  1
  Cl  Cl530  1  0.10923519  0.97704198  0.75206454  1
  Cl  Cl531  1  0.61196342  0.31219039  0.74773060  1
  Cl  Cl532  1  0.60688327  0.64394822  0.74937102  1
  Cl  Cl533  1  0.61235698  0.97921923  0.75036876  1
  Cl  Cl534  1  0.38852955  0.02039541  0.24562788  1
  Cl  Cl535  1  0.38969500  0.35670385  0.25549643  1
  Cl  Cl536  1  0.38680633  0.68897397  0.25626508  1
  Cl  Cl537  1  0.88869301  0.02335138  0.24703624  1
  Cl  Cl538  1  0.88558669  0.35488611  0.25433994  1
  Cl  Cl539  1  0.89377270  0.68883330  0.25040561  1
  Cl  Cl540  1  0.39185970  0.30955335  0.74753035  1
  Cl  Cl541  1  0.38450901  0.64425037  0.74397524  1
  Cl  Cl542  1  0.38940853  0.97952915  0.75520860  1
  Cl  Cl543  1  0.88821360  0.31182262  0.74482784  1
  Cl  Cl544  1  0.89331219  0.64481163  0.74866416  1
  Cl  Cl545  1  0.89102333  0.97689852  0.75154377  1
  Cl  Cl546  1  0.10962478  0.02039077  0.24492871  1
  Cl  Cl547  1  0.11125433  0.35362128  0.25332103  1
  Cl  Cl548  1  0.11386427  0.68846531  0.24527562  1
  Cl  Cl549  1  0.61417679  0.02268389  0.24506481  1
  Cl  Cl550  1  0.61153388  0.35544345  0.25296696  1
  Cl  Cl551  1  0.61229978  0.68703382  0.24694896  1
