# generated using pymatgen
data_H8PbC4(N3Cl2)2
_symmetry_space_group_name_H-M   'P 1'
_cell_length_a   16.62564389
_cell_length_b   22.51478705
_cell_length_c   21.59508113
_cell_angle_alpha   90.00155144
_cell_angle_beta   89.98853815
_cell_angle_gamma   90.00175576
_symmetry_Int_Tables_number   1
_chemical_formula_structural   H8PbC4(N3Cl2)2
_chemical_formula_sum   'H192 Pb24 C96 N144 Cl96'
_cell_volume   8083.53175127
_cell_formula_units_Z   24
loop_
 _symmetry_equiv_pos_site_id
 _symmetry_equiv_pos_as_xyz
  1  'x, y, z'
loop_
 _atom_site_type_symbol
 _atom_site_label
 _atom_site_symmetry_multiplicity
 _atom_site_fract_x
 _atom_site_fract_y
 _atom_site_fract_z
 _atom_site_occupancy
  H  H0  1  -0.00291855  0.03009209  0.68136596  1
  H  H1  1  0.00483199  0.36147186  0.67791954  1
  H  H2  1  -0.00547165  0.69620302  0.67581333  1
  H  H3  1  0.50669437  0.03113318  0.68049550  1
  H  H4  1  0.49842934  0.36283023  0.68150411  1
  H  H5  1  0.50010773  0.69224876  0.68003303  1
  H  H6  1  0.00484655  0.30424624  0.17673452  1
  H  H7  1  0.01216611  0.64086060  0.17817839  1
  H  H8  1  -0.01723689  0.97212057  0.17537793  1
  H  H9  1  0.49096426  0.30373129  0.17945538  1
  H  H10  1  0.49886247  0.63560447  0.17757440  1
  H  H11  1  0.51697412  0.96803462  0.17982267  1
  H  H12  1  -0.00597849  0.02912997  0.82576708  1
  H  H13  1  0.00890073  0.36013741  0.82341512  1
  H  H14  1  0.00972443  0.70030696  0.83037737  1
  H  H15  1  0.49527751  0.03053196  0.82103230  1
  H  H16  1  0.50052989  0.36332999  0.81973492  1
  H  H17  1  0.49678142  0.69469738  0.81817737  1
  H  H18  1  -0.00487946  0.30329897  0.31906277  1
  H  H19  1  0.00961947  0.63524471  0.31747430  1
  H  H20  1  -0.00560258  0.97441786  0.32258434  1
  H  H21  1  0.50670884  0.30354263  0.32183265  1
  H  H22  1  0.48789902  0.63741767  0.32292885  1
  H  H23  1  0.50814506  0.97110409  0.31722116  1
  H  H24  1  0.24446229  0.19483860  0.67523854  1
  H  H25  1  0.24793677  0.53260032  0.67922063  1
  H  H26  1  0.25089794  0.86260528  0.67979613  1
  H  H27  1  0.74461475  0.19871581  0.68325537  1
  H  H28  1  0.76276199  0.53062624  0.68195699  1
  H  H29  1  0.74674090  0.86315925  0.68174011  1
  H  H30  1  0.25577963  0.13700021  0.17918921  1
  H  H31  1  0.24062770  0.46793573  0.18091498  1
  H  H32  1  0.26473249  0.80804649  0.17545136  1
  H  H33  1  0.75467765  0.13838424  0.17653175  1
  H  H34  1  0.75128994  0.47070219  0.17400070  1
  H  H35  1  0.73837648  0.80021165  0.17600002  1
  H  H36  1  0.25189764  0.19503064  0.81891507  1
  H  H37  1  0.24507507  0.53075955  0.82043481  1
  H  H38  1  0.23658951  0.86493557  0.82450735  1
  H  H39  1  0.75181258  0.19477472  0.82678002  1
  H  H40  1  0.74753317  0.53073572  0.82178363  1
  H  H41  1  0.75175294  0.86139644  0.82052539  1
  H  H42  1  0.26613036  0.13510498  0.32598566  1
  H  H43  1  0.25990773  0.46904858  0.31892874  1
  H  H44  1  0.25937220  0.80222251  0.32410424  1
  H  H45  1  0.74097084  0.13436010  0.31683957  1
  H  H46  1  0.74927474  0.47144340  0.32321803  1
  H  H47  1  0.74484241  0.80636505  0.31954981  1
  H  H48  1  0.12590211  0.05365243  0.61570171  1
  H  H49  1  0.12884975  0.38778133  0.60667565  1
  H  H50  1  0.12689383  0.71948961  0.61407206  1
  H  H51  1  0.62049716  0.05548486  0.60102731  1
  H  H52  1  0.62618028  0.38827761  0.61267199  1
  H  H53  1  0.62406551  0.71851628  0.60840928  1
  H  H54  1  0.38516703  0.27609373  0.09591646  1
  H  H55  1  0.36663781  0.61125265  0.11633375  1
  H  H56  1  0.37317086  0.95270712  0.13213556  1
  H  H57  1  0.88007277  0.27722811  0.10869681  1
  H  H58  1  0.87271538  0.61804953  0.12559282  1
  H  H59  1  0.87965591  0.94274705  0.08847308  1
  H  H60  1  0.37999646  0.05442290  0.90045092  1
  H  H61  1  0.36809735  0.38540266  0.88203787  1
  H  H62  1  0.37484131  0.72493700  0.89024410  1
  H  H63  1  0.88030061  0.05943795  0.90156776  1
  H  H64  1  0.86924016  0.38362556  0.87577731  1
  H  H65  1  0.86977867  0.71561695  0.88133463  1
  H  H66  1  0.12118134  0.27811514  0.38811385  1
  H  H67  1  0.11949550  0.61087082  0.39901013  1
  H  H68  1  0.12270848  0.94972101  0.38916990  1
  H  H69  1  0.61345833  0.27768850  0.40492697  1
  H  H70  1  0.61965231  0.61627376  0.38257101  1
  H  H71  1  0.62716381  0.94315737  0.39014269  1
  H  H72  1  0.38102984  0.21542707  0.61755007  1
  H  H73  1  0.38176081  0.55192943  0.61819215  1
  H  H74  1  0.37287010  0.88807694  0.60834542  1
  H  H75  1  0.88148945  0.21889888  0.62334919  1
  H  H76  1  0.87543379  0.55587987  0.60435213  1
  H  H77  1  0.87468385  0.88579399  0.61265723  1
  H  H78  1  0.12121161  0.11576243  0.11634121  1
  H  H79  1  0.13773859  0.44100026  0.09651277  1
  H  H80  1  0.12384870  0.78444242  0.12371631  1
  H  H81  1  0.61934116  0.11403990  0.11900929  1
  H  H82  1  0.63276689  0.44558172  0.09996174  1
  H  H83  1  0.63468778  0.77338245  0.09205134  1
  H  H84  1  0.11917198  0.21741381  0.88239471  1
  H  H85  1  0.13834584  0.55982055  0.90310930  1
  H  H86  1  0.12642503  0.89194629  0.90516782  1
  H  H87  1  0.62134997  0.22094786  0.88955562  1
  H  H88  1  0.63279523  0.55407840  0.90002624  1
  H  H89  1  0.62605112  0.88890826  0.88756681  1
  H  H90  1  0.36903623  0.10876538  0.40957022  1
  H  H91  1  0.37249118  0.44548021  0.39925366  1
  H  H92  1  0.37211379  0.77259051  0.40197147  1
  H  H93  1  0.87612965  0.11576126  0.37478724  1
  H  H94  1  0.87292174  0.44777739  0.39374333  1
  H  H95  1  0.87204991  0.78299046  0.38617928  1
  H  H96  1  0.36704992  0.28107610  0.37555365  1
  H  H97  1  0.37178946  0.61227116  0.39941067  1
  H  H98  1  0.37856639  0.94925152  0.38470680  1
  H  H99  1  0.87201668  0.27913166  0.39070844  1
  H  H100  1  0.87233775  0.61557910  0.37664275  1
  H  H101  1  0.87486291  0.94210140  0.39501937  1
  H  H102  1  0.12792895  0.05052672  0.88668777  1
  H  H103  1  0.11288172  0.39070932  0.90830361  1
  H  H104  1  0.11405229  0.72925494  0.91393214  1
  H  H105  1  0.62808533  0.05281160  0.88322190  1
  H  H106  1  0.61581611  0.39096701  0.89803611  1
  H  H107  1  0.62445243  0.71619156  0.88442684  1
  H  H108  1  0.12905434  0.27930498  0.10552238  1
  H  H109  1  0.11603342  0.61085012  0.09251822  1
  H  H110  1  0.12364756  0.94915295  0.12380876  1
  H  H111  1  0.63105875  0.28324551  0.12466425  1
  H  H112  1  0.61523238  0.60786438  0.10123408  1
  H  H113  1  0.61663027  0.94066592  0.09367470  1
  H  H114  1  0.37216449  0.05313682  0.61832472  1
  H  H115  1  0.37806699  0.39037306  0.60779518  1
  H  H116  1  0.37581310  0.71825101  0.60821548  1
  H  H117  1  0.87741450  0.05495301  0.60595538  1
  H  H118  1  0.88071833  0.38878017  0.60849333  1
  H  H119  1  0.87908134  0.72378062  0.59998370  1
  H  H120  1  0.12501354  0.11895799  0.37564580  1
  H  H121  1  0.12496910  0.44836362  0.37966390  1
  H  H122  1  0.12495336  0.78241230  0.38347018  1
  H  H123  1  0.62804212  0.11128316  0.39597042  1
  H  H124  1  0.62456620  0.44623803  0.39219514  1
  H  H125  1  0.62263512  0.77890709  0.38885270  1
  H  H126  1  0.36753048  0.22065613  0.89640881  1
  H  H127  1  0.38431482  0.55274798  0.87446241  1
  H  H128  1  0.37237210  0.88402259  0.87907573  1
  H  H129  1  0.86971994  0.22256212  0.90052868  1
  H  H130  1  0.87985202  0.55186130  0.88023051  1
  H  H131  1  0.87413618  0.88521288  0.89284046  1
  H  H132  1  0.36845813  0.10787301  0.09912179  1
  H  H133  1  0.38311257  0.45187530  0.12989744  1
  H  H134  1  0.36818983  0.77611061  0.08990810  1
  H  H135  1  0.86632603  0.11040942  0.09554224  1
  H  H136  1  0.88124653  0.44406329  0.11004870  1
  H  H137  1  0.87945648  0.78387727  0.12640311  1
  H  H138  1  0.13421237  0.22369144  0.59440519  1
  H  H139  1  0.13318810  0.55589224  0.60295388  1
  H  H140  1  0.12329921  0.88631519  0.61182023  1
  H  H141  1  0.63412628  0.22320108  0.60206165  1
  H  H142  1  0.62737070  0.54975980  0.62282594  1
  H  H143  1  0.62660849  0.88798961  0.60625443  1
  H  H144  1  0.38682600  0.25256587  0.48590720  1
  H  H145  1  0.39973185  0.41566041  0.99401485  1
  H  H146  1  0.83370898  0.75220766  0.49617817  1
  H  H147  1  0.68103412  0.94087517  0.98023169  1
  H  H148  1  0.54227500  0.24816468  0.50911819  1
  H  H149  1  0.70267834  0.25073143  0.49675221  1
  H  H150  1  0.87677184  0.74880686  0.00367534  1
  H  H151  1  0.16628409  0.91965700  0.50823015  1
  H  H152  1  0.85133641  0.08740252  0.48842775  1
  H  H153  1  0.92289133  0.24834322  0.49832533  1
  H  H154  1  0.07815680  0.41472931  0.50278747  1
  H  H155  1  0.57082589  0.91313561  0.49778650  1
  H  H156  1  0.84195546  0.41509813  0.00351606  1
  H  H157  1  0.85142997  0.58145009  -0.00486911  1
  H  H158  1  0.81501864  0.89469960  0.99840311  1
  H  H159  1  0.59484836  0.08087899  0.99528398  1
  H  H160  1  0.09414583  0.74856682  0.50637607  1
  H  H161  1  0.67374299  0.43307592  0.49814679  1
  H  H162  1  0.70980691  0.74455166  -0.01253207  1
  H  H163  1  0.59169278  0.58483688  0.49670476  1
  H  H164  1  0.20992873  0.58538978  1.00786340  1
  H  H165  1  0.58213250  0.74407663  0.99705972  1
  H  H166  1  0.21234894  0.41216624  -0.00749370  1
  H  H167  1  0.09125993  0.08527784  0.50508850  1
  H  H168  1  0.04951699  0.58307985  0.50434302  1
  H  H169  1  0.53818247  0.91301046  -0.00950353  1
  H  H170  1  0.93313155  0.91603382  0.49858214  1
  H  H171  1  0.45868882  0.24667204  -0.00654897  1
  H  H172  1  0.55447736  0.08357242  0.49479750  1
  H  H173  1  0.82064279  0.40571466  0.49077331  1
  H  H174  1  0.03383841  0.41510763  1.00721495  1
  H  H175  1  0.69049282  0.08300781  0.50353289  1
  H  H176  1  0.65939936  0.25216378  0.99617846  1
  H  H177  1  0.81542917  0.58531909  0.49712154  1
  H  H178  1  0.35274100  0.91777109  0.99441683  1
  H  H179  1  0.36574648  0.57626589  0.98587034  1
  H  H180  1  0.03588404  0.58772112  -0.00675625  1
  H  H181  1  0.66943549  0.74896999  0.49864531  1
  H  H182  1  0.32399237  0.92175107  0.50077286  1
  H  H183  1  0.55397967  0.57715863  -0.00096412  1
  H  H184  1  0.30717240  0.74318872  0.50332696  1
  H  H185  1  0.42931566  0.74726784  0.99600535  1
  H  H186  1  0.19312751  0.58327569  0.49282510  1
  H  H187  1  0.28593376  0.75255240  -0.00847647  1
  H  H188  1  0.30466877  0.25026473  1.00254983  1
  H  H189  1  0.09434791  0.08397580  0.99315209  1
  H  H190  1  0.96198706  0.91560888  -0.00832896  1
  H  H191  1  0.30733925  0.41883189  0.50476933  1
  Pb  Pb192  1  0.25107515  0.04638195  0.75293944  1
  Pb  Pb193  1  0.24622360  0.38009359  0.75082536  1
  Pb  Pb194  1  0.25435641  0.71891047  0.75298598  1
  Pb  Pb195  1  0.74763988  0.05005487  0.74706849  1
  Pb  Pb196  1  0.75183605  0.38110154  0.74839664  1
  Pb  Pb197  1  0.75045239  0.71155587  0.74441895  1
  Pb  Pb198  1  0.24912472  0.28736891  0.24162456  1
  Pb  Pb199  1  0.24415901  0.61654665  0.24960137  1
  Pb  Pb200  1  0.24584275  0.95389699  0.25981182  1
  Pb  Pb201  1  0.74536147  0.28414855  0.25453810  1
  Pb  Pb202  1  0.74590019  0.62049269  0.24634614  1
  Pb  Pb203  1  0.75023471  0.95224478  0.23890441  1
  Pb  Pb204  1  0.00167501  0.21280517  0.74765666  1
  Pb  Pb205  1  0.00794254  0.55181335  0.75134477  1
  Pb  Pb206  1  -0.00440396  0.88254900  0.75342412  1
  Pb  Pb207  1  0.49710709  0.21534816  0.75053184  1
  Pb  Pb208  1  0.50228593  0.54498188  0.75918573  1
  Pb  Pb209  1  0.50559612  0.88186964  0.74649246  1
  Pb  Pb210  1  -0.00086545  0.12120715  0.24058203  1
  Pb  Pb211  1  -0.00591273  0.45088204  0.24743405  1
  Pb  Pb212  1  -0.00140454  0.78660365  0.25902040  1
  Pb  Pb213  1  0.49596700  0.11822714  0.25273448  1
  Pb  Pb214  1  0.50244526  0.45392814  0.25270498  1
  Pb  Pb215  1  0.49592945  0.78588361  0.24152937  1
  C  C216  1  0.00003497  0.04603850  0.63407201  1
  C  C217  1  0.00507783  0.37853257  0.63096135  1
  C  C218  1  0.00061571  0.71260409  0.62884065  1
  C  C219  1  0.49963095  0.04648613  0.63317862  1
  C  C220  1  0.50106098  0.37949971  0.63436345  1
  C  C221  1  0.49990162  0.70887889  0.63287256  1
  C  C222  1  0.00496022  0.28714493  0.13001022  1
  C  C223  1  0.00057582  0.62465207  0.13177461  1
  C  C224  1  -0.00520377  0.95587985  0.12900188  1
  C  C225  1  0.50281308  0.28783537  0.13283515  1
  C  C226  1  0.49389159  0.61887909  0.13052088  1
  C  C227  1  0.50233553  0.95377275  0.13317895  1
  C  C228  1  0.00119213  0.04598657  0.87243391  1
  C  C229  1  -0.00273303  0.37708566  0.86954271  1
  C  C230  1  -0.00259107  0.71507073  0.87720385  1
  C  C231  1  0.50114696  0.04602041  0.86834574  1
  C  C232  1  0.49476120  0.37983273  0.86667254  1
  C  C233  1  0.49794855  0.71072288  0.86572424  1
  C  C234  1  -0.00394307  0.28709583  0.36628417  1
  C  C235  1  0.00019560  0.62083534  0.36491599  1
  C  C236  1  -0.00301652  0.95638924  0.36908452  1
  C  C237  1  0.49502067  0.28783095  0.36865082  1
  C  C238  1  0.49380773  0.62215719  0.37027178  1
  C  C239  1  0.50430305  0.95489002  0.36440990  1
  C  C240  1  0.25329727  0.21081921  0.62845556  1
  C  C241  1  0.25409616  0.54674895  0.63153146  1
  C  C242  1  0.24867089  0.87892577  0.63240344  1
  C  C243  1  0.75377452  0.21325035  0.63583704  1
  C  C244  1  0.75546023  0.54517211  0.63448322  1
  C  C245  1  0.74935894  0.87866394  0.63418538  1
  C  C246  1  0.24843571  0.12100634  0.13206282  1
  C  C247  1  0.25372381  0.45386119  0.13391212  1
  C  C248  1  0.25266391  0.79067197  0.12951174  1
  C  C249  1  0.74688543  0.12141088  0.13007701  1
  C  C250  1  0.75563651  0.45403523  0.12708398  1
  C  C251  1  0.75099997  0.78575819  0.12899795  1
  C  C252  1  0.24612101  0.21087147  0.86611750  1
  C  C253  1  0.25706362  0.54599497  0.86739054  1
  C  C254  1  0.24599783  0.88024479  0.87150419  1
  C  C255  1  0.74716930  0.21228054  0.87336358  1
  C  C256  1  0.75423888  0.54507111  0.86935059  1
  C  C257  1  0.75075465  0.87848875  0.86768196  1
  C  C258  1  0.25283956  0.12074751  0.37290761  1
  C  C259  1  0.25215761  0.45432998  0.36638928  1
  C  C260  1  0.25237648  0.78622578  0.37119215  1
  C  C261  1  0.74873416  0.12047124  0.36465921  1
  C  C262  1  0.74898487  0.45502039  0.37055696  1
  C  C263  1  0.74661694  0.78955310  0.36669704  1
  C  C264  1  0.54914188  0.07197769  0.95851892  1
  C  C265  1  0.93419480  0.73963803  0.96347449  1
  C  C266  1  0.30802645  0.57152369  0.54171441  1
  C  C267  1  0.73671385  0.75745476  0.03150918  1
  C  C268  1  0.79084649  0.76224965  0.45916806  1
  C  C269  1  0.81693605  0.76111006  0.04396923  1
  C  C270  1  0.51403891  0.25928619  0.46508317  1
  C  C271  1  0.27168759  0.23938197  0.96044295  1
  C  C272  1  0.19583398  0.75790633  0.45968408  1
  C  C273  1  0.30364171  0.90808224  0.95989540  1
  C  C274  1  0.72312786  0.09442539  0.46150495  1
  C  C275  1  0.96683111  0.25456288  0.03958531  1
  C  C276  1  0.22272156  0.91032634  0.96695564  1
  C  C277  1  0.26736052  0.09294840  0.46894013  1
  C  C278  1  0.69931465  0.57050751  0.54558633  1
  C  C279  1  0.54502454  0.59487506  0.46108046  1
  C  C280  1  0.48735170  0.25891978  0.03703830  1
  C  C281  1  0.22680526  0.57294529  0.53466310  1
  C  C282  1  0.23844622  0.57432601  0.96381254  1
  C  C283  1  0.01433950  0.74449651  0.97335816  1
  C  C284  1  0.28628980  0.90917096  0.53972332  1
  C  C285  1  0.73323616  0.23988850  0.53999761  1
  C  C286  1  0.24056880  0.42539317  0.03589801  1
  C  C287  1  0.72107762  0.42307059  0.03306088  1
  C  C288  1  0.44671927  0.40614839  0.95680878  1
  C  C289  1  0.54348485  0.73784999  0.95696596  1
  C  C290  1  0.01975495  0.59398814  0.46083456  1
  C  C291  1  0.44183245  0.58919990  0.04137950  1
  C  C292  1  0.43290226  0.93116633  0.04942091  1
  C  C293  1  0.30650741  0.23855043  0.54068243  1
  C  C294  1  0.04384333  0.07413203  0.54306886  1
  C  C295  1  0.18748704  0.09680994  0.45784931  1
  C  C296  1  0.51189349  0.92604394  0.03463600  1
  C  C297  1  0.72526615  0.57110209  0.96526752  1
  C  C298  1  0.52311431  0.07355446  0.53788888  1
  C  C299  1  0.78045863  0.57316398  0.53775043  1
  C  C300  1  0.96119094  0.25929830  0.45915328  1
  C  C301  1  0.27484740  0.42870323  0.46220087  1
  C  C302  1  0.78070094  0.24595101  0.96659362  1
  C  C303  1  0.80644085  0.57108897  0.95999261  1
  C  C304  1  0.32016787  0.42941589  0.04917075  1
  C  C305  1  0.70862370  0.76086097  0.46033818  1
  C  C306  1  0.80466950  0.09630523  0.45414893  1
  C  C307  1  0.69400291  0.09144338  0.04248654  1
  C  C308  1  0.46340677  0.59356331  0.46526930  1
  C  C309  1  0.97220209  0.08095455  0.96601264  1
  C  C310  1  0.53498425  0.92526123  0.45757115  1
  C  C311  1  0.97003577  0.74415516  0.53384450  1
  N  N312  1  0.79978972  0.42337933  0.03780389  1
  N  N313  1  0.04877761  0.74161615  0.53982985  1
  N  N314  1  0.22969242  0.24194305  0.53226051  1
  N  N315  1  0.79265315  0.90523741  0.54169935  1
  N  N316  1  0.19274653  0.23969588  0.95552591  1
  N  N317  1  0.44433191  0.07375507  0.54401564  1
  N  N318  1  0.98366460  0.92234016  0.03614314  1
  N  N319  1  0.04066348  0.40701133  0.53993087  1
  N  N320  1  0.94103367  0.59566385  0.45337502  1
  N  N321  1  0.78765505  0.43443641  0.46418190  1
  N  N322  1  0.31682417  0.57164509  0.95315172  1
  N  N323  1  0.53857502  0.73728120  0.53981030  1
  N  N324  1  0.46672913  0.41044998  0.54123674  1
  N  N325  1  0.96447830  0.07425930  0.53907064  1
  N  N326  1  0.20669134  0.90820907  0.54203826  1
  N  N327  1  0.01325318  0.59305275  0.03798126  1
  N  N328  1  0.70189392  0.24426560  0.96190353  1
  N  N329  1  0.06029723  0.92463416  0.04661129  1
  N  N330  1  0.26416628  0.75836368  0.03617226  1
  N  N331  1  0.70827879  0.42309608  0.46015038  1
  N  N332  1  0.47006348  0.07297751  0.96449907  1
  N  N333  1  0.70792962  0.90546220  0.95865240  1
  N  N334  1  0.04415389  0.25569505  0.03708037  1
  N  N335  1  0.46188014  0.73727919  0.53963224  1
  N  N336  1  0.56558861  0.26146168  0.04641887  1
  N  N337  1  0.27480086  0.75471748  0.46493838  1
  N  N338  1  0.04529501  0.92745487  0.45949270  1
  N  N339  1  0.52061685  0.58806914  0.03743687  1
  N  N340  1  0.71581729  0.90601607  0.53954246  1
  N  N341  1  0.19580159  0.42925897  0.45614908  1
  N  N342  1  0.45567758  0.92671925  0.45572595  1
  N  N343  1  0.54349933  0.40983438  0.54296846  1
  N  N344  1  0.78940957  0.91005404  0.95820099  1
  N  N345  1  0.19684299  0.09151424  0.04342055  1
  N  N346  1  0.96703274  0.92345293  0.45971345  1
  N  N347  1  0.52553623  0.40863242  0.96235698  1
  N  N348  1  0.18744058  0.76081877  0.04641159  1
  N  N349  1  0.81198430  0.23868481  0.54715939  1
  N  N350  1  0.04037197  0.25861080  0.45875277  1
  N  N351  1  0.96216830  0.40703547  0.53876172  1
  N  N352  1  0.43575764  0.26004177  0.45383158  1
  N  N353  1  0.46403359  0.74217842  0.95722492  1
  N  N354  1  0.27282096  0.08880528  0.03757162  1
  N  N355  1  0.93664913  0.59605000  0.04812952  1
  N  N356  1  0.01023384  0.40918093  0.96303866  1
  N  N357  1  0.05075632  0.07640245  0.96007014  1
  N  N358  1  0.77086299  0.08974774  0.03392531  1
  N  N359  1  0.93324582  0.40611405  0.95342767  1
  N  N360  1  0.06645553  0.05721674  0.60111039  1
  N  N361  1  0.06812428  0.38855987  0.59513747  1
  N  N362  1  0.06811781  0.72171791  0.59825119  1
  N  N363  1  0.55882877  0.05727111  0.59238950  1
  N  N364  1  0.56579367  0.39018872  0.60050008  1
  N  N365  1  0.56325640  0.71999703  0.59738781  1
  N  N366  1  0.44747472  0.27479723  0.08973323  1
  N  N367  1  0.42469787  0.60760084  0.09944014  1
  N  N368  1  0.42742634  0.94738381  0.10897836  1
  N  N369  1  0.93989246  0.27363478  0.09542924  1
  N  N370  1  0.92920274  0.61365071  0.10675308  1
  N  N371  1  0.94199635  0.94400227  0.08478575  1
  N  N372  1  0.44204058  0.05646138  0.90804532  1
  N  N373  1  0.42643041  0.38904935  0.89811251  1
  N  N374  1  0.43577566  0.72213876  0.90198222  1
  N  N375  1  0.94120606  0.06189841  0.91201704  1
  N  N376  1  0.92596044  0.38829172  0.89453245  1
  N  N377  1  0.92489124  0.72172268  0.90302396  1
  N  N378  1  0.06043397  0.27574856  0.40052302  1
  N  N379  1  0.05760389  0.60922553  0.40690759  1
  N  N380  1  0.06293352  0.94567669  0.40203043  1
  N  N381  1  0.55135689  0.27603268  0.41215674  1
  N  N382  1  0.56220741  0.61258853  0.40077789  1
  N  N383  1  0.56639270  0.94218915  0.40183583  1
  N  N384  1  0.32380877  0.22023415  0.59959845  1
  N  N385  1  0.32377381  0.55592655  0.60028984  1
  N  N386  1  0.31262908  0.89082784  0.59582541  1
  N  N387  1  0.82288290  0.22225145  0.60700469  1
  N  N388  1  0.81430464  0.55706028  0.59437964  1
  N  N389  1  0.81434722  0.88853611  0.60024346  1
  N  N390  1  0.18039285  0.11133391  0.10200820  1
  N  N391  1  0.19994328  0.44130038  0.09006481  1
  N  N392  1  0.18096864  0.77907903  0.10509301  1
  N  N393  1  0.67685581  0.10999189  0.10121311  1
  N  N394  1  0.69343693  0.44171255  0.08837809  1
  N  N395  1  0.69638157  0.77334819  0.08540136  1
  N  N396  1  0.17864169  0.22190092  0.89676786  1
  N  N397  1  0.20107184  0.55906976  0.91047884  1
  N  N398  1  0.18783833  0.89345162  0.91390415  1
  N  N399  1  0.68050150  0.22276689  0.90462531  1
  N  N400  1  0.69408347  0.55551665  0.91051911  1
  N  N401  1  0.68661912  0.89585553  0.89899272  1
  N  N402  1  0.30733688  0.10736833  0.41733926  1
  N  N403  1  0.31077261  0.44376833  0.40759372  1
  N  N404  1  0.31036727  0.77335692  0.41062881  1
  N  N405  1  0.81888540  0.11223963  0.39391946  1
  N  N406  1  0.81240282  0.44211215  0.40487091  1
  N  N407  1  0.81273263  0.77974216  0.40053485  1
  N  N408  1  0.42445758  0.27820608  0.39473372  1
  N  N409  1  0.43270065  0.60988086  0.41040355  1
  N  N410  1  0.43846987  0.94512801  0.39742811  1
  N  N411  1  0.93223258  0.27652643  0.40262906  1
  N  N412  1  0.93084945  0.61237948  0.39365155  1
  N  N413  1  0.93601841  0.94354053  0.40605011  1
  N  N414  1  0.06922554  0.05427532  0.90263272  1
  N  N415  1  0.05054599  0.38899395  0.91326252  1
  N  N416  1  0.05245817  0.72957378  0.92088509  1
  N  N417  1  0.56946448  0.05627608  0.89939880  1
  N  N418  1  0.55375903  0.39226842  0.90580041  1
  N  N419  1  0.56486659  0.71997662  0.89975552  1
  N  N420  1  0.06822311  0.27598778  0.09483994  1
  N  N421  1  0.05369573  0.61339907  0.08763541  1
  N  N422  1  0.06664847  0.94397423  0.10492128  1
  N  N423  1  0.57345014  0.27928771  0.10641068  1
  N  N424  1  0.55346231  0.60760329  0.09198660  1
  N  N425  1  0.55458425  0.94044377  0.08845557  1
  N  N426  1  0.43155572  0.05699068  0.60326309  1
  N  N427  1  0.43932395  0.39178855  0.59771826  1
  N  N428  1  0.43682655  0.71950783  0.59716196  1
  N  N429  1  0.93880827  0.05655388  0.59645238  1
  N  N430  1  0.94103212  0.39068846  0.59631127  1
  N  N431  1  0.93993749  0.72630718  0.58908232  1
  N  N432  1  0.17952331  0.11362018  0.39849067  1
  N  N433  1  0.18364090  0.44522432  0.39594987  1
  N  N434  1  0.18217921  0.77673382  0.40133152  1
  N  N435  1  0.68953196  0.10955037  0.40532795  1
  N  N436  1  0.68471595  0.44707678  0.40569275  1
  N  N437  1  0.68262770  0.77764739  0.40250304  1
  N  N438  1  0.30616978  0.22224786  0.90586696  1
  N  N439  1  0.32781823  0.55213798  0.89441295  1
  N  N440  1  0.31652303  0.88945131  0.89919893  1
  N  N441  1  0.80893543  0.22633927  0.91180099  1
  N  N442  1  0.82323240  0.55483841  0.89924056  1
  N  N443  1  0.81341647  0.88347995  0.90509399  1
  N  N444  1  0.30631313  0.10736901  0.09220813  1
  N  N445  1  0.32781912  0.44624559  0.10848120  1
  N  N446  1  0.30567068  0.77864776  0.08544889  1
  N  N447  1  0.80402799  0.10908792  0.08960933  1
  N  N448  1  0.82197914  0.44318808  0.09550352  1
  N  N449  1  0.82439737  0.77813187  0.10412976  1
  N  N450  1  0.19660673  0.22384544  0.58798430  1
  N  N451  1  0.19409880  0.55744871  0.59190673  1
  N  N452  1  0.18362048  0.88954583  0.59903059  1
  N  N453  1  0.69611569  0.22454251  0.59405387  1
  N  N454  1  0.68489581  0.55397444  0.60417957  1
  N  N455  1  0.68804995  0.88963129  0.59672876  1
  Cl  Cl456  1  0.24843119  0.05008683  0.62075776  1
  Cl  Cl457  1  0.25341944  0.39071168  0.61566403  1
  Cl  Cl458  1  0.25417870  0.72265815  0.61267540  1
  Cl  Cl459  1  0.74692821  0.05564296  0.61118551  1
  Cl  Cl460  1  0.75353136  0.39171302  0.61006377  1
  Cl  Cl461  1  0.75159365  0.72159552  0.61107470  1
  Cl  Cl462  1  0.25987942  0.27821294  0.10631129  1
  Cl  Cl463  1  0.23746375  0.60834153  0.10983909  1
  Cl  Cl464  1  0.24646247  0.94762917  0.13162327  1
  Cl  Cl465  1  0.75642926  0.28176607  0.12029840  1
  Cl  Cl466  1  0.73916481  0.60929889  0.11399029  1
  Cl  Cl467  1  0.75220596  0.93933148  0.09792400  1
  Cl  Cl468  1  0.25427811  0.05199486  0.88415493  1
  Cl  Cl469  1  0.23477378  0.39068793  0.88558658  1
  Cl  Cl470  1  0.25152622  0.72857839  0.89629192  1
  Cl  Cl471  1  0.75542902  0.04980707  0.87869204  1
  Cl  Cl472  1  0.74126590  0.38667857  0.88301007  1
  Cl  Cl473  1  0.74234749  0.71903355  0.87747306  1
  Cl  Cl474  1  0.24377175  0.28232528  0.37223755  1
  Cl  Cl475  1  0.24430859  0.61527554  0.38333472  1
  Cl  Cl476  1  0.24748955  0.94465293  0.39587050  1
  Cl  Cl477  1  0.73845179  0.27988975  0.39058994  1
  Cl  Cl478  1  0.74765348  0.61157548  0.37670822  1
  Cl  Cl479  1  0.75357291  0.94170469  0.37135670  1
  Cl  Cl480  1  0.00994406  0.22392577  0.61469291  1
  Cl  Cl481  1  0.00644925  0.55728897  0.61649002  1
  Cl  Cl482  1  -0.00183188  0.88584230  0.61574411  1
  Cl  Cl483  1  0.51086461  0.22158468  0.61425000  1
  Cl  Cl484  1  0.50341737  0.55113033  0.62958949  1
  Cl  Cl485  1  0.50262625  0.88822906  0.61347259  1
  Cl  Cl486  1  -0.00649282  0.11038672  0.10434837  1
  Cl  Cl487  1  0.01162777  0.43944788  0.10322194  1
  Cl  Cl488  1  0.00299963  0.78621460  0.13031489  1
  Cl  Cl489  1  0.49151427  0.11168803  0.12043439  1
  Cl  Cl490  1  0.51135929  0.45111462  0.12133917  1
  Cl  Cl491  1  0.49244724  0.77089180  0.09807195  1
  Cl  Cl492  1  -0.00823821  0.21603587  0.87974484  1
  Cl  Cl493  1  0.02050811  0.56383738  0.89735836  1
  Cl  Cl494  1  -0.00421627  0.89438942  0.89451664  1
  Cl  Cl495  1  0.49322655  0.22244927  0.88604415  1
  Cl  Cl496  1  0.51198533  0.55954704  0.89570310  1
  Cl  Cl497  1  0.50615877  0.88409577  0.88169324  1
  Cl  Cl498  1  -0.00050116  0.11278581  0.36969539  1
  Cl  Cl499  1  -0.00347536  0.44707093  0.38120012  1
  Cl  Cl500  1  -0.00062750  0.77898678  0.39428553  1
  Cl  Cl501  1  0.50190938  0.11251597  0.38839505  1
  Cl  Cl502  1  0.50015413  0.44535296  0.38457924  1
  Cl  Cl503  1  0.49482908  0.77697356  0.37347645  1
  Cl  Cl504  1  0.36431186  0.14650500  0.74189095  1
  Cl  Cl505  1  0.36419724  0.47795488  0.75398420  1
  Cl  Cl506  1  0.36049993  0.81003680  0.75754406  1
  Cl  Cl507  1  0.86451850  0.14638231  0.74451166  1
  Cl  Cl508  1  0.86164569  0.48088834  0.75886684  1
  Cl  Cl509  1  0.86073518  0.81382805  0.75334052  1
  Cl  Cl510  1  0.13897778  0.18535635  0.24805111  1
  Cl  Cl511  1  0.14538340  0.51740102  0.25373461  1
  Cl  Cl512  1  0.13837604  0.85057066  0.25745673  1
  Cl  Cl513  1  0.63975529  0.18683693  0.24316619  1
  Cl  Cl514  1  0.64516724  0.51472075  0.25310023  1
  Cl  Cl515  1  0.63865047  0.85136813  0.24438796  1
  Cl  Cl516  1  0.14386775  0.14974231  0.75233979  1
  Cl  Cl517  1  0.14435793  0.48506658  0.74914537  1
  Cl  Cl518  1  0.14487957  0.81439551  0.74686145  1
  Cl  Cl519  1  0.64667523  0.14701498  0.75543866  1
  Cl  Cl520  1  0.64135015  0.48218802  0.74857935  1
  Cl  Cl521  1  0.64261916  0.81518898  0.75162490  1
  Cl  Cl522  1  0.36117380  0.18732209  0.25531595  1
  Cl  Cl523  1  0.36570948  0.52242135  0.24273254  1
  Cl  Cl524  1  0.35800058  0.85288350  0.25098724  1
  Cl  Cl525  1  0.86034696  0.18564335  0.25213548  1
  Cl  Cl526  1  0.86321157  0.52176307  0.24666651  1
  Cl  Cl527  1  0.86126120  0.85169335  0.24651457  1
  Cl  Cl528  1  0.10634560  0.31813371  0.75266671  1
  Cl  Cl529  1  0.10566250  0.64991769  0.75164822  1
  Cl  Cl530  1  0.11315728  0.97989527  0.75531673  1
  Cl  Cl531  1  0.61514819  0.31274852  0.75050890  1
  Cl  Cl532  1  0.60719519  0.64898792  0.74914786  1
  Cl  Cl533  1  0.60991649  0.98176071  0.75287997  1
  Cl  Cl534  1  0.38930500  0.01620846  0.25078486  1
  Cl  Cl535  1  0.38811596  0.35431863  0.24976612  1
  Cl  Cl536  1  0.39007898  0.68467479  0.24530811  1
  Cl  Cl537  1  0.88722637  0.02003342  0.24792705  1
  Cl  Cl538  1  0.89238742  0.35548629  0.24910451  1
  Cl  Cl539  1  0.88500484  0.68709364  0.24825291  1
  Cl  Cl540  1  0.39455521  0.31320874  0.75096888  1
  Cl  Cl541  1  0.38566620  0.64318983  0.75848307  1
  Cl  Cl542  1  0.39017575  0.98029471  0.74907577  1
  Cl  Cl543  1  0.88667527  0.31239537  0.74774008  1
  Cl  Cl544  1  0.88996206  0.64858541  0.75650082  1
  Cl  Cl545  1  0.89525321  0.97909199  0.75017795  1
  Cl  Cl546  1  0.10674423  0.01785636  0.24718340  1
  Cl  Cl547  1  0.11043203  0.35273379  0.24819733  1
  Cl  Cl548  1  0.10795068  0.68473599  0.24736277  1
  Cl  Cl549  1  0.61307779  0.02041343  0.24840722  1
  Cl  Cl550  1  0.60882417  0.34991542  0.25092732  1
  Cl  Cl551  1  0.60822116  0.68535779  0.24881584  1
