# generated using pymatgen
data_H8PbC4(N3Cl2)2
_symmetry_space_group_name_H-M   'P 1'
_cell_length_a   16.62091933
_cell_length_b   22.49945729
_cell_length_c   21.58785808
_cell_angle_alpha   89.99981976
_cell_angle_beta   90.00591265
_cell_angle_gamma   90.00141053
_symmetry_Int_Tables_number   1
_chemical_formula_structural   H8PbC4(N3Cl2)2
_chemical_formula_sum   'H192 Pb24 C96 N144 Cl96'
_cell_volume   8073.03130075
_cell_formula_units_Z   24
loop_
 _symmetry_equiv_pos_site_id
 _symmetry_equiv_pos_as_xyz
  1  'x, y, z'
loop_
 _atom_site_type_symbol
 _atom_site_label
 _atom_site_symmetry_multiplicity
 _atom_site_fract_x
 _atom_site_fract_y
 _atom_site_fract_z
 _atom_site_occupancy
  H  H0  1  -0.00269782  0.03178295  0.68063140  1
  H  H1  1  0.00653537  0.36700538  0.67906723  1
  H  H2  1  -0.00511860  0.69902429  0.67962184  1
  H  H3  1  0.50134683  0.03221082  0.68036207  1
  H  H4  1  0.49917098  0.36647405  0.68227052  1
  H  H5  1  0.49896866  0.69928921  0.68172991  1
  H  H6  1  0.00106857  0.30126982  0.18355101  1
  H  H7  1  0.00398033  0.63379993  0.18208761  1
  H  H8  1  -0.00034383  0.96710569  0.18006632  1
  H  H9  1  0.50646023  0.30085957  0.17813063  1
  H  H10  1  0.50245407  0.63325072  0.18078032  1
  H  H11  1  0.50170658  0.96687856  0.17935851  1
  H  H12  1  -0.00197567  0.03305579  0.82105404  1
  H  H13  1  -0.00032548  0.36559133  0.81890645  1
  H  H14  1  0.00061194  0.70012564  0.81874068  1
  H  H15  1  0.50087788  0.03240565  0.81932760  1
  H  H16  1  0.50429146  0.36454124  0.81844084  1
  H  H17  1  0.49672360  0.70024998  0.81954791  1
  H  H18  1  0.00936687  0.30059276  0.31833801  1
  H  H19  1  0.00057368  0.63313037  0.32224148  1
  H  H20  1  -0.00570239  0.96777943  0.31965911  1
  H  H21  1  0.48928914  0.30075601  0.31677407  1
  H  H22  1  0.49720844  0.63476283  0.31937149  1
  H  H23  1  0.49672311  0.96672435  0.31730085  1
  H  H24  1  0.25006125  0.19776103  0.68180381  1
  H  H25  1  0.25253957  0.53380533  0.68050834  1
  H  H26  1  0.24670188  0.86509614  0.68243993  1
  H  H27  1  0.74988381  0.19969486  0.68112168  1
  H  H28  1  0.74735952  0.53243500  0.67947376  1
  H  H29  1  0.75132814  0.86579139  0.68238169  1
  H  H30  1  0.26019862  0.13460853  0.18007373  1
  H  H31  1  0.24281683  0.46761880  0.18153258  1
  H  H32  1  0.24356823  0.80094378  0.18046260  1
  H  H33  1  0.74293394  0.13432317  0.18199696  1
  H  H34  1  0.75521651  0.46551759  0.18213931  1
  H  H35  1  0.75682650  0.80075057  0.17812986  1
  H  H36  1  0.25095170  0.19943850  0.81835003  1
  H  H37  1  0.24542575  0.53325520  0.81845540  1
  H  H38  1  0.24670121  0.86401699  0.82007440  1
  H  H39  1  0.74759316  0.20020930  0.81905252  1
  H  H40  1  0.74726765  0.53309196  0.81783314  1
  H  H41  1  0.74602546  0.86513540  0.82193667  1
  H  H42  1  0.24654592  0.13243676  0.31916818  1
  H  H43  1  0.24661710  0.46781224  0.32028812  1
  H  H44  1  0.25177750  0.80048038  0.32051075  1
  H  H45  1  0.75420541  0.13317617  0.31915369  1
  H  H46  1  0.74873865  0.46878652  0.32171308  1
  H  H47  1  0.75726749  0.79987208  0.31787891  1
  H  H48  1  0.12851191  0.05302933  0.61519359  1
  H  H49  1  0.11459921  0.39228836  0.59558487  1
  H  H50  1  0.12900965  0.71741330  0.61857418  1
  H  H51  1  0.62983923  0.05281033  0.61359909  1
  H  H52  1  0.61953896  0.38956003  0.60664360  1
  H  H53  1  0.62751833  0.71929137  0.61427493  1
  H  H54  1  0.37500429  0.28142122  0.11630004  1
  H  H55  1  0.36897869  0.61501215  0.11692648  1
  H  H56  1  0.37378297  0.94482638  0.11112112  1
  H  H57  1  0.87607009  0.28004590  0.11165405  1
  H  H58  1  0.86792093  0.61585752  0.12232989  1
  H  H59  1  0.87339993  0.94575349  0.11149621  1
  H  H60  1  0.37730190  0.05282106  0.89166543  1
  H  H61  1  0.37491828  0.38545509  0.88789623  1
  H  H62  1  0.38008989  0.72227690  0.89478776  1
  H  H63  1  0.87787364  0.05477663  0.89520914  1
  H  H64  1  0.87414803  0.38866252  0.88784584  1
  H  H65  1  0.87627515  0.72201946  0.89181262  1
  H  H66  1  0.11988431  0.27583972  0.39953343  1
  H  H67  1  0.12550954  0.61370534  0.39074648  1
  H  H68  1  0.12526618  0.94793059  0.38541573  1
  H  H69  1  0.62542965  0.28211246  0.37743899  1
  H  H70  1  0.62909039  0.61428848  0.38389561  1
  H  H71  1  0.62663555  0.94758152  0.38368274  1
  H  H72  1  0.37508147  0.22077906  0.61050144  1
  H  H73  1  0.36856633  0.55729925  0.60109649  1
  H  H74  1  0.37357024  0.88653377  0.61232753  1
  H  H75  1  0.87672941  0.22111563  0.61149308  1
  H  H76  1  0.87373951  0.55373924  0.60947924  1
  H  H77  1  0.87351154  0.88723453  0.60707200  1
  H  H78  1  0.12282575  0.11494492  0.12294593  1
  H  H79  1  0.12895207  0.44253754  0.10142372  1
  H  H80  1  0.12531835  0.77759344  0.10483831  1
  H  H81  1  0.62770564  0.11290593  0.10241889  1
  H  H82  1  0.62209222  0.44750038  0.11974329  1
  H  H83  1  0.62285261  0.78233186  0.11606320  1
  H  H84  1  0.12529269  0.21902438  0.88766165  1
  H  H85  1  0.13220836  0.55686973  0.89769714  1
  H  H86  1  0.12471652  0.88859370  0.89389006  1
  H  H87  1  0.62264891  0.22030281  0.88976372  1
  H  H88  1  0.63201376  0.55499718  0.89506467  1
  H  H89  1  0.62869789  0.89000053  0.89768479  1
  H  H90  1  0.37258427  0.11249444  0.38598405  1
  H  H91  1  0.37914947  0.45006520  0.38429594  1
  H  H92  1  0.37279083  0.77909533  0.39378863  1
  H  H93  1  0.86752238  0.10927770  0.39808394  1
  H  H94  1  0.87797038  0.44961848  0.38910212  1
  H  H95  1  0.86845200  0.77724291  0.39766468  1
  H  H96  1  0.37808275  0.27705860  0.39827718  1
  H  H97  1  0.38093024  0.61054569  0.39856594  1
  H  H98  1  0.37702704  0.94623069  0.39034563  1
  H  H99  1  0.87288503  0.28189620  0.37829235  1
  H  H100  1  0.87685385  0.61296006  0.39141173  1
  H  H101  1  0.87654603  0.94314972  0.39526492  1
  H  H102  1  0.12646775  0.05460876  0.88860996  1
  H  H103  1  0.12278501  0.38527958  0.89195400  1
  H  H104  1  0.12516945  0.72118145  0.89192552  1
  H  H105  1  0.62582349  0.05520908  0.88893562  1
  H  H106  1  0.62310767  0.38701885  0.89572609  1
  H  H107  1  0.62887497  0.71973621  0.88254302  1
  H  H108  1  0.12537576  0.27872323  0.11294342  1
  H  H109  1  0.11628566  0.61305768  0.10301231  1
  H  H110  1  0.12218160  0.94422850  0.10688218  1
  H  H111  1  0.62310150  0.27899935  0.10221068  1
  H  H112  1  0.61808401  0.61188625  0.10304866  1
  H  H113  1  0.62307372  0.94307052  0.10663769  1
  H  H114  1  0.38147865  0.05535945  0.60524648  1
  H  H115  1  0.37113393  0.38831339  0.61174923  1
  H  H116  1  0.37849638  0.72159253  0.60590674  1
  H  H117  1  0.88067697  0.05589686  0.60225065  1
  H  H118  1  0.86859847  0.38567714  0.62378467  1
  H  H119  1  0.88082813  0.72187660  0.59929014  1
  H  H120  1  0.12333171  0.11162897  0.39157128  1
  H  H121  1  0.13132278  0.44375135  0.39794608  1
  H  H122  1  0.12386941  0.78018843  0.38561273  1
  H  H123  1  0.61887528  0.11396413  0.37988322  1
  H  H124  1  0.62963864  0.44412144  0.39641752  1
  H  H125  1  0.62040700  0.78327154  0.37625313  1
  H  H126  1  0.37478689  0.22004407  0.88768809  1
  H  H127  1  0.38036618  0.55286366  0.88049134  1
  H  H128  1  0.37313203  0.88668607  0.88907633  1
  H  H129  1  0.87217594  0.21890858  0.88809838  1
  H  H130  1  0.88020478  0.55170500  0.87870982  1
  H  H131  1  0.87726658  0.88664329  0.88607814  1
  H  H132  1  0.36813649  0.10944205  0.09495630  1
  H  H133  1  0.37742664  0.44792547  0.12187338  1
  H  H134  1  0.37425078  0.78171308  0.11412670  1
  H  H135  1  0.87604079  0.11279642  0.11797239  1
  H  H136  1  0.87068061  0.44585873  0.10510070  1
  H  H137  1  0.87052827  0.77603341  0.10018413  1
  H  H138  1  0.12493431  0.21891837  0.61204247  1
  H  H139  1  0.12044583  0.55230213  0.61522083  1
  H  H140  1  0.12431623  0.88681283  0.60928422  1
  H  H141  1  0.62713395  0.22118447  0.60927013  1
  H  H142  1  0.62478634  0.55608121  0.60755186  1
  H  H143  1  0.62437400  0.88662306  0.61355594  1
  H  H144  1  0.69194173  0.08869755  -0.00513361  1
  H  H145  1  0.83994379  0.41840003  0.49474900  1
  H  H146  1  0.19705872  0.58615787  1.00376689  1
  H  H147  1  0.94532952  0.07904023  0.49857514  1
  H  H148  1  0.34898270  0.41710999  0.00959524  1
  H  H149  1  0.55880794  0.58500930  -0.00566162  1
  H  H150  1  0.17610273  0.91528361  0.50108699  1
  H  H151  1  0.57428074  0.06957207  0.99663055  1
  H  H152  1  0.80489059  0.08229927  0.50563320  1
  H  H153  1  0.04230667  0.41975299  0.49536218  1
  H  H154  1  0.30221959  0.58422753  0.49867918  1
  H  H155  1  0.65261847  0.75168227  0.00859881  1
  H  H156  1  0.06684129  0.42517549  0.99096218  1
  H  H157  1  0.40312244  0.58654388  0.00957932  1
  H  H158  1  0.44720937  0.58742371  0.50167937  1
  H  H159  1  0.41846143  0.91547449  0.00565208  1
  H  H160  1  0.15961770  0.74979924  0.49823047  1
  H  H161  1  0.33262901  0.24958940  0.99899676  1
  H  H162  1  0.69039953  0.57990312  1.00450134  1
  H  H163  1  0.33113124  0.08326342  0.49899834  1
  H  H164  1  0.18044701  0.91350290  0.99799703  1
  H  H165  1  0.80409037  0.74997269  0.50564062  1
  H  H166  1  0.43348226  0.75067743  1.00334588  1
  H  H167  1  0.29243755  0.08592747  -0.00536672  1
  H  H168  1  0.58846536  0.74850989  0.50363033  1
  H  H169  1  0.08424728  0.08190207  0.99504148  1
  H  H170  1  0.83316196  0.24954445  0.50631828  1
  H  H171  1  0.64751306  0.08496144  0.48797618  1
  H  H172  1  0.82823271  0.24668010  1.00068364  1
  H  H173  1  0.67383953  0.24927255  0.49985844  1
  H  H174  1  0.32473758  0.24074959  0.50346886  1
  H  H175  1  0.84073055  0.91565000  0.99302875  1
  H  H176  1  0.85469185  0.58127600  0.99167583  1
  H  H177  1  0.68823969  0.42475441  0.50077559  1
  H  H178  1  0.81139789  0.42216579  -0.00613422  1
  H  H179  1  0.07756563  0.24992186  0.00364631  1
  H  H180  1  0.44731665  0.25220880  0.50469305  1
  H  H181  1  0.17139011  0.24236199  0.49949453  1
  H  H182  1  0.05335592  0.58839487  -0.00666493  1
  H  H183  1  0.94746934  0.74688006  0.49614001  1
  H  H184  1  0.19460403  0.41802101  -0.00150073  1
  H  H185  1  0.92501935  0.39695734  0.99594899  1
  H  H186  1  0.42781482  0.91853282  0.50095412  1
  H  H187  1  0.66660383  0.91376141  0.50341789  1
  H  H188  1  0.34440827  0.41340569  0.48627193  1
  H  H189  1  0.43179914  0.09347569  0.99105523  1
  H  H190  1  0.19633917  0.43284799  0.50219375  1
  H  H191  1  0.05138079  0.24957139  0.50538673  1
  Pb  Pb192  1  0.25159395  0.04647531  0.75177508  1
  Pb  Pb193  1  0.25020833  0.38169081  0.74795858  1
  Pb  Pb194  1  0.24997362  0.71316488  0.75110548  1
  Pb  Pb195  1  0.75132003  0.04539446  0.74830135  1
  Pb  Pb196  1  0.74726249  0.38136970  0.74860465  1
  Pb  Pb197  1  0.75515688  0.71543431  0.74925148  1
  Pb  Pb198  1  0.25240405  0.28416226  0.25606593  1
  Pb  Pb199  1  0.25037126  0.62097224  0.25228504  1
  Pb  Pb200  1  0.24459211  0.95194064  0.24813861  1
  Pb  Pb201  1  0.74651110  0.28568213  0.24927060  1
  Pb  Pb202  1  0.74798225  0.62068356  0.24847254  1
  Pb  Pb203  1  0.75264145  0.95133121  0.24689695  1
  Pb  Pb204  1  -0.00132378  0.21363069  0.74986753  1
  Pb  Pb205  1  0.00068933  0.54723607  0.75102113  1
  Pb  Pb206  1  0.00327864  0.88028421  0.74920621  1
  Pb  Pb207  1  0.50003839  0.21204362  0.74673585  1
  Pb  Pb208  1  0.50121752  0.55112314  0.74781089  1
  Pb  Pb209  1  0.50021058  0.87912034  0.75324032  1
  Pb  Pb210  1  -0.00280006  0.12011766  0.25307862  1
  Pb  Pb211  1  0.00071965  0.45165786  0.24653482  1
  Pb  Pb212  1  -0.00249378  0.78468032  0.25365011  1
  Pb  Pb213  1  0.49924095  0.11581949  0.24071577  1
  Pb  Pb214  1  0.50016944  0.45414470  0.25344339  1
  Pb  Pb215  1  0.49799882  0.78835040  0.24909102  1
  C  C216  1  0.00185746  0.04620764  0.63281757  1
  C  C217  1  -0.00336692  0.38095182  0.63154737  1
  C  C218  1  0.00126514  0.71257137  0.63164977  1
  C  C219  1  0.50411579  0.04663864  0.63267932  1
  C  C220  1  0.49637264  0.38095870  0.63437667  1
  C  C221  1  0.50170051  0.71367510  0.63391339  1
  C  C222  1  0.00072739  0.28662631  0.13572964  1
  C  C223  1  -0.00358361  0.62035086  0.13428081  1
  C  C224  1  -0.00138132  0.95253528  0.13243128  1
  C  C225  1  0.50137516  0.28676430  0.13038104  1
  C  C226  1  0.49581035  0.61938990  0.13276310  1
  C  C227  1  0.49903975  0.95205953  0.13171503  1
  C  C228  1  0.00123678  0.04745569  0.86881995  1
  C  C229  1  -0.00115377  0.38004555  0.86700334  1
  C  C230  1  0.00072782  0.71407668  0.86686959  1
  C  C231  1  0.50130780  0.04682829  0.86742039  1
  C  C232  1  0.50060587  0.37857364  0.86641104  1
  C  C233  1  0.50161152  0.71410285  0.86746479  1
  C  C234  1  0.00039784  0.28595660  0.36575524  1
  C  C235  1  0.00107520  0.61962204  0.37041887  1
  C  C236  1  -0.00106652  0.95314339  0.36718679  1
  C  C237  1  0.49783251  0.28660357  0.36436731  1
  C  C238  1  0.50206641  0.62039222  0.36719717  1
  C  C239  1  0.49970639  0.95340852  0.36545377  1
  C  C240  1  0.25051189  0.21292769  0.63400970  1
  C  C241  1  0.24762103  0.54776652  0.63255105  1
  C  C242  1  0.24826867  0.87973820  0.63460240  1
  C  C243  1  0.75167232  0.21454389  0.63319594  1
  C  C244  1  0.74884460  0.54742242  0.63195347  1
  C  C245  1  0.74994558  0.88020064  0.63447401  1
  C  C246  1  0.25084623  0.12028573  0.13252901  1
  C  C247  1  0.24945512  0.45339964  0.13362853  1
  C  C248  1  0.24802662  0.78661851  0.13283357  1
  C  C249  1  0.74897978  0.11974534  0.13431823  1
  C  C250  1  0.74959448  0.45252636  0.13402901  1
  C  C251  1  0.74956313  0.78611889  0.13061296  1
  C  C252  1  0.25076874  0.21334808  0.86634530  1
  C  C253  1  0.25314223  0.54756899  0.86614230  1
  C  C254  1  0.24783579  0.87952685  0.86755281  1
  C  C255  1  0.74801165  0.21381100  0.86714954  1
  C  C256  1  0.75354026  0.54700750  0.86575531  1
  C  C257  1  0.75113193  0.88039171  0.86935000  1
  C  C258  1  0.24797412  0.11891197  0.36728106  1
  C  C259  1  0.25261160  0.45343909  0.36816133  1
  C  C260  1  0.24889058  0.78631294  0.36838823  1
  C  C261  1  0.74618677  0.11874568  0.36684647  1
  C  C262  1  0.75227623  0.45385795  0.36955705  1
  C  C263  1  0.74883605  0.78666096  0.36571520  1
  C  C264  1  0.20866277  0.09458416  0.46154165  1
  C  C265  1  0.54720825  0.92974587  0.45747026  1
  C  C266  1  0.45095358  0.26126417  0.04021135  1
  C  C267  1  0.21403640  0.90512601  0.54077145  1
  C  C268  1  0.47167230  0.73993131  0.96400189  1
  C  C269  1  0.52572989  0.59471334  0.03671086  1
  C  C270  1  0.70915714  0.90421443  0.54168102  1
  C  C271  1  0.03768054  0.26083902  0.04262556  1
  C  C272  1  0.20823756  0.23841185  0.95968335  1
  C  C273  1  0.93962170  0.59705345  0.04512540  1
  C  C274  1  0.47706223  0.26151806  0.46076826  1
  C  C275  1  0.71345923  0.57540840  0.53901586  1
  C  C276  1  0.55335023  0.73835623  0.95846069  1
  C  C277  1  0.05717604  0.73796406  0.54190897  1
  C  C278  1  0.20873336  0.23709352  0.54057558  1
  C  C279  1  0.72380636  0.09608266  0.03816616  1
  C  C280  1  0.71293823  0.23949047  0.53902141  1
  C  C281  1  0.22934495  0.57425877  0.96162490  1
  C  C282  1  0.70662712  0.23831289  0.96082400  1
  C  C283  1  0.20368685  0.76011172  0.46149565  1
  C  C284  1  0.28520138  0.76010699  0.46268318  1
  C  C285  1  0.53750634  0.92352399  0.03749497  1
  C  C286  1  0.96936966  0.92408799  0.46098323  1
  C  C287  1  0.53196826  0.26028345  0.03522573  1
  C  C288  1  0.95751502  0.92603694  0.03995316  1
  C  C289  1  0.80673111  0.57095411  0.95669330  1
  C  C290  1  0.69669798  0.43015958  0.04328553  1
  C  C291  1  0.46582997  0.92882687  0.46149807  1
  C  C292  1  0.77770201  0.42976480  0.03631820  1
  C  C293  1  0.29008455  0.23920642  0.96095289  1
  C  C294  1  0.29026448  0.09399885  0.46133060  1
  C  C295  1  0.96161484  0.59456719  0.46301050  1
  C  C296  1  0.02041395  0.59644074  0.03620792  1
  C  C297  1  0.69034187  0.76326590  0.45443373  1
  C  C298  1  0.54805871  0.07152585  0.54029395  1
  C  C299  1  0.21803595  0.75823746  0.03895864  1
  C  C300  1  0.78821893  0.23779598  0.96200279  1
  C  C301  1  0.77140438  0.76104317  0.46341696  1
  C  C302  1  0.77273597  0.09284025  0.46306212  1
  C  C303  1  0.54435343  0.73830486  0.54168615  1
  C  C304  1  0.04230856  0.59499691  0.46275970  1
  C  C305  1  0.96433566  0.07359266  0.96404349  1
  C  C306  1  0.30439834  0.42712669  0.04500161  1
  C  C307  1  0.02087102  0.26015601  0.46203522  1
  C  C308  1  0.77789819  0.75725309  0.03444617  1
  C  C309  1  0.71821784  0.90984558  0.96446767  1
  C  C310  1  0.72510130  0.57119860  0.96271530  1
  C  C311  1  0.93507368  0.40611053  0.54415110  1
  N  N312  1  0.05332262  0.07185025  0.54253817  1
  N  N313  1  0.21548100  0.90730958  0.95947079  1
  N  N314  1  0.54185577  0.07760352  0.95716452  1
  N  N315  1  0.26709878  0.09321447  0.03763970  1
  N  N316  1  0.18971032  0.09591150  0.04551794  1
  N  N317  1  0.45389402  0.40457422  0.54069910  1
  N  N318  1  0.45846181  0.92541399  0.04006532  1
  N  N319  1  0.30280321  0.43460037  0.45858686  1
  N  N320  1  0.94207943  0.26217484  0.45519397  1
  N  N321  1  0.03538479  0.92529113  0.03714173  1
  N  N322  1  0.29393340  0.90572482  0.95960690  1
  N  N323  1  0.69934573  0.76020647  0.04127678  1
  N  N324  1  0.79761162  0.43383191  0.46124705  1
  N  N325  1  0.29565034  0.75945758  0.04061269  1
  N  N326  1  0.78846007  0.90475849  0.53905834  1
  N  N327  1  0.69351257  0.09472671  0.45580567  1
  N  N328  1  0.28832197  0.23992177  0.54162750  1
  N  N329  1  0.03875988  0.73770659  0.96150800  1
  N  N330  1  0.80261534  0.09535172  0.04350990  1
  N  N331  1  0.30833090  0.57202111  0.95639651  1
  N  N332  1  0.04695445  0.92589083  0.45927483  1
  N  N333  1  0.46311915  0.06710032  0.96085405  1
  N  N334  1  0.79084371  0.57465525  0.53820149  1
  N  N335  1  0.95722532  0.40892448  0.95746727  1
  N  N336  1  0.46508356  0.73887775  0.53837523  1
  N  N337  1  0.97561849  0.07311141  0.53936750  1
  N  N338  1  0.72003632  0.41997969  0.46028968  1
  N  N339  1  0.22512332  0.42519634  0.03908666  1
  N  N340  1  0.47696451  0.59371498  0.46069185  1
  N  N341  1  0.22402550  0.42271718  0.46096685  1
  N  N342  1  0.79267244  0.23893251  0.54079180  1
  N  N343  1  0.44650606  0.59592253  0.04265791  1
  N  N344  1  0.45691943  0.40357352  0.95924004  1
  N  N345  1  0.01339472  0.40836084  0.53570317  1
  N  N346  1  0.27257762  0.57162601  0.53817088  1
  N  N347  1  0.55585287  0.26241549  0.45374506  1
  N  N348  1  0.53283796  0.40388321  0.96195192  1
  N  N349  1  0.19486367  0.56989643  0.54175167  1
  N  N350  1  0.53059495  0.40604565  0.53919133  1
  N  N351  1  0.55479624  0.59523618  0.45729270  1
  N  N352  1  0.97831324  0.73957949  0.53653497  1
  N  N353  1  0.04329895  0.07303747  0.96067884  1
  N  N354  1  0.03641413  0.39743090  0.96148138  1
  N  N355  1  0.47024580  0.07275389  0.53634337  1
  N  N356  1  0.29341111  0.90489515  0.54128389  1
  N  N357  1  0.96266615  0.73826718  0.96138031  1
  N  N358  1  0.79713231  0.90787237  0.95945322  1
  N  N359  1  0.95822428  0.26188096  0.04157163  1
  N  N360  1  0.06920004  0.05642242  0.60112978  1
  N  N361  1  0.05236148  0.39135967  0.58931877  1
  N  N362  1  0.07136638  0.72198519  0.60095921  1
  N  N363  1  0.57084918  0.05586891  0.59890519  1
  N  N364  1  0.55805484  0.39127118  0.59699751  1
  N  N365  1  0.56815594  0.72292500  0.60016641  1
  N  N366  1  0.43280617  0.27711747  0.09837528  1
  N  N367  1  0.42825340  0.61067630  0.10190446  1
  N  N368  1  0.43389398  0.94331469  0.09796998  1
  N  N369  1  0.93702071  0.27757269  0.10013335  1
  N  N370  1  0.92554225  0.61130543  0.10450155  1
  N  N371  1  0.93288196  0.94246174  0.09756734  1
  N  N372  1  0.43791780  0.05898829  0.90220753  1
  N  N373  1  0.43527307  0.38778968  0.89999524  1
  N  N374  1  0.44078723  0.72459828  0.90612831  1
  N  N375  1  0.93801076  0.05788437  0.90736441  1
  N  N376  1  0.93400728  0.38641967  0.90207471  1
  N  N377  1  0.93737825  0.72344114  0.90285282  1
  N  N378  1  0.05817014  0.27461919  0.40755412  1
  N  N379  1  0.06676403  0.61001941  0.40620206  1
  N  N380  1  0.06538519  0.94444020  0.39938754  1
  N  N381  1  0.56678876  0.27800092  0.39365889  1
  N  N382  1  0.56982089  0.61050436  0.39844336  1
  N  N383  1  0.56740758  0.94439949  0.39932637  1
  N  N384  1  0.31403679  0.22251679  0.59866332  1
  N  N385  1  0.30668631  0.55820941  0.59305354  1
  N  N386  1  0.31286638  0.88906139  0.59999809  1
  N  N387  1  0.81628865  0.22428777  0.59902810  1
  N  N388  1  0.81311555  0.55719660  0.59753486  1
  N  N389  1  0.81200561  0.88987497  0.59729287  1
  N  N390  1  0.18037237  0.11122523  0.10498949  1
  N  N391  1  0.19110497  0.44383639  0.09317084  1
  N  N392  1  0.18612875  0.77466109  0.09418479  1
  N  N393  1  0.68895913  0.11042853  0.09379442  1
  N  N394  1  0.68025248  0.44373274  0.10219179  1
  N  N395  1  0.68156074  0.77785347  0.10043747  1
  N  N396  1  0.18497390  0.22292483  0.90241190  1
  N  N397  1  0.19410405  0.55909684  0.90674769  1
  N  N398  1  0.18594703  0.88986737  0.90437496  1
  N  N399  1  0.68264813  0.22389033  0.90355954  1
  N  N400  1  0.69316303  0.55650026  0.90566847  1
  N  N401  1  0.68943172  0.89278720  0.90867196  1
  N  N402  1  0.31350785  0.10944854  0.40151539  1
  N  N403  1  0.32027120  0.44253520  0.39838008  1
  N  N404  1  0.31231456  0.77580352  0.40666576  1
  N  N405  1  0.80579552  0.10788259  0.40787474  1
  N  N406  1  0.81842906  0.44467912  0.40233964  1
  N  N407  1  0.80669848  0.77593175  0.40697588  1
  N  N408  1  0.43989062  0.27592352  0.40622308  1
  N  N409  1  0.44296515  0.61113372  0.40699761  1
  N  N410  1  0.43730864  0.94380981  0.40297575  1
  N  N411  1  0.93137997  0.27796313  0.39491016  1
  N  N412  1  0.93616903  0.60941656  0.40672955  1
  N  N413  1  0.93731704  0.94051384  0.40583368  1
  N  N414  1  0.06670317  0.05677446  0.90187623  1
  N  N415  1  0.06206406  0.39190500  0.90219987  1
  N  N416  1  0.06403350  0.72308118  0.90289567  1
  N  N417  1  0.56573543  0.05389512  0.90275841  1
  N  N418  1  0.56172993  0.38837972  0.90468174  1
  N  N419  1  0.57050845  0.72293482  0.89973711  1
  N  N420  1  0.06508139  0.27605401  0.10004102  1
  N  N421  1  0.05496519  0.61082124  0.09329895  1
  N  N422  1  0.06097192  0.94210124  0.09621951  1
  N  N423  1  0.56240014  0.27582778  0.09077963  1
  N  N424  1  0.55664928  0.60927029  0.09262932  1
  N  N425  1  0.56283610  0.94034873  0.09412213  1
  N  N426  1  0.44294840  0.05682783  0.59527393  1
  N  N427  1  0.43151618  0.38966160  0.59995007  1
  N  N428  1  0.44019258  0.72376148  0.59630812  1
  N  N429  1  0.94228825  0.05558574  0.59335273  1
  N  N430  1  0.92462269  0.38982071  0.60368855  1
  N  N431  1  0.94291755  0.72218666  0.59139816  1
  N  N432  1  0.18333245  0.10946954  0.40473686  1
  N  N433  1  0.19296625  0.44559293  0.40791252  1
  N  N434  1  0.18239596  0.77661482  0.40133806  1
  N  N435  1  0.67773658  0.11023451  0.39644083  1
  N  N436  1  0.69081050  0.44356013  0.40707845  1
  N  N437  1  0.67753391  0.77874362  0.39527844  1
  N  N438  1  0.31510382  0.22354913  0.90159239  1
  N  N439  1  0.32145273  0.55548042  0.89636083  1
  N  N440  1  0.31307153  0.88976845  0.90164695  1
  N  N441  1  0.81280192  0.22259351  0.90245982  1
  N  N442  1  0.82258347  0.55584507  0.89618277  1
  N  N443  1  0.81791295  0.88941101  0.90093475  1
  N  N444  1  0.30590833  0.11033111  0.08961661  1
  N  N445  1  0.31954811  0.44362979  0.10392083  1
  N  N446  1  0.31433111  0.77732812  0.10062324  1
  N  N447  1  0.81640610  0.11004526  0.10322963  1
  N  N448  1  0.81003699  0.44376924  0.09427178  1
  N  N449  1  0.80943781  0.77348377  0.08975338  1
  N  N450  1  0.18491297  0.22241558  0.59838445  1
  N  N451  1  0.17974946  0.55560940  0.60070498  1
  N  N452  1  0.18490133  0.89003020  0.59775818  1
  N  N453  1  0.68729888  0.22428510  0.59644192  1
  N  N454  1  0.68472757  0.55882790  0.59533400  1
  N  N455  1  0.68415267  0.88954983  0.59995844  1
  Cl  Cl456  1  0.25527685  0.05471168  0.61947718  1
  Cl  Cl457  1  0.24165130  0.39249376  0.60410295  1
  Cl  Cl458  1  0.25460995  0.71813564  0.61654425  1
  Cl  Cl459  1  0.75753923  0.05750866  0.61052283  1
  Cl  Cl460  1  0.74194493  0.39008499  0.60751868  1
  Cl  Cl461  1  0.75740663  0.71978377  0.61533804  1
  Cl  Cl462  1  0.24902836  0.28241970  0.12388231  1
  Cl  Cl463  1  0.24302024  0.61343027  0.11753815  1
  Cl  Cl464  1  0.24725312  0.94519238  0.11118760  1
  Cl  Cl465  1  0.75108855  0.28183181  0.11783936  1
  Cl  Cl466  1  0.74011883  0.61572775  0.11415158  1
  Cl  Cl467  1  0.74901155  0.94346893  0.11152974  1
  Cl  Cl468  1  0.25539847  0.05682571  0.89404489  1
  Cl  Cl469  1  0.24516617  0.38955222  0.89277321  1
  Cl  Cl470  1  0.24929138  0.71950233  0.88255668  1
  Cl  Cl471  1  0.74879879  0.05299074  0.88238101  1
  Cl  Cl472  1  0.75045105  0.38766715  0.88221966  1
  Cl  Cl473  1  0.75314834  0.72356181  0.88375202  1
  Cl  Cl474  1  0.25052600  0.27660159  0.39591340  1
  Cl  Cl475  1  0.26115137  0.60862188  0.39144778  1
  Cl  Cl476  1  0.24939204  0.94724269  0.38004360  1
  Cl  Cl477  1  0.74974158  0.28048271  0.38577207  1
  Cl  Cl478  1  0.75177267  0.61467792  0.37842664  1
  Cl  Cl479  1  0.75133109  0.94925751  0.37889281  1
  Cl  Cl480  1  0.00117041  0.22050432  0.61341331  1
  Cl  Cl481  1  -0.00286003  0.54825599  0.61970011  1
  Cl  Cl482  1  -0.00211787  0.88308996  0.61692181  1
  Cl  Cl483  1  0.49840878  0.22031526  0.61098838  1
  Cl  Cl484  1  0.49121439  0.55777766  0.60922293  1
  Cl  Cl485  1  0.49830599  0.88675279  0.62120970  1
  Cl  Cl486  1  0.00010969  0.11191500  0.11930129  1
  Cl  Cl487  1  0.00464703  0.44105610  0.10304508  1
  Cl  Cl488  1  -0.00235986  0.78203746  0.12242552  1
  Cl  Cl489  1  0.49463691  0.10770043  0.09758794  1
  Cl  Cl490  1  0.49922762  0.45094046  0.12268260  1
  Cl  Cl491  1  0.49894146  0.78341079  0.11473277  1
  Cl  Cl492  1  0.00119886  0.21787909  0.88150847  1
  Cl  Cl493  1  0.01033516  0.54981347  0.88544954  1
  Cl  Cl494  1  0.00172916  0.88868182  0.88259455  1
  Cl  Cl495  1  0.49937888  0.21361655  0.87775807  1
  Cl  Cl496  1  0.50702172  0.55639825  0.88383463  1
  Cl  Cl497  1  0.49918130  0.89074219  0.88912423  1
  Cl  Cl498  1  -0.00889267  0.10946226  0.38954337  1
  Cl  Cl499  1  0.00824433  0.44365474  0.39197171  1
  Cl  Cl500  1  -0.00827332  0.77638992  0.39098950  1
  Cl  Cl501  1  0.49732855  0.11555169  0.37196569  1
  Cl  Cl502  1  0.50419470  0.44929436  0.38570306  1
  Cl  Cl503  1  0.49573282  0.78174409  0.37936185  1
  Cl  Cl504  1  0.36293561  0.14310740  0.75015482  1
  Cl  Cl505  1  0.35902532  0.47525452  0.75153094  1
  Cl  Cl506  1  0.36282411  0.81169495  0.75098298  1
  Cl  Cl507  1  0.86285994  0.14476693  0.74793752  1
  Cl  Cl508  1  0.86427469  0.47550214  0.75059961  1
  Cl  Cl509  1  0.86105142  0.80995335  0.75112301  1
  Cl  Cl510  1  0.13649351  0.18958822  0.24918694  1
  Cl  Cl511  1  0.13882804  0.52083984  0.25065393  1
  Cl  Cl512  1  0.13893325  0.85764420  0.25076164  1
  Cl  Cl513  1  0.64083563  0.19081373  0.25389110  1
  Cl  Cl514  1  0.63720878  0.52211078  0.24938771  1
  Cl  Cl515  1  0.63531288  0.85676486  0.25078988  1
  Cl  Cl516  1  0.13823437  0.14412449  0.75047398  1
  Cl  Cl517  1  0.13915836  0.47605579  0.74825301  1
  Cl  Cl518  1  0.13715713  0.81013095  0.74961741  1
  Cl  Cl519  1  0.63719341  0.14398767  0.74951363  1
  Cl  Cl520  1  0.64113083  0.47605222  0.74850658  1
  Cl  Cl521  1  0.63760063  0.81051155  0.75241644  1
  Cl  Cl522  1  0.35873789  0.19057723  0.24963857  1
  Cl  Cl523  1  0.36249623  0.52243323  0.25017123  1
  Cl  Cl524  1  0.36305591  0.85634027  0.24755499  1
  Cl  Cl525  1  0.86339774  0.18957951  0.24990501  1
  Cl  Cl526  1  0.86249779  0.52216907  0.25000644  1
  Cl  Cl527  1  0.85879949  0.85692509  0.24850053  1
  Cl  Cl528  1  0.11240313  0.31122019  0.75059179  1
  Cl  Cl529  1  0.11318905  0.64306497  0.74661394  1
  Cl  Cl530  1  0.11213452  0.97832845  0.75010285  1
  Cl  Cl531  1  0.61320099  0.31034272  0.74894443  1
  Cl  Cl532  1  0.61058443  0.64236104  0.75179714  1
  Cl  Cl533  1  0.61353533  0.97797699  0.75088625  1
  Cl  Cl534  1  0.38990558  0.02487161  0.24591074  1
  Cl  Cl535  1  0.38598507  0.35592366  0.24925976  1
  Cl  Cl536  1  0.38635145  0.68905548  0.24644648  1
  Cl  Cl537  1  0.88555621  0.02367644  0.24863095  1
  Cl  Cl538  1  0.89050375  0.35806024  0.25277440  1
  Cl  Cl539  1  0.88720681  0.68927489  0.24898190  1
  Cl  Cl540  1  0.38478422  0.31025018  0.74805330  1
  Cl  Cl541  1  0.38841456  0.64190110  0.75065969  1
  Cl  Cl542  1  0.38730410  0.97775372  0.75218894  1
  Cl  Cl543  1  0.88854510  0.31041782  0.74656845  1
  Cl  Cl544  1  0.88843819  0.64220428  0.75223405  1
  Cl  Cl545  1  0.88677479  0.97728897  0.75069164  1
  Cl  Cl546  1  0.11351488  0.02357256  0.24956752  1
  Cl  Cl547  1  0.10981303  0.35796260  0.25107413  1
  Cl  Cl548  1  0.11234331  0.68902173  0.25303952  1
  Cl  Cl549  1  0.61045413  0.02520419  0.24922560  1
  Cl  Cl550  1  0.61389437  0.35617178  0.25241294  1
  Cl  Cl551  1  0.61159172  0.68955295  0.25137937  1
