# generated using pymatgen
data_H8PbC4(N3Cl2)2
_symmetry_space_group_name_H-M   'P 1'
_cell_length_a   16.62745551
_cell_length_b   22.52717363
_cell_length_c   21.59946165
_cell_angle_alpha   90.00064952
_cell_angle_beta   90.01143451
_cell_angle_gamma   90.00852604
_symmetry_Int_Tables_number   1
_chemical_formula_structural   H8PbC4(N3Cl2)2
_chemical_formula_sum   'H192 Pb24 C96 N144 Cl96'
_cell_volume   8090.50096833
_cell_formula_units_Z   24
loop_
 _symmetry_equiv_pos_site_id
 _symmetry_equiv_pos_as_xyz
  1  'x, y, z'
loop_
 _atom_site_type_symbol
 _atom_site_label
 _atom_site_symmetry_multiplicity
 _atom_site_fract_x
 _atom_site_fract_y
 _atom_site_fract_z
 _atom_site_occupancy
  H  H0  1  0.00455137  0.03010871  0.66963202  1
  H  H1  1  0.00937208  0.36284018  0.68139832  1
  H  H2  1  0.00742009  0.69690008  0.68012126  1
  H  H3  1  0.49942076  0.02136678  0.67376174  1
  H  H4  1  0.49769260  0.35995375  0.68052920  1
  H  H5  1  0.50351818  0.68900930  0.67619098  1
  H  H6  1  -0.01145151  0.30493100  0.17459803  1
  H  H7  1  -0.00034779  0.63716479  0.18052989  1
  H  H8  1  -0.00434172  0.96759415  0.17715224  1
  H  H9  1  0.51337337  0.30948897  0.17334093  1
  H  H10  1  0.50975425  0.63699905  0.16986632  1
  H  H11  1  0.48924300  0.97586751  0.17576786  1
  H  H12  1  -0.00726803  0.02876555  0.81994162  1
  H  H13  1  -0.00261034  0.36113038  0.81937356  1
  H  H14  1  -0.01822512  0.69513141  0.81833249  1
  H  H15  1  0.50623939  0.03027441  0.82130503  1
  H  H16  1  0.51005524  0.36385157  0.82695325  1
  H  H17  1  0.51590107  0.69364498  0.82785807  1
  H  H18  1  0.00774483  0.30796292  0.32405933  1
  H  H19  1  -0.00505571  0.64436280  0.31801014  1
  H  H20  1  -0.00056661  0.97601389  0.32209871  1
  H  H21  1  0.50107424  0.30475280  0.32200980  1
  H  H22  1  0.49967015  0.63676951  0.32258777  1
  H  H23  1  0.49894056  0.96997864  0.32224104  1
  H  H24  1  0.25971322  0.19076721  0.67740192  1
  H  H25  1  0.22827205  0.53129075  0.67641272  1
  H  H26  1  0.24024346  0.86085828  0.67287027  1
  H  H27  1  0.74700603  0.19431197  0.67654740  1
  H  H28  1  0.76853495  0.52636969  0.67488901  1
  H  H29  1  0.75007008  0.86139958  0.67937915  1
  H  H30  1  0.23885849  0.14084502  0.17512811  1
  H  H31  1  0.22397764  0.47498422  0.16794552  1
  H  H32  1  0.24020321  0.80407978  0.17170887  1
  H  H33  1  0.75740573  0.13362994  0.17959000  1
  H  H34  1  0.76682795  0.47261616  0.18017896  1
  H  H35  1  0.75534336  0.80162860  0.18165961  1
  H  H36  1  0.26083433  0.19886527  0.82753770  1
  H  H37  1  0.25051981  0.52646083  0.82462474  1
  H  H38  1  0.25486313  0.86053265  0.82229548  1
  H  H39  1  0.73866492  0.19760479  0.82025517  1
  H  H40  1  0.74457518  0.52874250  0.82744843  1
  H  H41  1  0.74908353  0.86347735  0.81970260  1
  H  H42  1  0.26244207  0.13952510  0.32296002  1
  H  H43  1  0.26208167  0.47125796  0.32307027  1
  H  H44  1  0.27361756  0.80320861  0.32551261  1
  H  H45  1  0.74490062  0.13720405  0.32494090  1
  H  H46  1  0.75068520  0.47243893  0.32240924  1
  H  H47  1  0.73772384  0.80178209  0.32052111  1
  H  H48  1  0.11222905  0.05554475  0.58811312  1
  H  H49  1  0.13364472  0.38687516  0.61075097  1
  H  H50  1  0.12306800  0.72490004  0.60374582  1
  H  H51  1  0.61250945  0.05683751  0.59918405  1
  H  H52  1  0.63530210  0.38438706  0.62488163  1
  H  H53  1  0.61626007  0.72195300  0.59786574  1
  H  H54  1  0.36677669  0.29020312  0.13154823  1
  H  H55  1  0.36610576  0.62033698  0.12608040  1
  H  H56  1  0.38925212  0.93925003  0.09169925  1
  H  H57  1  0.87017351  0.27676379  0.10117083  1
  H  H58  1  0.86671313  0.61509711  0.11674521  1
  H  H59  1  0.88276610  0.94063715  0.09892709  1
  H  H60  1  0.38048425  0.05580006  0.88965161  1
  H  H61  1  0.37540951  0.38458098  0.88605344  1
  H  H62  1  0.37334010  0.71135563  0.87722684  1
  H  H63  1  0.88797844  0.05522294  0.90503841  1
  H  H64  1  0.88444171  0.39087754  0.89745044  1
  H  H65  1  0.87829187  0.72321391  0.90221969  1
  H  H66  1  0.11572908  0.27578185  0.40496288  1
  H  H67  1  0.12345243  0.61582852  0.38078727  1
  H  H68  1  0.11269349  0.94357718  0.40081675  1
  H  H69  1  0.61334534  0.27152400  0.39822227  1
  H  H70  1  0.62447807  0.60937051  0.39365374  1
  H  H71  1  0.61149751  0.94133002  0.40211799  1
  H  H72  1  0.38877510  0.21797347  0.61191534  1
  H  H73  1  0.37209037  0.54867943  0.62761636  1
  H  H74  1  0.38086912  0.88262234  0.62301440  1
  H  H75  1  0.88408421  0.21394203  0.62095701  1
  H  H76  1  0.86812317  0.55964563  0.58754148  1
  H  H77  1  0.88279382  0.88946401  0.61858214  1
  H  H78  1  0.11759110  0.11367140  0.10172036  1
  H  H79  1  0.13323320  0.43623447  0.07965779  1
  H  H80  1  0.12899324  0.77455180  0.09324803  1
  H  H81  1  0.61947217  0.11419029  0.12327621  1
  H  H82  1  0.62346147  0.45648191  0.12948731  1
  H  H83  1  0.62015744  0.78174690  0.12285570  1
  H  H84  1  0.13654126  0.22142979  0.89565154  1
  H  H85  1  0.13510611  0.55570483  0.89891055  1
  H  H86  1  0.11610211  0.88463348  0.87659145  1
  H  H87  1  0.64083786  0.22765699  0.90755400  1
  H  H88  1  0.63389986  0.56050753  0.90614366  1
  H  H89  1  0.61955562  0.88405887  0.88613128  1
  H  H90  1  0.38185552  0.10999693  0.39807188  1
  H  H91  1  0.35960671  0.43994816  0.41149737  1
  H  H92  1  0.38034499  0.77199329  0.40778435  1
  H  H93  1  0.88613121  0.11793344  0.37523196  1
  H  H94  1  0.86741535  0.44254082  0.39634267  1
  H  H95  1  0.87966358  0.78594356  0.36967970  1
  H  H96  1  0.36613893  0.28453078  0.38303037  1
  H  H97  1  0.37615442  0.61207796  0.39584829  1
  H  H98  1  0.36506579  0.94593387  0.38340268  1
  H  H99  1  0.86923857  0.28155875  0.37809319  1
  H  H100  1  0.87486227  0.61139785  0.38961976  1
  H  H101  1  0.86571326  0.94895477  0.38342134  1
  H  H102  1  0.13325665  0.05166043  0.87271103  1
  H  H103  1  0.13216630  0.38463381  0.87987191  1
  H  H104  1  0.12294298  0.71153306  0.86845171  1
  H  H105  1  0.62933055  0.05555250  0.89368132  1
  H  H106  1  0.62359734  0.39166758  0.90296558  1
  H  H107  1  0.61638817  0.72443841  0.91518543  1
  H  H108  1  0.11874358  0.28279375  0.11013554  1
  H  H109  1  0.11532903  0.61012255  0.10444484  1
  H  H110  1  0.13014312  0.94563985  0.11653880  1
  H  H111  1  0.60634287  0.27163384  0.08531997  1
  H  H112  1  0.60696396  0.60774532  0.08269201  1
  H  H113  1  0.63220073  0.95192180  0.12927442  1
  H  H114  1  0.36535839  0.05157442  0.61804977  1
  H  H115  1  0.38874138  0.38959266  0.59997406  1
  H  H116  1  0.36943586  0.71865845  0.61861242  1
  H  H117  1  0.86722139  0.05087788  0.61803540  1
  H  H118  1  0.88499873  0.38905308  0.61071043  1
  H  H119  1  0.87484511  0.72150818  0.61780716  1
  H  H120  1  0.13356965  0.11412949  0.38974052  1
  H  H121  1  0.11763587  0.45024526  0.36833502  1
  H  H122  1  0.13441461  0.78254769  0.38008161  1
  H  H123  1  0.64041500  0.10946158  0.40821701  1
  H  H124  1  0.61933189  0.44638500  0.38530722  1
  H  H125  1  0.63545325  0.77369647  0.40557915  1
  H  H126  1  0.38500212  0.22175528  0.89550614  1
  H  H127  1  0.38294949  0.54840479  0.88404291  1
  H  H128  1  0.36257560  0.89104507  0.90315132  1
  H  H129  1  0.88313323  0.21559532  0.86729981  1
  H  H130  1  0.88103368  0.55283931  0.88404541  1
  H  H131  1  0.86786772  0.88915684  0.89597823  1
  H  H132  1  0.36548134  0.11302995  0.10867134  1
  H  H133  1  0.37134860  0.45732015  0.12690256  1
  H  H134  1  0.37597111  0.78072779  0.11512289  1
  H  H135  1  0.86455557  0.10597861  0.09454613  1
  H  H136  1  0.86686052  0.43965402  0.09428414  1
  H  H137  1  0.86801226  0.78164664  0.10246289  1
  H  H138  1  0.14037232  0.21793235  0.60292693  1
  H  H139  1  0.13079709  0.56478227  0.58792705  1
  H  H140  1  0.13648787  0.89473460  0.58980326  1
  H  H141  1  0.63683567  0.22230530  0.59710870  1
  H  H142  1  0.62595149  0.55028357  0.62715121  1
  H  H143  1  0.63418325  0.88921841  0.60426588  1
  H  H144  1  0.08712538  0.41536959  0.50165635  1
  H  H145  1  0.84891615  0.91634941  0.51145509  1
  H  H146  1  0.56558317  0.42388601  0.00929611  1
  H  H147  1  0.13904650  0.91150477  0.98568625  1
  H  H148  1  0.08421904  0.57619747  0.48894218  1
  H  H149  1  0.78645014  0.41117777  -0.00535313  1
  H  H150  1  0.21717574  0.59060099  0.49304439  1
  H  H151  1  0.17124028  0.08517210  -0.00096280  1
  H  H152  1  0.71364154  0.08113700  0.51258661  1
  H  H153  1  0.34967200  0.74628106  0.00684242  1
  H  H154  1  0.45593400  0.42221440  0.49658448  1
  H  H155  1  0.34618665  0.24557018  0.50645774  1
  H  H156  1  0.47142867  0.91278500  -0.00633181  1
  H  H157  1  0.86831260  0.75545946  0.48366593  1
  H  H158  1  0.95246911  0.75218563  1.00580274  1
  H  H159  1  0.08033034  0.25084329  0.00464034  1
  H  H160  1  0.93230213  0.58940746  0.49521666  1
  H  H161  1  0.80555216  0.75582788  -0.00670155  1
  H  H162  1  0.61042289  0.41141986  0.51610882  1
  H  H163  1  0.54467352  0.75125177  0.49717532  1
  H  H164  1  0.34418000  0.24981243  0.00829193  1
  H  H165  1  0.95043232  0.42345360  1.00154147  1
  H  H166  1  0.72131848  0.25499249  1.00842374  1
  H  H167  1  0.06324274  0.75697361  0.49906213  1
  H  H168  1  0.88159973  0.08338874  0.49851975  1
  H  H169  1  0.70307656  0.25130698  0.49065807  1
  H  H170  1  0.39597091  0.91934758  0.49213282  1
  H  H171  1  0.70987143  0.74507345  0.50825684  1
  H  H172  1  0.85211055  0.58498404  0.99201780  1
  H  H173  1  0.65827063  0.91148203  0.99732940  1
  H  H174  1  0.21205963  0.91939191  0.49065255  1
  H  H175  1  0.80768732  0.41035029  0.50285050  1
  H  H176  1  0.86299837  0.24449623  0.50870885  1
  H  H177  1  0.54506163  0.08934064  0.49750324  1
  H  H178  1  0.29347155  0.92229779  1.00684076  1
  H  H179  1  0.36066077  0.58328595  1.00591014  1
  H  H180  1  0.36993244  0.42112875  0.01722103  1
  H  H181  1  0.78805955  0.07701353  -0.00343543  1
  H  H182  1  0.87451405  0.24299751  0.97761400  1
  H  H183  1  0.05436060  0.57965466  -0.00194846  1
  H  H184  1  0.42777415  0.08887947  0.99780817  1
  H  H185  1  0.69313969  0.92109696  0.49696175  1
  H  H186  1  0.27500892  0.41552121  0.50811917  1
  H  H187  1  0.11196687  0.74075714  0.98237619  1
  H  H188  1  0.04396487  0.23881761  0.50534137  1
  H  H189  1  0.78188281  0.58491957  0.49157191  1
  H  H190  1  0.51826065  0.24797538  -0.00997812  1
  H  H191  1  0.96280061  0.08474743  1.00636614  1
  Pb  Pb192  1  0.25152101  0.04707095  0.74778557  1
  Pb  Pb193  1  0.25845823  0.38380892  0.74086674  1
  Pb  Pb194  1  0.25195868  0.71608193  0.74835777  1
  Pb  Pb195  1  0.75606952  0.05018665  0.75701888  1
  Pb  Pb196  1  0.75601699  0.38250568  0.75505906  1
  Pb  Pb197  1  0.74861508  0.71518648  0.75515394  1
  Pb  Pb198  1  0.24268652  0.28612553  0.25841776  1
  Pb  Pb199  1  0.24642086  0.61854765  0.25630053  1
  Pb  Pb200  1  0.24412408  0.94932689  0.24860400  1
  Pb  Pb201  1  0.74195992  0.28183588  0.24419331  1
  Pb  Pb202  1  0.74051313  0.61657009  0.24622687  1
  Pb  Pb203  1  0.74860581  0.95251496  0.25460120  1
  Pb  Pb204  1  0.01130265  0.21590798  0.74974522  1
  Pb  Pb205  1  0.00272456  0.54935272  0.74185321  1
  Pb  Pb206  1  0.00009029  0.88286967  0.74789080  1
  Pb  Pb207  1  0.50455611  0.21519802  0.75456315  1
  Pb  Pb208  1  0.50533347  0.54793683  0.75890016  1
  Pb  Pb209  1  0.50132098  0.88201855  0.75747282  1
  Pb  Pb210  1  -0.00047848  0.11950044  0.24128025  1
  Pb  Pb211  1  -0.00596567  0.45039895  0.23966104  1
  Pb  Pb212  1  -0.00335137  0.78463240  0.24201361  1
  Pb  Pb213  1  0.49324001  0.11699934  0.25857767  1
  Pb  Pb214  1  0.49085660  0.45070504  0.26055040  1
  Pb  Pb215  1  0.49802624  0.78463958  0.26300039  1
  C  C216  1  -0.00602946  0.04541024  0.62274721  1
  C  C217  1  0.00929057  0.37916028  0.63420012  1
  C  C218  1  0.00147157  0.71397923  0.63337753  1
  C  C219  1  0.49262301  0.04159814  0.62866974  1
  C  C220  1  0.50806473  0.37591006  0.63369142  1
  C  C221  1  0.49687204  0.70827603  0.63057592  1
  C  C222  1  -0.00705808  0.28799542  0.12770519  1
  C  C223  1  -0.00646346  0.62067954  0.13350467  1
  C  C224  1  0.00337604  0.95187049  0.13029895  1
  C  C225  1  0.49574971  0.29171790  0.12863588  1
  C  C226  1  0.49356181  0.62145167  0.12399737  1
  C  C227  1  0.50328220  0.95774308  0.13051589  1
  C  C228  1  0.00510764  0.04502435  0.86627265  1
  C  C229  1  0.00488426  0.37798695  0.86604244  1
  C  C230  1  -0.00495457  0.70975678  0.86521900  1
  C  C231  1  0.50555658  0.04731612  0.86824097  1
  C  C232  1  0.50345432  0.37975401  0.87409465  1
  C  C233  1  0.50208916  0.70969304  0.87386228  1
  C  C234  1  -0.00279784  0.28946892  0.36968961  1
  C  C235  1  -0.00273345  0.62569923  0.36438197  1
  C  C236  1  -0.00740624  0.95817351  0.36856934  1
  C  C237  1  0.49316097  0.28742563  0.36822120  1
  C  C238  1  0.50012443  0.62063114  0.36987117  1
  C  C239  1  0.49140345  0.95381733  0.36919900  1
  C  C240  1  0.26330931  0.20828975  0.63076620  1
  C  C241  1  0.24323994  0.54719170  0.63040692  1
  C  C242  1  0.25221949  0.87808571  0.62688953  1
  C  C243  1  0.75621426  0.21043857  0.62970515  1
  C  C244  1  0.75463483  0.54441694  0.62955774  1
  C  C245  1  0.75642636  0.87886439  0.63265559  1
  C  C246  1  0.24020833  0.12346063  0.12836138  1
  C  C247  1  0.24349863  0.45723356  0.12374417  1
  C  C248  1  0.24890828  0.78647214  0.12542129  1
  C  C249  1  0.74755448  0.11819462  0.13265462  1
  C  C250  1  0.75206171  0.45696354  0.13405859  1
  C  C251  1  0.74805737  0.78784302  0.13400887  1
  C  C252  1  0.26113889  0.21367350  0.87516317  1
  C  C253  1  0.25644881  0.54310341  0.87148205  1
  C  C254  1  0.24365099  0.87728545  0.86877114  1
  C  C255  1  0.75528435  0.21206653  0.86659298  1
  C  C256  1  0.75383235  0.54631660  0.87359570  1
  C  C257  1  0.74539469  0.87835690  0.86736443  1
  C  C258  1  0.25948528  0.12197963  0.36966986  1
  C  C259  1  0.24664359  0.45573969  0.36912173  1
  C  C260  1  0.26251888  0.78637353  0.37155088  1
  C  C261  1  0.75731248  0.12152338  0.37152788  1
  C  C262  1  0.74547566  0.45417607  0.36875285  1
  C  C263  1  0.75162034  0.78690721  0.36719230  1
  C  C264  1  0.69243316  0.76331782  0.04516855  1
  C  C265  1  0.97861968  0.92119687  0.03592388  1
  C  C266  1  0.73400329  0.23969792  0.53336752  1
  C  C267  1  0.74574119  0.24183390  0.96344854  1
  C  C268  1  0.81498895  0.23671163  0.54230457  1
  C  C269  1  0.43878474  0.73561748  0.95815372  1
  C  C270  1  0.31738210  0.90680271  0.54268602  1
  C  C271  1  0.42341858  0.59468041  0.04167203  1
  C  C272  1  0.98008757  0.73857519  0.96254564  1
  C  C273  1  0.82240917  0.09559213  0.45651824  1
  C  C274  1  0.43727122  0.08124085  0.54482622  1
  C  C275  1  0.01518719  0.25402155  0.46276842  1
  C  C276  1  0.04402954  0.59053317  0.45215621  1
  C  C277  1  0.93362921  0.07248257  0.53569497  1
  C  C278  1  0.77344816  0.42257610  0.46184177  1
  C  C279  1  0.95838150  0.25760449  0.03344561  1
  C  C280  1  0.72622806  0.90960916  0.53875549  1
  C  C281  1  0.30831651  0.57141246  0.96081146  1
  C  C282  1  0.52945496  0.41026380  0.96983258  1
  C  C283  1  0.98209624  0.41021928  0.95956098  1
  C  C284  1  0.22725041  0.57394961  0.96504240  1
  C  C285  1  0.74220084  0.09268549  0.46879675  1
  C  C286  1  0.26424336  0.90948018  0.96369890  1
  C  C287  1  0.44848667  0.40642124  0.96293329  1
  C  C288  1  0.42135248  0.26122760  0.04969230  1
  C  C289  1  0.27928885  0.75267012  0.46553766  1
  C  C290  1  0.01458489  0.07398358  0.52667443  1
  C  C291  1  0.06061583  0.73350277  0.95096642  1
  C  C292  1  0.22355161  0.75219429  0.03070231  1
  C  C293  1  0.50265148  0.59039020  0.02777438  1
  C  C294  1  0.77301522  0.76395392  0.03615901  1
  C  C295  1  0.24030402  0.41927129  0.02859441  1
  C  C296  1  0.21930200  0.23978559  0.96841039  1
  C  C297  1  0.48593666  0.40847539  0.53910196  1
  C  C298  1  0.46719372  0.07706548  0.95951713  1
  C  C299  1  0.04648431  0.40584290  0.54114681  1
  C  C300  1  0.02053569  0.59173533  0.03933048  1
  C  C301  1  0.51709165  0.25212306  0.46106888  1
  C  C302  1  0.72882727  0.58184890  0.96766889  1
  C  C303  1  0.81808406  0.76270612  0.45217756  1
  C  C304  1  0.57168759  0.92463715  0.04970136  1
  C  C305  1  0.17568356  0.42686689  0.45040763  1
  C  C306  1  0.70154799  0.90260402  0.95930338  1
  C  C307  1  0.73777306  0.75806470  0.46467016  1
  C  C308  1  0.99103305  0.07376873  0.96215239  1
  C  C309  1  0.76079332  0.42542784  0.03878847  1
  C  C310  1  0.02837819  0.74461985  0.53986974  1
  C  C311  1  0.30091714  0.23972853  0.96962228  1
  N  N312  1  0.56454181  0.40582639  0.54835151  1
  N  N313  1  0.01769137  0.92519646  0.46264943  1
  N  N314  1  0.23935286  0.91100958  0.53272393  1
  N  N315  1  0.05587401  0.92301571  0.04063575  1
  N  N316  1  0.78061592  0.90428594  0.96288003  1
  N  N317  1  0.94151074  0.59401386  0.04316492  1
  N  N318  1  0.30555310  0.23844384  0.54219602  1
  N  N319  1  0.23725964  0.58115507  0.53741683  1
  N  N320  1  0.20246676  0.75653806  0.45835768  1
  N  N321  1  0.06913386  0.07381499  0.95151238  1
  N  N322  1  0.53908761  0.59135822  0.46250268  1
  N  N323  1  0.51578006  0.08089706  0.53867575  1
  N  N324  1  0.68338585  0.43129494  0.05005392  1
  N  N325  1  0.76284096  0.08919148  0.03860327  1
  N  N326  1  0.49776404  0.25495912  0.03535390  1
  N  N327  1  0.44159808  0.92720827  0.45708854  1
  N  N328  1  0.80688979  0.57775983  0.95967177  1
  N  N329  1  0.76223761  0.57900802  0.53681140  1
  N  N330  1  0.93703923  0.25642695  0.45393180  1
  N  N331  1  0.54648975  0.07717404  0.96118763  1
  N  N332  1  0.43999340  0.25672756  0.45707856  1
  N  N333  1  0.80549209  0.91000878  0.54518768  1
  N  N334  1  0.21542858  0.08959087  0.45970355  1
  N  N335  1  0.94925494  0.74337117  0.54409668  1
  N  N336  1  0.68597317  0.57698496  0.54910571  1
  N  N337  1  0.18579655  0.90689571  0.95366251  1
  N  N338  1  0.46280289  0.59203687  0.46314494  1
  N  N339  1  0.20763942  0.09314307  0.03716212  1
  N  N340  1  0.29147645  0.08770769  0.46199510  1
  N  N341  1  0.96435536  0.59017905  0.45471745  1
  N  N342  1  0.30189638  0.75477850  0.03922760  1
  N  N343  1  0.06093308  0.40782036  0.95403259  1
  N  N344  1  0.44082397  0.74437059  0.54618010  1
  N  N345  1  0.03741759  0.25952378  0.03763843  1
  N  N346  1  0.28610628  0.09313570  0.03796891  1
  N  N347  1  0.31535663  0.42776248  0.04493774  1
  N  N348  1  0.51434211  0.74101417  0.97135000  1
  N  N349  1  0.94169054  0.92718484  0.45689399  1
  N  N350  1  0.68574208  0.09226164  0.04652518  1
  N  N351  1  0.25246874  0.42411889  0.46409692  1
  N  N352  1  0.22756451  0.23833295  0.53747497  1
  N  N353  1  0.96724101  0.40684356  0.54073548  1
  N  N354  1  0.51834394  0.74482661  0.54010970  1
  N  N355  1  0.69424337  0.42350828  0.45809063  1
  N  N356  1  0.31339923  0.57553127  0.54901305  1
  N  N357  1  0.51912473  0.92553047  0.46454581  1
  N  N358  1  0.49448158  0.92092057  0.03761410  1
  N  N359  1  0.82290723  0.23657248  0.94895818  1
  N  N360  1  0.05059206  0.05761536  0.57938825  1
  N  N361  1  0.07366982  0.38946853  0.59850057  1
  N  N362  1  0.06162286  0.72670591  0.59429841  1
  N  N363  1  0.55099231  0.05433008  0.58927380  1
  N  N364  1  0.57797737  0.38342623  0.60578692  1
  N  N365  1  0.55426796  0.72069842  0.59015701  1
  N  N366  1  0.41998067  0.28230311  0.10820186  1
  N  N367  1  0.41922082  0.61368240  0.10206998  1
  N  N368  1  0.45117936  0.94452063  0.08640949  1
  N  N369  1  0.93057699  0.27465346  0.08962407  1
  N  N370  1  0.92620163  0.61184166  0.10238598  1
  N  N371  1  0.94418194  0.93877056  0.08966911  1
  N  N372  1  0.44056121  0.05923999  0.90273801  1
  N  N373  1  0.43320476  0.38826555  0.90464564  1
  N  N374  1  0.42870586  0.71719417  0.89847810  1
  N  N375  1  0.95049723  0.05651129  0.91036286  1
  N  N376  1  0.94600851  0.39223992  0.90592203  1
  N  N377  1  0.94044410  0.72355388  0.90882955  1
  N  N378  1  0.05358616  0.27399908  0.41128722  1
  N  N379  1  0.06455313  0.61105925  0.39573010  1
  N  N380  1  0.05063532  0.94478633  0.40825187  1
  N  N381  1  0.55194553  0.27068521  0.40774881  1
  N  N382  1  0.56375151  0.60922991  0.40487560  1
  N  N383  1  0.54955175  0.94112579  0.40949745  1
  N  N384  1  0.32881204  0.21958026  0.59821128  1
  N  N385  1  0.31653887  0.55604513  0.60753180  1
  N  N386  1  0.32555943  0.88793126  0.60161951  1
  N  N387  1  0.82744179  0.21912305  0.60204255  1
  N  N388  1  0.80577557  0.55705551  0.58446709  1
  N  N389  1  0.82388250  0.88952790  0.60245123  1
  N  N390  1  0.17844403  0.11271179  0.09142584  1
  N  N391  1  0.19520463  0.43762110  0.07714050  1
  N  N392  1  0.19035194  0.77181452  0.08418634  1
  N  N393  1  0.67663820  0.10988561  0.10525301  1
  N  N394  1  0.67980265  0.45079081  0.10934851  1
  N  N395  1  0.67769020  0.77742535  0.10422530  1
  N  N396  1  0.19581216  0.22414028  0.91118564  1
  N  N397  1  0.19599097  0.55694424  0.91058843  1
  N  N398  1  0.17337431  0.88504479  0.89598945  1
  N  N399  1  0.70351063  0.22682598  0.91227505  1
  N  N400  1  0.69570554  0.56238303  0.91448597  1
  N  N401  1  0.67852197  0.88713445  0.90068174  1
  N  N402  1  0.32051131  0.10764459  0.40620807  1
  N  N403  1  0.29732912  0.44483630  0.41488001  1
  N  N404  1  0.31867932  0.77065936  0.41381643  1
  N  N405  1  0.83065245  0.11301696  0.39671164  1
  N  N406  1  0.80615365  0.44078927  0.40719068  1
  N  N407  1  0.82502627  0.78013653  0.39175538  1
  N  N408  1  0.42490357  0.27886054  0.39798818  1
  N  N409  1  0.43717874  0.61019774  0.40587498  1
  N  N410  1  0.42342617  0.94576994  0.39976461  1
  N  N411  1  0.92700364  0.27880244  0.39609550  1
  N  N412  1  0.93567251  0.61528223  0.40154970  1
  N  N413  1  0.92472245  0.94766060  0.39866488  1
  N  N414  1  0.07596616  0.05628145  0.89134557  1
  N  N415  1  0.07317290  0.38767090  0.89585048  1
  N  N416  1  0.06800684  0.71596462  0.89034461  1
  N  N417  1  0.56857136  0.05870450  0.90397538  1
  N  N418  1  0.56268768  0.39313943  0.91314439  1
  N  N419  1  0.55399397  0.72423700  0.91752843  1
  N  N420  1  0.05899827  0.27821606  0.09572888  1
  N  N421  1  0.05376726  0.60768654  0.09444263  1
  N  N422  1  0.07166569  0.94241072  0.10070687  1
  N  N423  1  0.54438764  0.27707950  0.08283418  1
  N  N424  1  0.54493278  0.60688993  0.07772647  1
  N  N425  1  0.57742715  0.94589430  0.10769892  1
  N  N426  1  0.42273034  0.05772064  0.60084675  1
  N  N427  1  0.45066523  0.39031134  0.59212465  1
  N  N428  1  0.42808283  0.72324563  0.60328491  1
  N  N429  1  0.92231271  0.05504269  0.59641302  1
  N  N430  1  0.94592461  0.39004666  0.59887562  1
  N  N431  1  0.93397862  0.72455433  0.60281200  1
  N  N432  1  0.19399917  0.11093421  0.40264832  1
  N  N433  1  0.17173850  0.44531429  0.39128261  1
  N  N434  1  0.19217298  0.77766159  0.39829677  1
  N  N435  1  0.70253227  0.10897899  0.41474519  1
  N  N436  1  0.67840726  0.44314887  0.39954411  1
  N  N437  1  0.69768275  0.77339341  0.41118941  1
  N  N438  1  0.32577660  0.22359123  0.91016201  1
  N  N439  1  0.32537158  0.55264778  0.90185940  1
  N  N440  1  0.30044925  0.89178766  0.91078243  1
  N  N441  1  0.82830341  0.21686424  0.88988652  1
  N  N442  1  0.82317350  0.55493956  0.90193550  1
  N  N443  1  0.80609785  0.88908363  0.90549014  1
  N  N444  1  0.30541734  0.11095087  0.09513675  1
  N  N445  1  0.31775801  0.45181254  0.10326242  1
  N  N446  1  0.31787853  0.77580103  0.09762445  1
  N  N447  1  0.80231573  0.10511909  0.09039646  1
  N  N448  1  0.80444061  0.44082600  0.08991657  1
  N  N449  1  0.80695339  0.77913829  0.09294897  1
  N  N450  1  0.20178592  0.22032648  0.59328172  1
  N  N451  1  0.19276111  0.56131523  0.58530711  1
  N  N452  1  0.19858335  0.89100912  0.58401094  1
  N  N453  1  0.69835321  0.22324728  0.58843067  1
  N  N454  1  0.68192959  0.55711732  0.60744875  1
  N  N455  1  0.69534763  0.89115573  0.59332832  1
  Cl  Cl456  1  0.23503498  0.04893524  0.61790006  1
  Cl  Cl457  1  0.26522758  0.39218392  0.60091974  1
  Cl  Cl458  1  0.24515958  0.72364250  0.61619236  1
  Cl  Cl459  1  0.73184710  0.05802969  0.62372595  1
  Cl  Cl460  1  0.76165656  0.39365257  0.62006536  1
  Cl  Cl461  1  0.73834861  0.72407322  0.61893046  1
  Cl  Cl462  1  0.23898603  0.28880580  0.12530093  1
  Cl  Cl463  1  0.23436937  0.61629064  0.12640653  1
  Cl  Cl464  1  0.26462188  0.93925705  0.11207169  1
  Cl  Cl465  1  0.73689082  0.27426014  0.10587851  1
  Cl  Cl466  1  0.73750115  0.61121133  0.11241537  1
  Cl  Cl467  1  0.76136158  0.94608705  0.12368806  1
  Cl  Cl468  1  0.25776521  0.05254675  0.88257720  1
  Cl  Cl469  1  0.25496716  0.39031765  0.87212252  1
  Cl  Cl470  1  0.25025249  0.72199355  0.88033678  1
  Cl  Cl471  1  0.76453861  0.05795762  0.89833891  1
  Cl  Cl472  1  0.75715077  0.38959878  0.89051058  1
  Cl  Cl473  1  0.75051296  0.72195337  0.89069732  1
  Cl  Cl474  1  0.23880088  0.28244208  0.39097453  1
  Cl  Cl475  1  0.24810410  0.60848540  0.39570928  1
  Cl  Cl476  1  0.23611045  0.93754668  0.39113535  1
  Cl  Cl477  1  0.73699217  0.27528913  0.37768692  1
  Cl  Cl478  1  0.75283243  0.60259906  0.39210705  1
  Cl  Cl479  1  0.73541314  0.94083877  0.39102521  1
  Cl  Cl480  1  0.01795180  0.21826559  0.61515854  1
  Cl  Cl481  1  -0.00411749  0.56457889  0.59557289  1
  Cl  Cl482  1  0.01282357  0.89327312  0.61633160  1
  Cl  Cl483  1  0.51232219  0.21953534  0.62120086  1
  Cl  Cl484  1  0.50014826  0.54555570  0.62986255  1
  Cl  Cl485  1  0.50998235  0.88762760  0.62591245  1
  Cl  Cl486  1  -0.01094317  0.11179254  0.10373364  1
  Cl  Cl487  1  -0.00533313  0.43850157  0.10374972  1
  Cl  Cl488  1  0.00106335  0.77881256  0.10734278  1
  Cl  Cl489  1  0.48844845  0.11260959  0.12510233  1
  Cl  Cl490  1  0.49825248  0.45293152  0.13037223  1
  Cl  Cl491  1  0.49653941  0.78936210  0.13277924  1
  Cl  Cl492  1  0.01144670  0.22389236  0.88513796  1
  Cl  Cl493  1  0.00929924  0.55652603  0.87682425  1
  Cl  Cl494  1  -0.00991880  0.89192764  0.88177560  1
  Cl  Cl495  1  0.51785518  0.23021773  0.89714796  1
  Cl  Cl496  1  0.51263399  0.55774595  0.89293691  1
  Cl  Cl497  1  0.48537575  0.89242246  0.89832916  1
  Cl  Cl498  1  0.01316722  0.11631023  0.37135725  1
  Cl  Cl499  1  -0.01151562  0.44694792  0.37226734  1
  Cl  Cl500  1  0.01039258  0.78144396  0.37385107  1
  Cl  Cl501  1  0.51376640  0.10811588  0.39956874  1
  Cl  Cl502  1  0.48358935  0.43769480  0.39616646  1
  Cl  Cl503  1  0.51159138  0.77297580  0.40086324  1
  Cl  Cl504  1  0.36399828  0.14905983  0.75103050  1
  Cl  Cl505  1  0.35585037  0.48178144  0.74406232  1
  Cl  Cl506  1  0.35746616  0.81870432  0.74626901  1
  Cl  Cl507  1  0.86145154  0.14683776  0.74987682  1
  Cl  Cl508  1  0.86605778  0.48415215  0.75727440  1
  Cl  Cl509  1  0.86275748  0.81464858  0.74506007  1
  Cl  Cl510  1  0.14056987  0.18296772  0.24602219  1
  Cl  Cl511  1  0.13422407  0.51775948  0.25417708  1
  Cl  Cl512  1  0.14798351  0.85112237  0.24513625  1
  Cl  Cl513  1  0.64593721  0.18049914  0.24731014  1
  Cl  Cl514  1  0.64179054  0.51806700  0.25498231  1
  Cl  Cl515  1  0.63982258  0.84978901  0.25164704  1
  Cl  Cl516  1  0.14634285  0.15107515  0.75792796  1
  Cl  Cl517  1  0.13604438  0.47819922  0.74602361  1
  Cl  Cl518  1  0.13423993  0.81298331  0.75668287  1
  Cl  Cl519  1  0.63953030  0.14817166  0.75949571  1
  Cl  Cl520  1  0.64553413  0.48440375  0.74922274  1
  Cl  Cl521  1  0.64223655  0.81903125  0.75313005  1
  Cl  Cl522  1  0.35913951  0.18735784  0.24991648  1
  Cl  Cl523  1  0.35403311  0.51583878  0.24690889  1
  Cl  Cl524  1  0.36661013  0.85620270  0.25958056  1
  Cl  Cl525  1  0.86489560  0.18803451  0.25484158  1
  Cl  Cl526  1  0.86254946  0.52280970  0.24693749  1
  Cl  Cl527  1  0.86443497  0.85432840  0.25812895  1
  Cl  Cl528  1  0.10994799  0.31482624  0.75207689  1
  Cl  Cl529  1  0.11675331  0.64678589  0.75187412  1
  Cl  Cl530  1  0.11022187  0.98375562  0.75828720  1
  Cl  Cl531  1  0.61733741  0.31578583  0.75135995  1
  Cl  Cl532  1  0.60703532  0.65144250  0.75002050  1
  Cl  Cl533  1  0.60801427  0.98160912  0.76013393  1
  Cl  Cl534  1  0.39157901  0.02027146  0.25743590  1
  Cl  Cl535  1  0.38781882  0.35151235  0.25038817  1
  Cl  Cl536  1  0.38478335  0.68526619  0.24681565  1
  Cl  Cl537  1  0.88796339  0.01958862  0.25371761  1
  Cl  Cl538  1  0.88337662  0.35096239  0.24682602  1
  Cl  Cl539  1  0.88796192  0.68828312  0.24825514  1
  Cl  Cl540  1  0.39506812  0.31752622  0.75196123  1
  Cl  Cl541  1  0.38659775  0.64582246  0.75186214  1
  Cl  Cl542  1  0.38977307  0.98203923  0.74372278  1
  Cl  Cl543  1  0.88972264  0.31142964  0.74685438  1
  Cl  Cl544  1  0.89209672  0.65048784  0.74093795  1
  Cl  Cl545  1  0.88601710  0.98181199  0.73433870  1
  Cl  Cl546  1  0.11097490  0.01756691  0.23529737  1
  Cl  Cl547  1  0.10383753  0.34968128  0.25352708  1
  Cl  Cl548  1  0.11009110  0.68529907  0.25459894  1
  Cl  Cl549  1  0.61024839  0.01867025  0.24677422  1
  Cl  Cl550  1  0.60714214  0.35231693  0.25049198  1
  Cl  Cl551  1  0.60448217  0.68148023  0.24761370  1
