# generated using pymatgen
data_H8PbC4(N3Cl2)2
_symmetry_space_group_name_H-M   'P 1'
_cell_length_a   16.63060976
_cell_length_b   22.51647670
_cell_length_c   21.59374696
_cell_angle_alpha   90.00261574
_cell_angle_beta   90.00672923
_cell_angle_gamma   89.99976026
_symmetry_Int_Tables_number   1
_chemical_formula_structural   H8PbC4(N3Cl2)2
_chemical_formula_sum   'H192 Pb24 C96 N144 Cl96'
_cell_volume   8086.05352864
_cell_formula_units_Z   24
loop_
 _symmetry_equiv_pos_site_id
 _symmetry_equiv_pos_as_xyz
  1  'x, y, z'
loop_
 _atom_site_type_symbol
 _atom_site_label
 _atom_site_symmetry_multiplicity
 _atom_site_fract_x
 _atom_site_fract_y
 _atom_site_fract_z
 _atom_site_occupancy
  H  H0  1  0.00769629  0.02851707  0.67853373  1
  H  H1  1  -0.00187537  0.36065230  0.68069873  1
  H  H2  1  -0.00367226  0.69513073  0.67812435  1
  H  H3  1  0.48810403  0.02673586  0.67703191  1
  H  H4  1  0.49836127  0.36064725  0.67759856  1
  H  H5  1  0.51056986  0.69647287  0.67927901  1
  H  H6  1  -0.00960966  0.30312462  0.18046106  1
  H  H7  1  -0.00688848  0.63292147  0.18054057  1
  H  H8  1  0.00068644  0.97388911  0.17394712  1
  H  H9  1  0.51227597  0.30008156  0.17721797  1
  H  H10  1  0.49367770  0.63878235  0.17590920  1
  H  H11  1  0.49862321  0.96829600  0.17863019  1
  H  H12  1  0.00955537  0.03214413  0.83096413  1
  H  H13  1  -0.01183339  0.36288383  0.82320892  1
  H  H14  1  -0.01035422  0.69662348  0.81977983  1
  H  H15  1  0.49506150  0.02809853  0.81868910  1
  H  H16  1  0.50956508  0.37030683  0.81567306  1
  H  H17  1  0.50731808  0.69785249  0.82317210  1
  H  H18  1  -0.00263436  0.30634102  0.32023949  1
  H  H19  1  0.00187334  0.63997585  0.32241091  1
  H  H20  1  -0.00093079  0.97195288  0.32385864  1
  H  H21  1  0.50150020  0.30922424  0.32406011  1
  H  H22  1  0.49685423  0.63386882  0.32224696  1
  H  H23  1  0.49937957  0.97296608  0.32216111  1
  H  H24  1  0.24888894  0.19094363  0.67635307  1
  H  H25  1  0.25623147  0.53178269  0.68058258  1
  H  H26  1  0.25312535  0.86187854  0.67930596  1
  H  H27  1  0.75410143  0.19534095  0.67847634  1
  H  H28  1  0.73060174  0.53184150  0.67425412  1
  H  H29  1  0.76431184  0.86705070  0.67334388  1
  H  H30  1  0.26159949  0.13263461  0.17924920  1
  H  H31  1  0.26283003  0.46941484  0.18085182  1
  H  H32  1  0.24104734  0.80512151  0.18206716  1
  H  H33  1  0.73879422  0.13144881  0.17761952  1
  H  H34  1  0.74224815  0.47040939  0.18271989  1
  H  H35  1  0.75913316  0.80686825  0.17469330  1
  H  H36  1  0.24022218  0.20072534  0.82054273  1
  H  H37  1  0.25679241  0.53065939  0.82060887  1
  H  H38  1  0.23799348  0.86247838  0.82623626  1
  H  H39  1  0.75716001  0.18599337  0.82327218  1
  H  H40  1  0.74155271  0.53389975  0.81973954  1
  H  H41  1  0.76049064  0.86337759  0.82507312  1
  H  H42  1  0.24066040  0.13902835  0.32550665  1
  H  H43  1  0.25279568  0.46996329  0.31817527  1
  H  H44  1  0.24920610  0.80554162  0.32638684  1
  H  H45  1  0.75601755  0.13701532  0.32152877  1
  H  H46  1  0.73436553  0.46884974  0.32589699  1
  H  H47  1  0.73753249  0.80937195  0.32300145  1
  H  H48  1  0.12859039  0.05558714  0.60655257  1
  H  H49  1  0.11532084  0.38822122  0.60385141  1
  H  H50  1  0.12179885  0.72027683  0.60952233  1
  H  H51  1  0.62342840  0.04763382  0.61662981  1
  H  H52  1  0.62377473  0.38835851  0.60827313  1
  H  H53  1  0.61572675  0.72510693  0.59562957  1
  H  H54  1  0.37159508  0.28132205  0.12521700  1
  H  H55  1  0.38889151  0.60668752  0.09339818  1
  H  H56  1  0.37096016  0.94509186  0.11246119  1
  H  H57  1  0.87034692  0.27872782  0.10713536  1
  H  H58  1  0.88233823  0.60984437  0.09704486  1
  H  H59  1  0.87373240  0.94562128  0.10646258  1
  H  H60  1  0.37157806  0.05323831  0.89050252  1
  H  H61  1  0.37862048  0.38813548  0.87924443  1
  H  H62  1  0.37798829  0.72208375  0.89001271  1
  H  H63  1  0.87106793  0.04863757  0.88266445  1
  H  H64  1  0.88139977  0.39395298  0.90568626  1
  H  H65  1  0.88231040  0.72811587  0.90197541  1
  H  H66  1  0.11133672  0.27576794  0.39719771  1
  H  H67  1  0.12893955  0.61534219  0.39140622  1
  H  H68  1  0.12838935  0.94666095  0.39020416  1
  H  H69  1  0.61589154  0.27969647  0.40191957  1
  H  H70  1  0.63216351  0.61373589  0.38344392  1
  H  H71  1  0.63048596  0.95123561  0.38250556  1
  H  H72  1  0.38215181  0.21814936  0.61615094  1
  H  H73  1  0.36485425  0.55569240  0.59794824  1
  H  H74  1  0.36856369  0.89140772  0.60361174  1
  H  H75  1  0.88678220  0.21397319  0.61575772  1
  H  H76  1  0.86906321  0.54794404  0.62141666  1
  H  H77  1  0.86600732  0.89169948  0.58828839  1
  H  H78  1  0.12327068  0.11600677  0.12404610  1
  H  H79  1  0.12398885  0.44795199  0.12481446  1
  H  H80  1  0.12139484  0.77931600  0.10572746  1
  H  H81  1  0.63665565  0.10524476  0.09261602  1
  H  H82  1  0.62079798  0.44780464  0.10788881  1
  H  H83  1  0.62106150  0.78205182  0.12081341  1
  H  H84  1  0.13196259  0.22187958  0.90401956  1
  H  H85  1  0.11683197  0.54784809  0.87106412  1
  H  H86  1  0.13147462  0.89447678  0.90686129  1
  H  H87  1  0.63187739  0.22166133  0.88732095  1
  H  H88  1  0.60861216  0.55621130  0.88171985  1
  H  H89  1  0.62577265  0.88424079  0.88506139  1
  H  H90  1  0.37045354  0.11171259  0.38931963  1
  H  H91  1  0.37688389  0.44645912  0.39013598  1
  H  H92  1  0.37923742  0.78109598  0.39104473  1
  H  H93  1  0.86902265  0.11255362  0.40085542  1
  H  H94  1  0.87568843  0.45395170  0.37551717  1
  H  H95  1  0.87717433  0.78564047  0.37624158  1
  H  H96  1  0.36947570  0.27892242  0.38376145  1
  H  H97  1  0.38513844  0.60793286  0.40406258  1
  H  H98  1  0.38264080  0.94676831  0.39705527  1
  H  H99  1  0.86324386  0.28330418  0.38242334  1
  H  H100  1  0.88004860  0.61223980  0.39348001  1
  H  H101  1  0.87998439  0.94579469  0.39856134  1
  H  H102  1  0.11528453  0.05834791  0.91383732  1
  H  H103  1  0.12671247  0.38663899  0.87608713  1
  H  H104  1  0.12839658  0.71666465  0.87336317  1
  H  H105  1  0.62161901  0.05109283  0.88633721  1
  H  H106  1  0.62749617  0.38790236  0.89208777  1
  H  H107  1  0.62632817  0.72524648  0.89746674  1
  H  H108  1  0.11950383  0.27600630  0.11536616  1
  H  H109  1  0.12844036  0.61259829  0.12070359  1
  H  H110  1  0.12248499  0.94730523  0.10245674  1
  H  H111  1  0.61425538  0.27134252  0.08933008  1
  H  H112  1  0.63344495  0.62264208  0.12055267  1
  H  H113  1  0.61955081  0.94266920  0.10485270  1
  H  H114  1  0.37598497  0.05716267  0.59894634  1
  H  H115  1  0.37529754  0.38684853  0.60449778  1
  H  H116  1  0.37019564  0.71582764  0.62468609  1
  H  H117  1  0.87954465  0.04897208  0.61362155  1
  H  H118  1  0.86696232  0.38537712  0.61798868  1
  H  H119  1  0.87261901  0.71931037  0.60993206  1
  H  H120  1  0.12166514  0.10996143  0.39876707  1
  H  H121  1  0.12754947  0.44464956  0.38663819  1
  H  H122  1  0.13098678  0.77609863  0.39860440  1
  H  H123  1  0.62164599  0.11606401  0.37818102  1
  H  H124  1  0.63223996  0.44504111  0.41088440  1
  H  H125  1  0.63308360  0.77778327  0.40732322  1
  H  H126  1  0.37856299  0.21856757  0.87755431  1
  H  H127  1  0.36129129  0.56009626  0.90367990  1
  H  H128  1  0.37674397  0.88288805  0.88067849  1
  H  H129  1  0.87982255  0.21749457  0.89145770  1
  H  H130  1  0.85662522  0.55596275  0.89948635  1
  H  H131  1  0.87315748  0.89377672  0.90253839  1
  H  H132  1  0.36991116  0.10866973  0.09769694  1
  H  H133  1  0.36958307  0.44507542  0.09685503  1
  H  H134  1  0.36931748  0.77946092  0.11458471  1
  H  H135  1  0.88086535  0.11588275  0.12880989  1
  H  H136  1  0.87004523  0.44631034  0.11679158  1
  H  H137  1  0.86595102  0.77555385  0.09092316  1
  H  H138  1  0.13549133  0.22057120  0.59752635  1
  H  H139  1  0.11776070  0.55341383  0.62480947  1
  H  H140  1  0.11980076  0.88419168  0.61577257  1
  H  H141  1  0.63828523  0.22061151  0.60367743  1
  H  H142  1  0.62451100  0.55481520  0.59132696  1
  H  H143  1  0.62302484  0.88373083  0.62466062  1
  H  H144  1  0.67878764  0.43974896  0.00072204  1
  H  H145  1  0.68637980  0.24181626  0.99321656  1
  H  H146  1  0.71108749  0.75120850  0.50532344  1
  H  H147  1  0.29461894  0.41993941  -0.00787363  1
  H  H148  1  0.54732520  0.25198027  0.50350030  1
  H  H149  1  0.57181854  0.39861681  1.00502355  1
  H  H150  1  0.10820672  0.75177256  0.98491705  1
  H  H151  1  0.91671871  0.75253630  0.49967278  1
  H  H152  1  0.20178742  0.24504585  1.01081637  1
  H  H153  1  0.65821049  0.91455688  0.99250976  1
  H  H154  1  0.95600570  0.42060754  1.00564399  1
  H  H155  1  0.69593609  0.25075106  0.49405026  1
  H  H156  1  0.81284727  0.22643310  0.99707550  1
  H  H157  1  0.64754485  0.08414999  0.49236128  1
  H  H158  1  0.35531572  0.91333907  0.98977972  1
  H  H159  1  0.41309561  0.40998203  0.99424730  1
  H  H160  1  0.57745973  0.07761457  0.99836841  1
  H  H161  1  0.78825322  0.74751259  -0.00718574  1
  H  H162  1  0.35412063  0.24709505  0.98644231  1
  H  H163  1  0.92912648  0.57940438  0.50023973  1
  H  H164  1  0.91704063  0.08293290  0.50227742  1
  H  H165  1  0.17571251  0.41344587  0.49578361  1
  H  H166  1  0.54131056  0.75576147  0.49387428  1
  H  H167  1  0.88274575  0.08150967  0.00119630  1
  H  H168  1  0.71354880  0.07717575  -0.01130473  1
  H  H169  1  0.29600645  0.58251241  0.49240090  1
  H  H170  1  0.14186221  0.58109574  0.51625493  1
  H  H171  1  0.92476702  0.25694322  -0.00415537  1
  H  H172  1  0.82933900  0.41969482  0.00461483  1
  H  H173  1  0.13064291  0.57975065  -0.01532594  1
  H  H174  1  0.04707919  0.24475779  0.50235199  1
  H  H175  1  0.28875856  0.58632518  1.00845073  1
  H  H176  1  0.95436856  0.75268490  1.00224315  1
  H  H177  1  0.45600845  0.57995785  0.50438254  1
  H  H178  1  0.30098451  0.08146735  -0.00958162  1
  H  H179  1  0.33965612  0.75050357  0.49747522  1
  H  H180  1  0.30753808  0.92535924  0.49915686  1
  H  H181  1  0.08505967  0.91768022  0.49529962  1
  H  H182  1  0.20451197  0.24741556  0.49599167  1
  H  H183  1  0.42481072  0.07141549  0.99767729  1
  H  H184  1  0.89911884  0.41957541  0.50677419  1
  H  H185  1  0.42423366  0.75258234  0.99523362  1
  H  H186  1  0.95379717  0.57726991  -0.00168375  1
  H  H187  1  0.60395147  0.91821542  0.49626201  1
  H  H188  1  0.61427894  0.58763277  0.01281138  1
  H  H189  1  0.53221640  0.24776924  -0.00865047  1
  H  H190  1  0.46573864  0.59253217  -0.00829635  1
  H  H191  1  0.07664642  0.25153351  0.00743517  1
  Pb  Pb192  1  0.25140386  0.04750073  0.75243163  1
  Pb  Pb193  1  0.25287688  0.38337414  0.74580941  1
  Pb  Pb194  1  0.24792487  0.71495353  0.74771584  1
  Pb  Pb195  1  0.74989796  0.04632567  0.74767625  1
  Pb  Pb196  1  0.75061005  0.38222564  0.76009294  1
  Pb  Pb197  1  0.75180657  0.71767582  0.74700175  1
  Pb  Pb198  1  0.24683995  0.28655331  0.25512721  1
  Pb  Pb199  1  0.25277807  0.61985098  0.25238863  1
  Pb  Pb200  1  0.24576504  0.95056372  0.24959899  1
  Pb  Pb201  1  0.74197641  0.28179650  0.24325257  1
  Pb  Pb202  1  0.75151422  0.61934810  0.24736959  1
  Pb  Pb203  1  0.75179733  0.95318294  0.24413094  1
  Pb  Pb204  1  0.00689400  0.21614280  0.75458281  1
  Pb  Pb205  1  -0.00503757  0.54754115  0.75836782  1
  Pb  Pb206  1  0.00124187  0.88347898  0.75160015  1
  Pb  Pb207  1  0.50308875  0.21378317  0.74833345  1
  Pb  Pb208  1  0.50091565  0.55108124  0.74607432  1
  Pb  Pb209  1  0.49799425  0.87975962  0.74790057  1
  Pb  Pb210  1  -0.00050267  0.12014463  0.26204244  1
  Pb  Pb211  1  -0.00133544  0.45205588  0.24460981  1
  Pb  Pb212  1  -0.00253586  0.78430475  0.24229831  1
  Pb  Pb213  1  0.49347509  0.11582923  0.23818511  1
  Pb  Pb214  1  0.49846056  0.45241041  0.24673699  1
  Pb  Pb215  1  0.50124124  0.78632215  0.25345342  1
  C  C216  1  0.00469056  0.04407563  0.63121151  1
  C  C217  1  -0.00636575  0.37741647  0.63381250  1
  C  C218  1  -0.00359218  0.71150982  0.63099670  1
  C  C219  1  0.49620982  0.04339569  0.63052320  1
  C  C220  1  0.49892599  0.37773925  0.63066702  1
  C  C221  1  0.49832805  0.71204793  0.63261043  1
  C  C222  1  -0.00608659  0.28702936  0.13306464  1
  C  C223  1  0.00115163  0.61845262  0.13303985  1
  C  C224  1  -0.00132277  0.95595101  0.12747455  1
  C  C225  1  0.49958730  0.28543087  0.13031123  1
  C  C226  1  0.50562686  0.62299175  0.12919680  1
  C  C227  1  0.49667394  0.95234645  0.13151639  1
  C  C228  1  -0.00210055  0.04700179  0.87792812  1
  C  C229  1  -0.00149194  0.37921253  0.86963787  1
  C  C230  1  0.00007145  0.71222619  0.86676997  1
  C  C231  1  0.49548159  0.04358480  0.86638706  1
  C  C232  1  0.50512074  0.38257302  0.86419468  1
  C  C233  1  0.50350628  0.71451874  0.87012900  1
  C  C234  1  -0.00969274  0.28949113  0.36705969  1
  C  C235  1  0.00392250  0.62278652  0.36937828  1
  C  C236  1  0.00295814  0.95540893  0.37097653  1
  C  C237  1  0.49575923  0.29108505  0.37031430  1
  C  C238  1  0.50433009  0.61880967  0.36965352  1
  C  C239  1  0.50472429  0.95705274  0.36935556  1
  C  C240  1  0.25530127  0.20858344  0.62991986  1
  C  C241  1  0.24558760  0.54635313  0.63324063  1
  C  C242  1  0.24685148  0.87857319  0.63236754  1
  C  C243  1  0.75947340  0.20961834  0.63071795  1
  C  C244  1  0.74178112  0.54471100  0.62678012  1
  C  C245  1  0.75057761  0.88068789  0.62641635  1
  C  C246  1  0.25165787  0.11891021  0.13175732  1
  C  C247  1  0.25169195  0.45438665  0.13390653  1
  C  C248  1  0.24378613  0.78894903  0.13479230  1
  C  C249  1  0.75215243  0.11730045  0.13070018  1
  C  C250  1  0.74375420  0.45544417  0.13487281  1
  C  C251  1  0.74908101  0.78931823  0.12857446  1
  C  C252  1  0.25110374  0.21426165  0.86815324  1
  C  C253  1  0.24434181  0.54579312  0.86738078  1
  C  C254  1  0.24929920  0.87891781  0.87260560  1
  C  C255  1  0.75617351  0.20688318  0.86866583  1
  C  C256  1  0.73561358  0.54843359  0.86724065  1
  C  C257  1  0.75266020  0.87949692  0.87194589  1
  C  C258  1  0.24445141  0.12067486  0.37164319  1
  C  C259  1  0.25244856  0.45391008  0.36550121  1
  C  C260  1  0.25365678  0.78843741  0.37315928  1
  C  C261  1  0.74814100  0.12201890  0.36881874  1
  C  C262  1  0.74785092  0.45604662  0.37312496  1
  C  C263  1  0.74904320  0.79226892  0.36917938  1
  C  C264  1  0.53749469  0.39868889  0.96224071  1
  C  C265  1  0.53905190  0.07027200  0.95830683  1
  C  C266  1  0.22894736  0.91242660  0.96838240  1
  C  C267  1  0.22990429  0.23738336  0.96597521  1
  C  C268  1  0.69373746  0.09458509  0.45819161  1
  C  C269  1  0.95827853  0.26084138  0.03875217  1
  C  C270  1  0.26685897  0.57282723  0.53640043  1
  C  C271  1  0.74035050  0.08977009  0.03269528  1
  C  C272  1  0.19074546  0.09504715  0.04449721  1
  C  C273  1  0.80311013  0.56648389  0.53965625  1
  C  C274  1  0.21468881  0.42549693  0.45737495  1
  C  C275  1  0.82029562  0.09368129  0.04575076  1
  C  C276  1  0.06099785  0.74235157  0.95142826  1
  C  C277  1  0.95957871  0.07238322  0.53913799  1
  C  C278  1  0.17995681  0.57093910  0.95286992  1
  C  C279  1  0.27343592  0.91101669  0.53948299  1
  C  C280  1  0.27110019  0.09259508  0.03376517  1
  C  C281  1  0.55516095  0.92891461  0.46021633  1
  C  C282  1  0.76357059  0.90720389  0.52941210  1
  C  C283  1  0.96909130  0.59232200  0.46167409  1
  C  C284  1  0.94717268  0.40713929  0.54444331  1
  C  C285  1  0.21896894  0.75527263  0.46646616  1
  C  C286  1  0.73059478  0.23782787  0.53465268  1
  C  C287  1  0.06090145  0.41110195  0.95445707  1
  C  C288  1  0.95704393  0.74128533  0.53759545  1
  C  C289  1  0.26037758  0.57426290  0.96469075  1
  C  C290  1  0.01651947  0.07570911  0.97437647  1
  C  C291  1  0.21362337  0.08552927  0.46273357  1
  C  C292  1  0.72310933  0.56886020  0.52948270  1
  C  C293  1  0.45344075  0.92392466  0.04008268  1
  C  C294  1  0.51303187  0.74231352  0.53725335  1
  C  C295  1  0.93574625  0.07237644  0.96520602  1
  C  C296  1  0.78041114  0.91220629  0.96679930  1
  C  C297  1  0.47263974  0.07626630  0.53679837  1
  C  C298  1  0.68736087  0.57300183  0.95779937  1
  C  C299  1  0.81166964  0.23411032  0.54039448  1
  C  C300  1  0.01459599  0.25836195  0.46087918  1
  C  C301  1  0.03316809  0.92375119  0.03573101  1
  C  C302  1  0.26763843  0.42800561  0.03732326  1
  C  C303  1  0.78953697  0.42945751  0.04330131  1
  C  C304  1  0.81318874  0.43429534  0.45861777  1
  C  C305  1  0.77469992  0.09367336  0.46437516  1
  C  C306  1  0.45581031  0.40151047  0.95722950  1
  C  C307  1  0.04114823  0.07435355  0.53808012  1
  C  C308  1  0.47376070  0.92782934  0.46364913  1
  C  C309  1  0.68399658  0.90447439  0.54144227  1
  C  C310  1  0.03849326  0.74146385  0.53930822  1
  C  C311  1  0.73421037  0.43145508  0.47027709  1
  N  N312  1  0.29777721  0.75835108  0.46276417  1
  N  N313  1  0.68698291  0.75705754  0.04490222  1
  N  N314  1  0.29396296  0.42653854  0.45908100  1
  N  N315  1  0.18949953  0.42710773  0.04737649  1
  N  N316  1  0.30824217  0.23718153  0.95543080  1
  N  N317  1  0.98231963  0.74638291  0.96004209  1
  N  N318  1  0.81249913  0.76252878  0.45312425  1
  N  N319  1  0.76472472  0.57374138  0.96457947  1
  N  N320  1  0.05814691  0.59416698  0.04505820  1
  N  N321  1  0.02608272  0.40817358  0.53907503  1
  N  N322  1  0.93559841  0.26093220  0.45617242  1
  N  N323  1  0.43483402  0.73943007  0.54684711  1
  N  N324  1  0.54029493  0.74244740  0.96398259  1
  N  N325  1  0.70200070  0.90777737  0.96006591  1
  N  N326  1  0.79690683  0.24723298  0.95617775  1
  N  N327  1  0.19436577  0.90788824  0.54282759  1
  N  N328  1  0.98306480  0.41134425  0.96393234  1
  N  N329  1  0.04507256  0.92552632  0.45971641  1
  N  N330  1  0.43350786  0.26227771  0.04546621  1
  N  N331  1  0.98095121  0.59412639  0.03784441  1
  N  N332  1  0.45931291  0.07227730  0.95847932  1
  N  N333  1  0.76408164  0.75499883  0.03635869  1
  N  N334  1  0.23249889  0.24146190  0.53810927  1
  N  N335  1  0.50989142  0.25877051  0.03488497  1
  N  N336  1  0.04844033  0.59382359  0.46181967  1
  N  N337  1  0.95598488  0.92278356  0.03594159  1
  N  N338  1  0.03744844  0.25722343  0.04342624  1
  N  N339  1  0.18845960  0.57317274  0.54699438  1
  N  N340  1  0.56598963  0.60272341  0.04313388  1
  N  N341  1  0.56113912  0.59294967  0.45787057  1
  N  N342  1  0.71430641  0.25302959  0.95208418  1
  N  N343  1  0.44174969  0.25646764  0.45644100  1
  N  N344  1  0.53871330  0.40838621  0.53884483  1
  N  N345  1  0.73555377  0.75859888  0.46196090  1
  N  N346  1  0.21110301  0.75998530  0.04059981  1
  N  N347  1  0.48372151  0.59073341  0.46340354  1
  N  N348  1  0.46244080  0.74081924  0.96023070  1
  N  N349  1  0.51934838  0.25709115  0.46146151  1
  N  N350  1  0.31020539  0.24055757  0.54309551  1
  N  N351  1  0.53142266  0.92320062  0.03637635  1
  N  N352  1  0.54968169  0.07324258  0.54153621  1
  N  N353  1  0.70964330  0.43044910  0.04062048  1
  N  N354  1  0.46251613  0.40796737  0.53775354  1
  N  N355  1  0.28762846  0.75961626  0.04344724  1
  N  N356  1  0.48926344  0.58913283  0.03593916  1
  N  N357  1  0.96711865  0.92561175  0.46432059  1
  N  N358  1  0.30672031  0.90690657  0.95869496  1
  N  N359  1  0.29095293  0.08610131  0.46125388  1
  N  N360  1  0.06816246  0.05738549  0.59381245  1
  N  N361  1  0.05349589  0.38950774  0.59544198  1
  N  N362  1  0.06187880  0.72360625  0.59563113  1
  N  N363  1  0.56461794  0.05250012  0.60105775  1
  N  N364  1  0.56288401  0.38978826  0.59635702  1
  N  N365  1  0.55328298  0.72531652  0.58933640  1
  N  N366  1  0.42748379  0.27783941  0.10517289  1
  N  N367  1  0.45082643  0.61117692  0.08622125  1
  N  N368  1  0.43029413  0.94122742  0.09793694  1
  N  N369  1  0.93054588  0.27765066  0.09494385  1
  N  N370  1  0.94453071  0.60655698  0.09179573  1
  N  N371  1  0.93414285  0.94319267  0.09438637  1
  N  N372  1  0.43252914  0.05233856  0.90261626  1
  N  N373  1  0.43711213  0.39165010  0.89607201  1
  N  N374  1  0.43821756  0.72453758  0.90327549  1
  N  N375  1  0.92605807  0.05475989  0.90405278  1
  N  N376  1  0.94324163  0.38977932  0.91231464  1
  N  N377  1  0.94463823  0.72439881  0.90887510  1
  N  N378  1  0.04974395  0.27572737  0.40661538  1
  N  N379  1  0.06864411  0.61299234  0.40348278  1
  N  N380  1  0.06845836  0.94441953  0.40366467  1
  N  N381  1  0.55405182  0.28069242  0.41054465  1
  N  N382  1  0.57348445  0.60970837  0.39917439  1
  N  N383  1  0.57278008  0.94715528  0.40013901  1
  N  N384  1  0.32374102  0.22180668  0.60109383  1
  N  N385  1  0.30282577  0.55668009  0.59003976  1
  N  N386  1  0.30691841  0.89328598  0.59390906  1
  N  N387  1  0.82873712  0.21751814  0.59847191  1
  N  N388  1  0.81388545  0.55206939  0.59933637  1
  N  N389  1  0.80416526  0.89272386  0.58102517  1
  N  N390  1  0.17968121  0.11061365  0.10360660  1
  N  N391  1  0.18147499  0.44362180  0.10729752  1
  N  N392  1  0.18262884  0.77835965  0.09697237  1
  N  N393  1  0.69858456  0.10485182  0.08658812  1
  N  N394  1  0.68188573  0.45048833  0.09670705  1
  N  N395  1  0.67821663  0.77697209  0.10294105  1
  N  N396  1  0.19394484  0.22296823  0.91180272  1
  N  N397  1  0.17141296  0.55366502  0.89256788  1
  N  N398  1  0.19312335  0.89513398  0.91506467  1
  N  N399  1  0.69213033  0.22275594  0.90081444  1
  N  N400  1  0.66685421  0.55777797  0.89852524  1
  N  N401  1  0.68425324  0.88675711  0.90186431  1
  N  N402  1  0.31038219  0.10832165  0.40321025  1
  N  N403  1  0.31580601  0.44413789  0.40143567  1
  N  N404  1  0.31989746  0.77972948  0.40555070  1
  N  N405  1  0.80756909  0.11021211  0.41040918  1
  N  N406  1  0.82139149  0.44929874  0.39843780  1
  N  N407  1  0.82020409  0.78117958  0.39466482  1
  N  N408  1  0.42777342  0.27589721  0.39870470  1
  N  N409  1  0.44717199  0.60718472  0.41050475  1
  N  N410  1  0.44332233  0.94444590  0.40877546  1
  N  N411  1  0.92240505  0.28022894  0.39764045  1
  N  N412  1  0.94074397  0.60958068  0.40530273  1
  N  N413  1  0.94140938  0.94366857  0.40858373  1
  N  N414  1  0.05377211  0.06040995  0.92159175  1
  N  N415  1  0.07069556  0.39151158  0.89613013  1
  N  N416  1  0.07214804  0.72247464  0.89315287  1
  N  N417  1  0.56169240  0.05454345  0.90067465  1
  N  N418  1  0.56704616  0.38749431  0.90377356  1
  N  N419  1  0.56552835  0.72592509  0.90747543  1
  N  N420  1  0.05953460  0.27600855  0.10067493  1
  N  N421  1  0.07058333  0.61074001  0.10363650  1
  N  N422  1  0.06222095  0.94355147  0.09080119  1
  N  N423  1  0.55181582  0.27433480  0.08559891  1
  N  N424  1  0.57664537  0.61418899  0.10323963  1
  N  N425  1  0.55814029  0.94139151  0.09469171  1
  N  N426  1  0.43756333  0.05830780  0.59017983  1
  N  N427  1  0.43622534  0.38911269  0.59466799  1
  N  N428  1  0.42755306  0.72101823  0.60658795  1
  N  N429  1  0.93824822  0.05354147  0.59807701  1
  N  N430  1  0.92599741  0.38855654  0.60228295  1
  N  N431  1  0.93191949  0.72246032  0.59597452  1
  N  N432  1  0.18229041  0.10622817  0.40888647  1
  N  N433  1  0.18762701  0.44212288  0.40027144  1
  N  N434  1  0.19137133  0.77372113  0.41093410  1
  N  N435  1  0.67847770  0.11221687  0.39771136  1
  N  N436  1  0.69390891  0.44422123  0.41812796  1
  N  N437  1  0.69540411  0.77965001  0.41238238  1
  N  N438  1  0.32108781  0.22415908  0.89497587  1
  N  N439  1  0.29930613  0.55819835  0.91100956  1
  N  N440  1  0.31962912  0.88567847  0.89976406  1
  N  N441  1  0.81958620  0.21751292  0.90388915  1
  N  N442  1  0.79433268  0.55865565  0.90677119  1
  N  N443  1  0.81212405  0.89498813  0.91232186  1
  N  N444  1  0.30840344  0.10772811  0.08946965  1
  N  N445  1  0.30756924  0.44413174  0.09020044  1
  N  N446  1  0.30895509  0.77733963  0.10167374  1
  N  N447  1  0.82629168  0.11012243  0.10597737  1
  N  N448  1  0.81051565  0.44267802  0.10196775  1
  N  N449  1  0.80362765  0.77674992  0.08595180  1
  N  N450  1  0.19739724  0.21958427  0.58950589  1
  N  N451  1  0.17565294  0.55631007  0.60639213  1
  N  N452  1  0.17946971  0.88755722  0.60119476  1
  N  N453  1  0.69906432  0.22206205  0.59220711  1
  N  N454  1  0.68583146  0.55600537  0.58294919  1
  N  N455  1  0.67695785  0.88844800  0.60146558  1
  Cl  Cl456  1  0.25394446  0.05726826  0.62051589  1
  Cl  Cl457  1  0.24283470  0.38762736  0.61277337  1
  Cl  Cl458  1  0.24485129  0.71957287  0.61276269  1
  Cl  Cl459  1  0.75148664  0.05042501  0.62009067  1
  Cl  Cl460  1  0.74400465  0.38590398  0.62936702  1
  Cl  Cl461  1  0.73759103  0.72679265  0.60875039  1
  Cl  Cl462  1  0.24277151  0.27403198  0.11914416  1
  Cl  Cl463  1  0.26715236  0.60773483  0.11793423  1
  Cl  Cl464  1  0.24735439  0.94602882  0.11457705  1
  Cl  Cl465  1  0.73778372  0.26811959  0.09830009  1
  Cl  Cl466  1  0.76125381  0.61548742  0.11410864  1
  Cl  Cl467  1  0.74477654  0.94044654  0.10824316  1
  Cl  Cl468  1  0.24657378  0.05338909  0.88853094  1
  Cl  Cl469  1  0.25424308  0.38653661  0.88104329  1
  Cl  Cl470  1  0.25648197  0.72076027  0.87820982  1
  Cl  Cl471  1  0.74148662  0.05120176  0.88288098  1
  Cl  Cl472  1  0.75612630  0.39883575  0.89717585  1
  Cl  Cl473  1  0.75926387  0.73019595  0.89233894  1
  Cl  Cl474  1  0.23519439  0.27198425  0.39201262  1
  Cl  Cl475  1  0.26053939  0.61205707  0.39106339  1
  Cl  Cl476  1  0.25352780  0.94485368  0.38453182  1
  Cl  Cl477  1  0.73508931  0.27804740  0.37748107  1
  Cl  Cl478  1  0.75649995  0.61692399  0.37927958  1
  Cl  Cl479  1  0.75938086  0.94714464  0.37563405  1
  Cl  Cl480  1  0.01552316  0.22220357  0.61884667  1
  Cl  Cl481  1  -0.00433269  0.55581028  0.62655369  1
  Cl  Cl482  1  -0.00509196  0.88845143  0.61654819  1
  Cl  Cl483  1  0.51236671  0.22324898  0.61240993  1
  Cl  Cl484  1  0.48927601  0.55910340  0.60804930  1
  Cl  Cl485  1  0.49048333  0.88789989  0.61704896  1
  Cl  Cl486  1  0.00366933  0.12199426  0.13217409  1
  Cl  Cl487  1  -0.00874325  0.44520075  0.10693970  1
  Cl  Cl488  1  -0.01011171  0.77333599  0.09933501  1
  Cl  Cl489  1  0.50193153  0.10642593  0.09960415  1
  Cl  Cl490  1  0.49620153  0.44450162  0.10902617  1
  Cl  Cl491  1  0.49188235  0.77790929  0.12000273  1
  Cl  Cl492  1  0.00692833  0.22591699  0.89595992  1
  Cl  Cl493  1  -0.02190916  0.55384571  0.89700555  1
  Cl  Cl494  1  0.00393510  0.88956275  0.88447651  1
  Cl  Cl495  1  0.51031640  0.22318801  0.89602841  1
  Cl  Cl496  1  0.48239771  0.56729696  0.89042878  1
  Cl  Cl497  1  0.50139369  0.88694503  0.88036523  1
  Cl  Cl498  1  -0.00508450  0.11110301  0.39613109  1
  Cl  Cl499  1  0.00579536  0.44677999  0.37157425  1
  Cl  Cl500  1  0.00625475  0.77967527  0.37458081  1
  Cl  Cl501  1  0.49305247  0.11413718  0.36968873  1
  Cl  Cl502  1  0.50384733  0.44625860  0.37797443  1
  Cl  Cl503  1  0.51034262  0.77546790  0.39021990  1
  Cl  Cl504  1  0.36937341  0.14553523  0.76234490  1
  Cl  Cl505  1  0.35183257  0.48247065  0.75209347  1
  Cl  Cl506  1  0.35793627  0.81543578  0.75269338  1
  Cl  Cl507  1  0.85836013  0.14714623  0.74995533  1
  Cl  Cl508  1  0.85788889  0.48347575  0.74720025  1
  Cl  Cl509  1  0.85269738  0.81407093  0.74866184  1
  Cl  Cl510  1  0.13790054  0.18486719  0.25014044  1
  Cl  Cl511  1  0.13518967  0.52275672  0.24020593  1
  Cl  Cl512  1  0.14576216  0.85328684  0.25386219  1
  Cl  Cl513  1  0.64237367  0.18508733  0.24770681  1
  Cl  Cl514  1  0.64095870  0.51980534  0.24888965  1
  Cl  Cl515  1  0.63994135  0.85221086  0.24515674  1
  Cl  Cl516  1  0.14573291  0.15187713  0.75105447  1
  Cl  Cl517  1  0.12958011  0.47745589  0.75506254  1
  Cl  Cl518  1  0.13810164  0.81604400  0.74960093  1
  Cl  Cl519  1  0.63793561  0.14738963  0.75757851  1
  Cl  Cl520  1  0.63389771  0.48117815  0.75624534  1
  Cl  Cl521  1  0.63552364  0.81402698  0.75239539  1
  Cl  Cl522  1  0.35828450  0.18517442  0.24873708  1
  Cl  Cl523  1  0.35817846  0.51556106  0.25428733  1
  Cl  Cl524  1  0.36358237  0.85259854  0.25569441  1
  Cl  Cl525  1  0.86203409  0.18638415  0.24777710  1
  Cl  Cl526  1  0.86207015  0.51794617  0.25136361  1
  Cl  Cl527  1  0.86101181  0.84990283  0.25000382  1
  Cl  Cl528  1  0.10533424  0.31402317  0.75595954  1
  Cl  Cl529  1  0.11302898  0.64431185  0.75487065  1
  Cl  Cl530  1  0.10895759  0.98378533  0.74951895  1
  Cl  Cl531  1  0.61293658  0.31446868  0.75702764  1
  Cl  Cl532  1  0.60465943  0.64576318  0.75635768  1
  Cl  Cl533  1  0.61077073  0.97972363  0.74459625  1
  Cl  Cl534  1  0.39610544  0.01749733  0.24699032  1
  Cl  Cl535  1  0.38765716  0.35038986  0.24654606  1
  Cl  Cl536  1  0.39536941  0.68195671  0.25200743  1
  Cl  Cl537  1  0.89125642  0.01887585  0.24389949  1
  Cl  Cl538  1  0.88945846  0.35228781  0.24769885  1
  Cl  Cl539  1  0.90041300  0.68519429  0.24877897  1
  Cl  Cl540  1  0.38909096  0.31343996  0.75327910  1
  Cl  Cl541  1  0.38351365  0.64757380  0.74130519  1
  Cl  Cl542  1  0.38964635  0.98136041  0.75269289  1
  Cl  Cl543  1  0.88527607  0.31154294  0.75696592  1
  Cl  Cl544  1  0.88910746  0.65158477  0.75066542  1
  Cl  Cl545  1  0.88874590  0.98339909  0.75949380  1
  Cl  Cl546  1  0.10989331  0.01884058  0.25138061  1
  Cl  Cl547  1  0.11137111  0.35309107  0.24067677  1
  Cl  Cl548  1  0.11739221  0.68799965  0.24115306  1
  Cl  Cl549  1  0.61504897  0.02089754  0.24630566  1
  Cl  Cl550  1  0.60929126  0.35109022  0.24134684  1
  Cl  Cl551  1  0.61445262  0.68565987  0.24481575  1
