# generated using pymatgen
data_H8PbC4(N3Cl2)2
_symmetry_space_group_name_H-M   'P 1'
_cell_length_a   16.62041189
_cell_length_b   22.50144331
_cell_length_c   21.58884067
_cell_angle_alpha   90.00008209
_cell_angle_beta   89.99100455
_cell_angle_gamma   89.99994895
_symmetry_Int_Tables_number   1
_chemical_formula_structural   H8PbC4(N3Cl2)2
_chemical_formula_sum   'H192 Pb24 C96 N144 Cl96'
_cell_volume   8073.86482370
_cell_formula_units_Z   24
loop_
 _symmetry_equiv_pos_site_id
 _symmetry_equiv_pos_as_xyz
  1  'x, y, z'
loop_
 _atom_site_type_symbol
 _atom_site_label
 _atom_site_symmetry_multiplicity
 _atom_site_fract_x
 _atom_site_fract_y
 _atom_site_fract_z
 _atom_site_occupancy
  H  H0  1  -0.00063071  0.02957238  0.68180405  1
  H  H1  1  -0.00096851  0.36384040  0.68129997  1
  H  H2  1  -0.00641378  0.69950532  0.68179123  1
  H  H3  1  0.49589818  0.03198121  0.67991867  1
  H  H4  1  0.49292304  0.36512530  0.67805388  1
  H  H5  1  0.50154908  0.70030048  0.68124819  1
  H  H6  1  -0.00818269  0.30019284  0.18380284  1
  H  H7  1  -0.00343724  0.63530900  0.17924992  1
  H  H8  1  -0.00112276  0.96800779  0.17968217  1
  H  H9  1  0.49420389  0.30042951  0.17663879  1
  H  H10  1  0.50126000  0.63510899  0.18204196  1
  H  H11  1  0.49806450  0.96812677  0.18173315  1
  H  H12  1  0.00615870  0.03094972  0.81722788  1
  H  H13  1  0.00395752  0.36464183  0.82108669  1
  H  H14  1  -0.00438522  0.69852980  0.81961767  1
  H  H15  1  0.49692241  0.03247024  0.81717384  1
  H  H16  1  0.49546333  0.36447141  0.81913980  1
  H  H17  1  0.50236640  0.69811337  0.81960496  1
  H  H18  1  -0.00777682  0.30019324  0.32244606  1
  H  H19  1  -0.00668215  0.63340335  0.31653228  1
  H  H20  1  0.00720484  0.96698939  0.31717095  1
  H  H21  1  0.49480681  0.29989438  0.32033879  1
  H  H22  1  0.50817021  0.63313493  0.32108928  1
  H  H23  1  0.49492033  0.96841371  0.31808069  1
  H  H24  1  0.25298140  0.19859014  0.68069968  1
  H  H25  1  0.24356403  0.53213715  0.67932403  1
  H  H26  1  0.25111943  0.86672799  0.68111698  1
  H  H27  1  0.75694143  0.20048315  0.67837087  1
  H  H28  1  0.75537867  0.53148293  0.68058636  1
  H  H29  1  0.74518083  0.86704866  0.68078092  1
  H  H30  1  0.25781560  0.13513001  0.18104863  1
  H  H31  1  0.24151031  0.46781907  0.18153507  1
  H  H32  1  0.24983145  0.79983080  0.17839719  1
  H  H33  1  0.74805586  0.13440583  0.18204874  1
  H  H34  1  0.75093182  0.46863929  0.17902321  1
  H  H35  1  0.74851785  0.80223455  0.18063558  1
  H  H36  1  0.24905343  0.20010960  0.81942173  1
  H  H37  1  0.25266603  0.53163512  0.81753570  1
  H  H38  1  0.25310202  0.86542566  0.82000364  1
  H  H39  1  0.75704263  0.20040217  0.81977813  1
  H  H40  1  0.75768364  0.53411464  0.82176026  1
  H  H41  1  0.75367443  0.86570610  0.82160408  1
  H  H42  1  0.24117993  0.13572638  0.32034101  1
  H  H43  1  0.25076007  0.46709969  0.31951627  1
  H  H44  1  0.24537061  0.80163440  0.31893240  1
  H  H45  1  0.75888110  0.13685983  0.32118172  1
  H  H46  1  0.75035943  0.46729643  0.31982127  1
  H  H47  1  0.75696731  0.80239758  0.31977901  1
  H  H48  1  0.12497465  0.05422678  0.61160106  1
  H  H49  1  0.12635341  0.38659766  0.61142587  1
  H  H50  1  0.12992719  0.71930481  0.62141711  1
  H  H51  1  0.62676465  0.05357753  0.61546154  1
  H  H52  1  0.62753368  0.38354173  0.61640187  1
  H  H53  1  0.62892796  0.72143295  0.61160235  1
  H  H54  1  0.38222190  0.27512174  0.09683742  1
  H  H55  1  0.37637488  0.61413288  0.11179248  1
  H  H56  1  0.37638485  0.94462273  0.10910135  1
  H  H57  1  0.87895054  0.27792454  0.10378797  1
  H  H58  1  0.87621072  0.61175963  0.10483869  1
  H  H59  1  0.87889275  0.94372831  0.10461748  1
  H  H60  1  0.37965109  0.05562810  0.89392109  1
  H  H61  1  0.37674540  0.38761554  0.89422040  1
  H  H62  1  0.37351767  0.72057735  0.88657544  1
  H  H63  1  0.87733381  0.05182385  0.88503170  1
  H  H64  1  0.86966462  0.38467128  0.88198835  1
  H  H65  1  0.87759117  0.72072877  0.89549967  1
  H  H66  1  0.12554898  0.28204619  0.38280301  1
  H  H67  1  0.12291714  0.61409049  0.38137149  1
  H  H68  1  0.12579964  0.94387327  0.39502708  1
  H  H69  1  0.62512346  0.28123800  0.38331532  1
  H  H70  1  0.61389436  0.60877215  0.40408519  1
  H  H71  1  0.62728570  0.94680914  0.38318470  1
  H  H72  1  0.37263809  0.22178739  0.60454618  1
  H  H73  1  0.38153390  0.55045626  0.62157985  1
  H  H74  1  0.36972029  0.88733707  0.60728422  1
  H  H75  1  0.87157094  0.22293521  0.60187356  1
  H  H76  1  0.87454405  0.55305250  0.60478476  1
  H  H77  1  0.87220977  0.88607327  0.61470919  1
  H  H78  1  0.12307325  0.11445736  0.11972007  1
  H  H79  1  0.13098499  0.44215821  0.09853604  1
  H  H80  1  0.12508499  0.77968677  0.10953740  1
  H  H81  1  0.62439047  0.11335947  0.10795710  1
  H  H82  1  0.62732089  0.44658696  0.10793282  1
  H  H83  1  0.62418683  0.77767832  0.11150353  1
  H  H84  1  0.12439804  0.22020868  0.88827430  1
  H  H85  1  0.12448998  0.55337031  0.88584992  1
  H  H86  1  0.12466364  0.88604033  0.88860588  1
  H  H87  1  0.61719995  0.21643388  0.87385830  1
  H  H88  1  0.62442077  0.55102843  0.88224544  1
  H  H89  1  0.62345344  0.88660213  0.88737376  1
  H  H90  1  0.37690251  0.11623785  0.38021018  1
  H  H91  1  0.37263842  0.44472085  0.39314475  1
  H  H92  1  0.36898002  0.77863712  0.39099918  1
  H  H93  1  0.86995127  0.11071946  0.40268978  1
  H  H94  1  0.87144592  0.44277059  0.39170142  1
  H  H95  1  0.86771222  0.77632385  0.40201559  1
  H  H96  1  0.37639668  0.27949674  0.39617405  1
  H  H97  1  0.36795323  0.61641100  0.37369792  1
  H  H98  1  0.37854904  0.94589617  0.39574429  1
  H  H99  1  0.87779136  0.27789574  0.39923604  1
  H  H100  1  0.87328235  0.61161857  0.39028822  1
  H  H101  1  0.87742852  0.94659742  0.38535455  1
  H  H102  1  0.12625157  0.05497807  0.89162754  1
  H  H103  1  0.11704648  0.39123883  0.89992199  1
  H  H104  1  0.12698224  0.72032025  0.88415266  1
  H  H105  1  0.62873043  0.05336267  0.88317468  1
  H  H106  1  0.62582037  0.38650757  0.88459902  1
  H  H107  1  0.62331119  0.71999777  0.89329310  1
  H  H108  1  0.12722594  0.28156174  0.12095741  1
  H  H109  1  0.12513634  0.61378678  0.11066987  1
  H  H110  1  0.12738675  0.94536703  0.11136691  1
  H  H111  1  0.62948943  0.28164326  0.11642297  1
  H  H112  1  0.62582820  0.61374987  0.11355597  1
  H  H113  1  0.62542843  0.94525180  0.11269521  1
  H  H114  1  0.37853892  0.05602685  0.60207353  1
  H  H115  1  0.38024266  0.39004105  0.59833844  1
  H  H116  1  0.37921742  0.72143791  0.60883617  1
  H  H117  1  0.87506777  0.05410624  0.61256448  1
  H  H118  1  0.87790413  0.38556917  0.60555360  1
  H  H119  1  0.88246076  0.72423062  0.60097584  1
  H  H120  1  0.13009189  0.10999511  0.40321461  1
  H  H121  1  0.12380421  0.44442819  0.38943136  1
  H  H122  1  0.12060812  0.77944893  0.39115594  1
  H  H123  1  0.62253970  0.11703639  0.37893149  1
  H  H124  1  0.62164399  0.44579224  0.38789132  1
  H  H125  1  0.62158861  0.78176220  0.37937320  1
  H  H126  1  0.37375654  0.22125014  0.88963590  1
  H  H127  1  0.37374017  0.55451989  0.89099378  1
  H  H128  1  0.37355527  0.88690758  0.89387998  1
  H  H129  1  0.86378342  0.22366147  0.90253680  1
  H  H130  1  0.87193350  0.55566808  0.89863386  1
  H  H131  1  0.87219288  0.88862928  0.89697466  1
  H  H132  1  0.37033353  0.11144023  0.09897461  1
  H  H133  1  0.37716775  0.44843618  0.12117880  1
  H  H134  1  0.37376008  0.77932450  0.10885892  1
  H  H135  1  0.87353202  0.11238669  0.11232939  1
  H  H136  1  0.87602144  0.44601363  0.10778922  1
  H  H137  1  0.87299230  0.77949425  0.10871770  1
  H  H138  1  0.12354810  0.21992180  0.61462378  1
  H  H139  1  0.13464989  0.55686931  0.59762813  1
  H  H140  1  0.12068437  0.88629236  0.61664394  1
  H  H141  1  0.62355741  0.21824154  0.61748604  1
  H  H142  1  0.62598049  0.55491991  0.61533885  1
  H  H143  1  0.62294415  0.88818902  0.60796803  1
  H  H144  1  0.58549320  0.58357594  0.00220218  1
  H  H145  1  0.94427561  0.25115592  -0.00276781  1
  H  H146  1  0.16800603  0.24777454  1.00065455  1
  H  H147  1  0.92704856  0.58912746  0.50254542  1
  H  H148  1  0.31555403  0.91485506  0.49576940  1
  H  H149  1  0.66320722  0.41386903  0.49235516  1
  H  H150  1  0.64625342  0.08590615  0.49201536  1
  H  H151  1  0.20416564  0.58103500  0.49043811  1
  H  H152  1  0.57319415  0.74770057  1.00242557  1
  H  H153  1  0.17041485  0.75348070  0.49578937  1
  H  H154  1  0.67067532  0.56822537  0.50614559  1
  H  H155  1  0.07109643  0.08319902  0.99920900  1
  H  H156  1  0.42960454  0.41656877  1.00216150  1
  H  H157  1  0.81254066  0.58792724  0.50413571  1
  H  H158  1  0.44047044  0.08372341  1.00152391  1
  H  H159  1  0.54170004  0.58215722  0.51053603  1
  H  H160  1  0.16083502  0.25046456  0.50448021  1
  H  H161  1  0.09244977  0.74873336  0.98986855  1
  H  H162  1  0.32137432  0.58416535  0.99866764  1
  H  H163  1  0.58542189  0.75078062  0.50680730  1
  H  H164  1  0.83244748  0.91492282  0.50129799  1
  H  H165  1  0.42792865  0.74884919  0.49888881  1
  H  H166  1  0.66328299  0.91591286  0.99369972  1
  H  H167  1  0.58829803  0.41587858  0.99047015  1
  H  H168  1  0.82635698  0.08465913  0.00245039  1
  H  H169  1  0.79380697  0.25014941  1.00890294  1
  H  H170  1  0.82113733  0.41120483  0.50041225  1
  H  H171  1  0.07950020  0.58531411  0.00560259  1
  H  H172  1  0.60298575  0.24993190  0.00739996  1
  H  H173  1  0.36010157  0.58021044  0.51105077  1
  H  H174  1  0.08194716  0.91672726  0.00633356  1
  H  H175  1  0.79603078  0.75379424  0.50366187  1
  H  H176  1  0.94996611  0.75104317  0.49534295  1
  H  H177  1  0.59412524  0.25176877  0.49715337  1
  H  H178  1  0.17277320  0.41434472  0.49367642  1
  H  H179  1  0.30032000  0.08653223  -0.00222814  1
  H  H180  1  0.93252666  0.74961041  1.00346045  1
  H  H181  1  0.08525451  0.58936271  0.49567061  1
  H  H182  1  0.80140046  0.09169712  0.50568147  1
  H  H183  1  0.90106403  0.42159570  0.98539035  1
  H  H184  1  0.41237819  0.74825883  0.99184431  1
  H  H185  1  0.44071372  0.92135037  0.50406035  1
  H  H186  1  0.42766963  0.91596958  0.00094816  1
  H  H187  1  0.04870661  0.40443726  1.00309231  1
  H  H188  1  0.20327625  0.41777347  -0.00226341  1
  H  H189  1  0.20339850  0.08421207  0.50365836  1
  H  H190  1  0.92240972  0.08077320  0.50099009  1
  H  H191  1  0.07451052  0.07332531  0.50387857  1
  Pb  Pb192  1  0.24846585  0.04672112  0.75140950  1
  Pb  Pb193  1  0.24904344  0.38128342  0.75105936  1
  Pb  Pb194  1  0.25244347  0.71396075  0.74834528  1
  Pb  Pb195  1  0.75034530  0.04806068  0.74632520  1
  Pb  Pb196  1  0.75004836  0.37840909  0.74605680  1
  Pb  Pb197  1  0.75404313  0.71507003  0.74804387  1
  Pb  Pb198  1  0.25559535  0.28588777  0.24853527  1
  Pb  Pb199  1  0.24819199  0.62019083  0.24793582  1
  Pb  Pb200  1  0.25448230  0.95175889  0.25109148  1
  Pb  Pb201  1  0.75213730  0.28637754  0.24833113  1
  Pb  Pb202  1  0.75457333  0.61774578  0.25675450  1
  Pb  Pb203  1  0.75048978  0.95525192  0.24600714  1
  Pb  Pb204  1  -0.00111448  0.21300124  0.75357001  1
  Pb  Pb205  1  0.00146512  0.54752666  0.74744497  1
  Pb  Pb206  1  0.00000037  0.87962403  0.75425548  1
  Pb  Pb207  1  0.49665653  0.21329053  0.74872245  1
  Pb  Pb208  1  0.50282266  0.54687983  0.75165334  1
  Pb  Pb209  1  0.50070734  0.88153212  0.74947348  1
  Pb  Pb210  1  0.00358255  0.11937534  0.25621157  1
  Pb  Pb211  1  0.00405841  0.44987323  0.24489785  1
  Pb  Pb212  1  -0.00114691  0.78812353  0.25018063  1
  Pb  Pb213  1  0.50118054  0.12117882  0.24349070  1
  Pb  Pb214  1  0.50242876  0.45391200  0.24848181  1
  Pb  Pb215  1  0.50226770  0.78510040  0.24955148  1
  C  C216  1  0.00044243  0.04517797  0.63419313  1
  C  C217  1  0.00108175  0.37816079  0.63331557  1
  C  C218  1  0.00238380  0.71413492  0.63434965  1
  C  C219  1  0.50023927  0.04677218  0.63242566  1
  C  C220  1  0.50054763  0.37931831  0.63058684  1
  C  C221  1  0.50380061  0.71469476  0.63315635  1
  C  C222  1  -0.00032369  0.28643021  0.13600015  1
  C  C223  1  -0.00024402  0.61994524  0.13171769  1
  C  C224  1  0.00206613  0.95258213  0.13215646  1
  C  C225  1  0.50253586  0.28571692  0.12931942  1
  C  C226  1  0.50155388  0.62060654  0.13421218  1
  C  C227  1  0.50023970  0.95271242  0.13417966  1
  C  C228  1  0.00317541  0.04596830  0.86489043  1
  C  C229  1  -0.00327497  0.37997818  0.86857683  1
  C  C230  1  0.00047205  0.71344275  0.86737112  1
  C  C231  1  0.50200690  0.04705268  0.86486430  1
  C  C232  1  0.49977362  0.37977032  0.86683132  1
  C  C233  1  0.49934140  0.71337491  0.86738429  1
  C  C234  1  -0.00122823  0.28636380  0.37025737  1
  C  C235  1  -0.00339079  0.61933487  0.36459806  1
  C  C236  1  0.00351487  0.95279856  0.36516550  1
  C  C237  1  0.49939566  0.28665882  0.36841816  1
  C  C238  1  0.49661953  0.61937061  0.36847040  1
  C  C239  1  0.50046361  0.95363860  0.36567467  1
  C  C240  1  0.24975691  0.21361609  0.63310481  1
  C  C241  1  0.25393686  0.54675462  0.63196923  1
  C  C242  1  0.24746203  0.88034413  0.63311553  1
  C  C243  1  0.75053621  0.21430012  0.63055885  1
  C  C244  1  0.75202672  0.54744941  0.63306126  1
  C  C245  1  0.74735280  0.88066959  0.63272531  1
  C  C246  1  0.25072971  0.12063283  0.13341083  1
  C  C247  1  0.24962424  0.45350431  0.13394586  1
  C  C248  1  0.24952509  0.78630253  0.13031973  1
  C  C249  1  0.74843319  0.11994165  0.13411600  1
  C  C250  1  0.75186215  0.45428139  0.13130049  1
  C  C251  1  0.74884030  0.78701578  0.13321881  1
  C  C252  1  0.24851675  0.21385365  0.86745760  1
  C  C253  1  0.25012896  0.54658081  0.86525470  1
  C  C254  1  0.25011138  0.87951676  0.86774421  1
  C  C255  1  0.74608212  0.21339699  0.86738383  1
  C  C256  1  0.75115056  0.54724799  0.86977145  1
  C  C257  1  0.74934932  0.88043846  0.86921217  1
  C  C258  1  0.24884884  0.12105812  0.36779969  1
  C  C259  1  0.24873446  0.45210651  0.36725085  1
  C  C260  1  0.24450188  0.78696809  0.36678797  1
  C  C261  1  0.75079926  0.12218137  0.36884304  1
  C  C262  1  0.74731474  0.45230553  0.36768288  1
  C  C263  1  0.74895648  0.78762210  0.36723967  1
  C  C264  1  0.47661608  0.40671808  0.53491770  1
  C  C265  1  0.96827538  0.73953830  0.96263997  1
  C  C266  1  0.78408183  0.90861789  0.96421236  1
  C  C267  1  0.69332140  0.09560640  0.45662796  1
  C  C268  1  0.47643597  0.25577590  0.03317814  1
  C  C269  1  0.97626869  0.26156012  0.03999946  1
  C  C270  1  0.54677911  0.07302796  0.54137976  1
  C  C271  1  0.77904315  0.57178064  0.96521374  1
  C  C272  1  0.71397131  0.42878495  0.03749398  1
  C  C273  1  0.47414548  0.07303551  0.95969155  1
  C  C274  1  0.69780654  0.23899983  0.54090943  1
  C  C275  1  0.43260551  0.59583764  0.45487438  1
  C  C276  1  0.05179557  0.26201024  0.45998733  1
  C  C277  1  0.95936843  0.07270708  0.54172975  1
  C  C278  1  0.54804101  0.26200147  0.46088893  1
  C  C279  1  0.97092420  0.26046576  0.46547376  1
  C  C280  1  0.47354365  0.92924665  0.46123478  1
  C  C281  1  0.19834911  0.90519469  0.54189039  1
  C  C282  1  0.78407324  0.42388706  0.46107929  1
  C  C283  1  0.96204368  0.59702851  0.46077838  1
  C  C284  1  0.20787463  0.76195053  0.03712317  1
  C  C285  1  0.53505800  0.73865906  0.96213438  1
  C  C286  1  0.23255470  0.57272415  0.53496774  1
  C  C287  1  0.04394319  0.59735967  0.45752415  1
  C  C288  1  0.69855923  0.57026659  0.95965144  1
  C  C289  1  0.98114746  0.74028007  0.53834613  1
  C  C290  1  0.46601339  0.40598390  0.96181075  1
  C  C291  1  0.20826253  0.23828412  0.96224336  1
  C  C292  1  0.29014854  0.76186375  0.03671263  1
  C  C293  1  0.70928104  0.90550859  0.53829496  1
  C  C294  1  0.68308569  0.23599208  0.95421293  1
  C  C295  1  0.46625581  0.92644201  0.04047873  1
  C  C296  1  0.28377613  0.90537814  0.96221868  1
  C  C297  1  0.28983649  0.23861010  0.96102943  1
  C  C298  1  0.27962088  0.90541255  0.53675109  1
  C  C299  1  0.78681278  0.09462571  0.04124287  1
  C  C300  1  0.20602699  0.24016054  0.54193550  1
  C  C301  1  0.76342284  0.23891785  0.96574849  1
  C  C302  1  0.54200444  0.59406702  0.04004130  1
  C  C303  1  0.71013534  0.75777263  0.04111367  1
  C  C304  1  0.03460625  0.07254487  0.95892616  1
  C  C305  1  0.51280318  0.59312380  0.46669802  1
  C  C306  1  0.46026721  0.59423146  0.04093195  1
  C  C307  1  0.46559829  0.73902292  0.53879016  1
  C  C308  1  0.46651373  0.26200447  0.46384769  1
  C  C309  1  0.79092140  0.90522413  0.53890257  1
  C  C310  1  0.28323735  0.57332044  0.95893214  1
  C  C311  1  0.77866758  0.24079696  0.53557283  1
  N  N312  1  0.03906592  0.07383429  0.54260764  1
  N  N313  1  0.28834083  0.42748502  0.46149162  1
  N  N314  1  0.19429910  0.09582139  0.04468122  1
  N  N315  1  0.55256677  0.92836167  0.45674518  1
  N  N316  1  0.23053657  0.42739508  0.03927631  1
  N  N317  1  0.55320595  0.07271143  0.95610388  1
  N  N318  1  0.54579870  0.92641779  0.04114043  1
  N  N319  1  0.96657222  0.40373426  0.53839066  1
  N  N320  1  0.78782330  0.75841219  0.03902202  1
  N  N321  1  0.04777811  0.73921387  0.95746767  1
  N  N322  1  0.30801073  0.42977788  0.04560807  1
  N  N323  1  0.27198831  0.09373180  0.03928118  1
  N  N324  1  0.30723173  0.09491805  0.45536085  1
  N  N325  1  0.54559027  0.40546652  0.95742471  1
  N  N326  1  0.22972293  0.09251541  0.46149782  1
  N  N327  1  0.69093998  0.76302544  0.45555049  1
  N  N328  1  0.70443279  0.42644468  0.45900613  1
  N  N329  1  0.76861477  0.76018040  0.46154023  1
  N  N330  1  0.04041766  0.59409502  0.04129652  1
  N  N331  1  0.96469611  0.92684168  0.03769879  1
  N  N332  1  0.96227405  0.59336390  0.03758510  1
  N  N333  1  0.55466609  0.25919165  0.04078678  1
  N  N334  1  0.02245721  0.41326665  0.96087868  1
  N  N335  1  0.31112353  0.57126382  0.54459414  1
  N  N336  1  0.04334626  0.40397056  0.54030917  1
  N  N337  1  0.20589991  0.90566256  0.96125006  1
  N  N338  1  0.06001116  0.73883387  0.54498830  1
  N  N339  1  0.21016420  0.42853554  0.45897166  1
  N  N340  1  0.54532781  0.73781742  0.54059427  1
  N  N341  1  0.05520798  0.26321475  0.04561468  1
  N  N342  1  0.46950108  0.07409877  0.53585993  1
  N  N343  1  0.20817904  0.76280392  0.45910249  1
  N  N344  1  0.28533196  0.24104764  0.53786439  1
  N  N345  1  0.78430653  0.56275906  0.53734609  1
  N  N346  1  0.04283496  0.92781683  0.04132295  1
  N  N347  1  0.79196140  0.42858317  0.03638471  1
  N  N348  1  0.20373106  0.57277237  0.95808876  1
  N  N349  1  0.70513817  0.90748564  0.95991898  1
  N  N350  1  0.94379512  0.40208434  0.95724391  1
  N  N351  1  0.95516981  0.07161094  0.95725810  1
  N  N352  1  0.03490318  0.92796914  0.46090644  1
  N  N353  1  0.70752663  0.09452890  0.03969324  1
  N  N354  1  0.70634229  0.57556010  0.54399249  1
  N  N355  1  0.77257047  0.09341293  0.46363895  1
  N  N356  1  0.55396008  0.40462582  0.53958742  1
  N  N357  1  0.28654679  0.76250905  0.46040922  1
  N  N358  1  0.95840622  0.92875647  0.45787539  1
  N  N359  1  0.45540231  0.73909251  0.95839444  1
  N  N360  1  0.06426463  0.05317587  0.59873863  1
  N  N361  1  0.06575642  0.38825401  0.59911531  1
  N  N362  1  0.07127033  0.72259497  0.60505666  1
  N  N363  1  0.56812097  0.05664106  0.59999207  1
  N  N364  1  0.56886155  0.38713398  0.60060741  1
  N  N365  1  0.56862395  0.72397835  0.59910785  1
  N  N366  1  0.44369765  0.27275377  0.08774011  1
  N  N367  1  0.43618906  0.61035330  0.09790425  1
  N  N368  1  0.43705152  0.94218206  0.09723987  1
  N  N369  1  0.94076863  0.27572175  0.09509195  1
  N  N370  1  0.93746813  0.60918410  0.09445381  1
  N  N371  1  0.93992309  0.94242169  0.09459076  1
  N  N372  1  0.44100811  0.05743444  0.90408787  1
  N  N373  1  0.43728456  0.38994142  0.90548776  1
  N  N374  1  0.43372821  0.72355816  0.90019935  1
  N  N375  1  0.93760267  0.05514031  0.89833976  1
  N  N376  1  0.92827448  0.39127255  0.89745398  1
  N  N377  1  0.93854599  0.72355224  0.90659423  1
  N  N378  1  0.06818801  0.27751986  0.40127777  1
  N  N379  1  0.06397221  0.61097578  0.39756274  1
  N  N380  1  0.06416221  0.94260624  0.40366522  1
  N  N381  1  0.56696185  0.27757909  0.40023911  1
  N  N382  1  0.55208172  0.60811622  0.41155790  1
  N  N383  1  0.56753722  0.94369790  0.39725672  1
  N  N384  1  0.31085954  0.22438993  0.59527684  1
  N  N385  1  0.32367849  0.55545273  0.60422717  1
  N  N386  1  0.30931596  0.88988230  0.59494358  1
  N  N387  1  0.81071461  0.22571891  0.59030277  1
  N  N388  1  0.81350248  0.55916603  0.59585241  1
  N  N389  1  0.81333922  0.88970643  0.59891576  1
  N  N390  1  0.18181600  0.11102855  0.10376587  1
  N  N391  1  0.19320082  0.44311079  0.09221583  1
  N  N392  1  0.18440642  0.77679183  0.09460561  1
  N  N393  1  0.68537156  0.11037806  0.09778892  1
  N  N394  1  0.68753883  0.44411564  0.09486786  1
  N  N395  1  0.68396371  0.77495579  0.09797805  1
  N  N396  1  0.18363471  0.22287373  0.90270304  1
  N  N397  1  0.18492949  0.55621806  0.89894645  1
  N  N398  1  0.18505531  0.88925046  0.90125000  1
  N  N399  1  0.67328767  0.22082926  0.89451082  1
  N  N400  1  0.68166113  0.55536698  0.90091915  1
  N  N401  1  0.68307893  0.88986042  0.90131551  1
  N  N402  1  0.31858206  0.11144448  0.39647903  1
  N  N403  1  0.31175400  0.44300730  0.40417557  1
  N  N404  1  0.30827062  0.77715554  0.40272974  1
  N  N405  1  0.80806087  0.11310776  0.41041087  1
  N  N406  1  0.81112642  0.44065338  0.40459101  1
  N  N407  1  0.80557587  0.77751500  0.40895323  1
  N  N408  1  0.43719342  0.27674772  0.40816004  1
  N  N409  1  0.42344461  0.61156707  0.39504928  1
  N  N410  1  0.43980411  0.94402843  0.40553605  1
  N  N411  1  0.93865125  0.27510711  0.41083299  1
  N  N412  1  0.93367200  0.61058099  0.40254745  1
  N  N413  1  0.93777048  0.94398986  0.39851824  1
  N  N414  1  0.06551901  0.05714807  0.90253549  1
  N  N415  1  0.05520427  0.38884930  0.90912570  1
  N  N416  1  0.06723858  0.72335205  0.89881612  1
  N  N417  1  0.56876471  0.05678654  0.89691531  1
  N  N418  1  0.56599109  0.38970993  0.89890838  1
  N  N419  1  0.56262193  0.72294762  0.90532033  1
  N  N420  1  0.06804079  0.27839632  0.10567457  1
  N  N421  1  0.06484372  0.61011050  0.09811680  1
  N  N422  1  0.06712783  0.94267078  0.09852236  1
  N  N423  1  0.57118480  0.27749147  0.10001863  1
  N  N424  1  0.56631608  0.61050475  0.09929869  1
  N  N425  1  0.56502074  0.94284252  0.10015993  1
  N  N426  1  0.44027212  0.05714591  0.59384720  1
  N  N427  1  0.44158566  0.39163519  0.58947314  1
  N  N428  1  0.43966791  0.72413442  0.59605563  1
  N  N429  1  0.93515787  0.05671385  0.59893177  1
  N  N430  1  0.93934051  0.38752958  0.59578725  1
  N  N431  1  0.94443318  0.72526473  0.59274629  1
  N  N432  1  0.19218901  0.11033785  0.40929665  1
  N  N433  1  0.18441021  0.44192136  0.40168462  1
  N  N434  1  0.18117984  0.77790992  0.40262634  1
  N  N435  1  0.68007370  0.11196248  0.39735441  1
  N  N436  1  0.68199201  0.44340098  0.40124798  1
  N  N437  1  0.67953485  0.77819006  0.39615551  1
  N  N438  1  0.31368502  0.22396700  0.90384477  1
  N  N439  1  0.31293456  0.55750482  0.90242796  1
  N  N440  1  0.31302544  0.88985510  0.90574155  1
  N  N441  1  0.80178559  0.22441721  0.91028917  1
  N  N442  1  0.81125187  0.55787161  0.91034257  1
  N  N443  1  0.81166858  0.89189368  0.90826969  1
  N  N444  1  0.30809514  0.11064762  0.09225309  1
  N  N445  1  0.31917741  0.44509793  0.10478103  1
  N  N446  1  0.31422964  0.77663741  0.09415384  1
  N  N447  1  0.81354677  0.10997366  0.09890579  1
  N  N448  1  0.81546301  0.44480972  0.09616426  1
  N  N449  1  0.81204630  0.77717470  0.09761786  1
  N  N450  1  0.18293840  0.22374576  0.60012195  1
  N  N451  1  0.19629214  0.55785861  0.58914052  1
  N  N452  1  0.17928228  0.89019557  0.59994883  1
  N  N453  1  0.68112769  0.22294398  0.59941473  1
  N  N454  1  0.68563106  0.55480543  0.60012414  1
  N  N455  1  0.68316828  0.89086662  0.59488704  1
  Cl  Cl456  1  0.24793653  0.05663126  0.60933836  1
  Cl  Cl457  1  0.25041417  0.38966461  0.61688589  1
  Cl  Cl458  1  0.25447372  0.71967109  0.61465006  1
  Cl  Cl459  1  0.75328058  0.05878141  0.60850967  1
  Cl  Cl460  1  0.75473522  0.38940854  0.60961503  1
  Cl  Cl461  1  0.75760039  0.72312883  0.60539077  1
  Cl  Cl462  1  0.25654347  0.28061666  0.11434704  1
  Cl  Cl463  1  0.24897148  0.61531266  0.11597360  1
  Cl  Cl464  1  0.25100771  0.94757322  0.11847877  1
  Cl  Cl465  1  0.75557996  0.28135632  0.11300345  1
  Cl  Cl466  1  0.75388492  0.61596330  0.12520352  1
  Cl  Cl467  1  0.75151946  0.94253209  0.11088732  1
  Cl  Cl468  1  0.25620236  0.05645168  0.88945235  1
  Cl  Cl469  1  0.24018724  0.39213376  0.89330557  1
  Cl  Cl470  1  0.25046932  0.71966569  0.88066706  1
  Cl  Cl471  1  0.75354791  0.05009004  0.87864271  1
  Cl  Cl472  1  0.74840563  0.38473260  0.87796291  1
  Cl  Cl473  1  0.75014868  0.71792791  0.87839391  1
  Cl  Cl474  1  0.25238812  0.28227139  0.38036876  1
  Cl  Cl475  1  0.24316577  0.61344051  0.38351499  1
  Cl  Cl476  1  0.25097561  0.94536505  0.38647986  1
  Cl  Cl477  1  0.75296570  0.28272955  0.37856076  1
  Cl  Cl478  1  0.74527649  0.60650115  0.40017672  1
  Cl  Cl479  1  0.75411686  0.94846862  0.37983824  1
  Cl  Cl480  1  -0.00234241  0.21580396  0.62177490  1
  Cl  Cl481  1  0.00194944  0.55571955  0.61131858  1
  Cl  Cl482  1  -0.00321814  0.88333297  0.62644379  1
  Cl  Cl483  1  0.49615440  0.21873548  0.61763447  1
  Cl  Cl484  1  0.50646197  0.55259104  0.61570937  1
  Cl  Cl485  1  0.49614476  0.88553198  0.61656005  1
  Cl  Cl486  1  -0.00086890  0.11352334  0.12327207  1
  Cl  Cl487  1  0.00720229  0.44024124  0.10288763  1
  Cl  Cl488  1  -0.00209798  0.77756507  0.11465849  1
  Cl  Cl489  1  0.49250575  0.11391933  0.10751104  1
  Cl  Cl490  1  0.50413514  0.44392903  0.11218786  1
  Cl  Cl491  1  0.49971419  0.77677364  0.11521597  1
  Cl  Cl492  1  -0.01016427  0.22402107  0.88850745  1
  Cl  Cl493  1  0.00039182  0.55292019  0.88160595  1
  Cl  Cl494  1  0.00008933  0.88553719  0.88926474  1
  Cl  Cl495  1  0.49334021  0.22138939  0.88231953  1
  Cl  Cl496  1  0.49711701  0.55163700  0.88275925  1
  Cl  Cl497  1  0.49810726  0.88460923  0.88408953  1
  Cl  Cl498  1  0.00292556  0.10774606  0.39925149  1
  Cl  Cl499  1  0.00019993  0.44664670  0.37594927  1
  Cl  Cl500  1  -0.00830598  0.77608569  0.38760285  1
  Cl  Cl501  1  0.50020951  0.11826529  0.37337994  1
  Cl  Cl502  1  0.49728912  0.44647538  0.38058921  1
  Cl  Cl503  1  0.49351778  0.77727439  0.38641280  1
  Cl  Cl504  1  0.36235042  0.14450608  0.75122812  1
  Cl  Cl505  1  0.36210986  0.47689459  0.74687771  1
  Cl  Cl506  1  0.36294033  0.80995076  0.75103632  1
  Cl  Cl507  1  0.86141707  0.14394901  0.74914650  1
  Cl  Cl508  1  0.86099185  0.47887697  0.75019140  1
  Cl  Cl509  1  0.85991207  0.81060106  0.75029228  1
  Cl  Cl510  1  0.13636952  0.18869836  0.24621256  1
  Cl  Cl511  1  0.13875238  0.52199603  0.25024705  1
  Cl  Cl512  1  0.13567902  0.85455909  0.24891310  1
  Cl  Cl513  1  0.63739299  0.18878873  0.24876540  1
  Cl  Cl514  1  0.63645164  0.52175736  0.25185403  1
  Cl  Cl515  1  0.63522090  0.85552448  0.25366849  1
  Cl  Cl516  1  0.13825670  0.14258474  0.74912220  1
  Cl  Cl517  1  0.13908337  0.47818995  0.75094468  1
  Cl  Cl518  1  0.13642671  0.81020683  0.74880514  1
  Cl  Cl519  1  0.63686697  0.14345896  0.75231763  1
  Cl  Cl520  1  0.63734513  0.47879620  0.75014814  1
  Cl  Cl521  1  0.63568523  0.81062100  0.74900780  1
  Cl  Cl522  1  0.36047915  0.18884003  0.25223147  1
  Cl  Cl523  1  0.36239061  0.52190885  0.24781439  1
  Cl  Cl524  1  0.35945277  0.85581769  0.25079896  1
  Cl  Cl525  1  0.85998360  0.18841794  0.25067372  1
  Cl  Cl526  1  0.85904549  0.52352690  0.25194142  1
  Cl  Cl527  1  0.86147490  0.85418859  0.24934050  1
  Cl  Cl528  1  0.11135377  0.31161591  0.75216261  1
  Cl  Cl529  1  0.11357855  0.64367020  0.75026233  1
  Cl  Cl530  1  0.11407153  0.97700549  0.74835137  1
  Cl  Cl531  1  0.61295844  0.31118406  0.74992190  1
  Cl  Cl532  1  0.60894478  0.64373512  0.74573395  1
  Cl  Cl533  1  0.61272459  0.97628794  0.75017711  1
  Cl  Cl534  1  0.38726776  0.02180427  0.24891067  1
  Cl  Cl535  1  0.38792365  0.35530629  0.24720210  1
  Cl  Cl536  1  0.38681631  0.68788726  0.25362497  1
  Cl  Cl537  1  0.88733653  0.02145108  0.25082268  1
  Cl  Cl538  1  0.88859219  0.35619417  0.24899759  1
  Cl  Cl539  1  0.88795401  0.68643600  0.25169407  1
  Cl  Cl540  1  0.38851881  0.31142800  0.75183373  1
  Cl  Cl541  1  0.38756539  0.64478756  0.74814522  1
  Cl  Cl542  1  0.38794255  0.97774546  0.74883582  1
  Cl  Cl543  1  0.88658126  0.31166886  0.75242118  1
  Cl  Cl544  1  0.88898572  0.64610700  0.74781705  1
  Cl  Cl545  1  0.88837173  0.97816013  0.75161072  1
  Cl  Cl546  1  0.11012411  0.02437447  0.24767378  1
  Cl  Cl547  1  0.11119373  0.35757359  0.24803868  1
  Cl  Cl548  1  0.11210568  0.68805351  0.25030980  1
  Cl  Cl549  1  0.61302343  0.02245083  0.24936832  1
  Cl  Cl550  1  0.61298051  0.35597478  0.24793988  1
  Cl  Cl551  1  0.60889477  0.69111676  0.25444801  1
