# generated using pymatgen
data_H8PbC4(N3Cl2)2
_symmetry_space_group_name_H-M   'P 1'
_cell_length_a   16.62283011
_cell_length_b   22.50690894
_cell_length_c   21.59208034
_cell_angle_alpha   89.99986833
_cell_angle_beta   89.99599115
_cell_angle_gamma   90.00629445
_symmetry_Int_Tables_number   1
_chemical_formula_structural   H8PbC4(N3Cl2)2
_chemical_formula_sum   'H192 Pb24 C96 N144 Cl96'
_cell_volume   8078.21307341
_cell_formula_units_Z   24
loop_
 _symmetry_equiv_pos_site_id
 _symmetry_equiv_pos_as_xyz
  1  'x, y, z'
loop_
 _atom_site_type_symbol
 _atom_site_label
 _atom_site_symmetry_multiplicity
 _atom_site_fract_x
 _atom_site_fract_y
 _atom_site_fract_z
 _atom_site_occupancy
  H  H0  1  -0.00754051  0.03355877  0.68104605  1
  H  H1  1  -0.00391138  0.36290139  0.68082915  1
  H  H2  1  -0.00028623  0.69623109  0.68241391  1
  H  H3  1  0.50184711  0.03338156  0.68075111  1
  H  H4  1  0.50473287  0.36333920  0.67936818  1
  H  H5  1  0.49387834  0.69681202  0.67774100  1
  H  H6  1  0.00455691  0.30174787  0.18058447  1
  H  H7  1  0.00323505  0.63593225  0.17906461  1
  H  H8  1  0.00550988  0.96759813  0.17645096  1
  H  H9  1  0.49215335  0.30290702  0.17972943  1
  H  H10  1  0.49962689  0.63591213  0.18296983  1
  H  H11  1  0.50086267  0.97021001  0.17905374  1
  H  H12  1  0.00331755  0.03036265  0.82006809  1
  H  H13  1  -0.00761625  0.36362892  0.82097937  1
  H  H14  1  -0.00058402  0.69686059  0.81805780  1
  H  H15  1  0.49646031  0.02958154  0.81943112  1
  H  H16  1  0.50454761  0.36431144  0.81873170  1
  H  H17  1  0.50120603  0.69592553  0.82153043  1
  H  H18  1  -0.00754775  0.30296171  0.32078819  1
  H  H19  1  0.00254717  0.63593663  0.32024795  1
  H  H20  1  0.00165166  0.96850798  0.31592497  1
  H  H21  1  0.50236365  0.30368858  0.31978253  1
  H  H22  1  0.50338240  0.63493571  0.31830027  1
  H  H23  1  0.49536663  0.96895926  0.32187007  1
  H  H24  1  0.24667764  0.19697242  0.68073631  1
  H  H25  1  0.24763872  0.53011237  0.67941885  1
  H  H26  1  0.23373322  0.86587415  0.68190801  1
  H  H27  1  0.74897833  0.20063517  0.67620794  1
  H  H28  1  0.75076177  0.53149969  0.68041064  1
  H  H29  1  0.76164420  0.86441057  0.67655530  1
  H  H30  1  0.24332658  0.13541150  0.17924952  1
  H  H31  1  0.24567531  0.47002691  0.18094138  1
  H  H32  1  0.24953226  0.80498158  0.17883199  1
  H  H33  1  0.74745977  0.13570774  0.17951893  1
  H  H34  1  0.75427210  0.46862753  0.18141951  1
  H  H35  1  0.74446171  0.80334595  0.18303068  1
  H  H36  1  0.24307642  0.19795028  0.81750104  1
  H  H37  1  0.25207244  0.53081250  0.81772465  1
  H  H38  1  0.25533392  0.86264724  0.82190396  1
  H  H39  1  0.74902652  0.19957348  0.82213065  1
  H  H40  1  0.74461387  0.53316046  0.82089231  1
  H  H41  1  0.74253291  0.86666835  0.82092094  1
  H  H42  1  0.25488875  0.13576312  0.31850242  1
  H  H43  1  0.25369188  0.46916164  0.31837051  1
  H  H44  1  0.25334950  0.80185373  0.31680201  1
  H  H45  1  0.75067235  0.13770985  0.32379526  1
  H  H46  1  0.75042097  0.46865248  0.32022960  1
  H  H47  1  0.75110177  0.80114432  0.32060759  1
  H  H48  1  0.13255438  0.05063807  0.62704701  1
  H  H49  1  0.12234466  0.38634096  0.61155104  1
  H  H50  1  0.12519102  0.72120744  0.61199083  1
  H  H51  1  0.63379891  0.05381178  0.61755732  1
  H  H52  1  0.62294510  0.38778181  0.60294267  1
  H  H53  1  0.62986639  0.71619362  0.61912708  1
  H  H54  1  0.37865809  0.27783828  0.10113088  1
  H  H55  1  0.37267540  0.61304078  0.11270612  1
  H  H56  1  0.36909769  0.94652859  0.11589148  1
  H  H57  1  0.87085689  0.28040239  0.11777135  1
  H  H58  1  0.86856658  0.61451168  0.11818258  1
  H  H59  1  0.86948528  0.94721212  0.11836027  1
  H  H60  1  0.37075900  0.05197979  0.88849295  1
  H  H61  1  0.37732942  0.38761487  0.88667977  1
  H  H62  1  0.37067247  0.72079060  0.88614850  1
  H  H63  1  0.86739442  0.05299171  0.87915136  1
  H  H64  1  0.88122957  0.39075303  0.90217241  1
  H  H65  1  0.87538330  0.72004673  0.88760517  1
  H  H66  1  0.12552395  0.28019624  0.38372153  1
  H  H67  1  0.11577758  0.60840667  0.40064703  1
  H  H68  1  0.12595023  0.94739278  0.38615348  1
  H  H69  1  0.62641021  0.27857277  0.39243620  1
  H  H70  1  0.61863337  0.61095713  0.39598532  1
  H  H71  1  0.62800875  0.94696106  0.38498459  1
  H  H72  1  0.37094835  0.22072012  0.60972864  1
  H  H73  1  0.38139428  0.55213162  0.61745862  1
  H  H74  1  0.37236019  0.88393635  0.62557408  1
  H  H75  1  0.87461769  0.22037239  0.60868148  1
  H  H76  1  0.88169019  0.55212604  0.61616118  1
  H  H77  1  0.86446328  0.89340859  0.59099696  1
  H  H78  1  0.13250659  0.10747683  0.09805288  1
  H  H79  1  0.12011476  0.44516180  0.11237733  1
  H  H80  1  0.13086048  0.77925689  0.10315980  1
  H  H81  1  0.62992791  0.11251477  0.10334033  1
  H  H82  1  0.61992406  0.44832832  0.11811675  1
  H  H83  1  0.62614829  0.77858273  0.10797879  1
  H  H84  1  0.12502490  0.22263349  0.89291620  1
  H  H85  1  0.12798163  0.55321102  0.88694263  1
  H  H86  1  0.13057614  0.88772131  0.89069922  1
  H  H87  1  0.62551174  0.22012647  0.89214130  1
  H  H88  1  0.63476356  0.55628604  0.90124226  1
  H  H89  1  0.63872848  0.89148838  0.90521021  1
  H  H90  1  0.36630713  0.11165361  0.39817631  1
  H  H91  1  0.37785535  0.44611343  0.38917728  1
  H  H92  1  0.36927145  0.77870970  0.39339251  1
  H  H93  1  0.86643669  0.11172944  0.40105472  1
  H  H94  1  0.87508261  0.44614404  0.39293837  1
  H  H95  1  0.86961452  0.77633231  0.39504068  1
  H  H96  1  0.37699131  0.28008196  0.38934648  1
  H  H97  1  0.37034336  0.61305296  0.38234652  1
  H  H98  1  0.37933194  0.94357708  0.39877835  1
  H  H99  1  0.87799992  0.27613563  0.40094583  1
  H  H100  1  0.86834358  0.61511305  0.38245277  1
  H  H101  1  0.87612872  0.94707451  0.38457052  1
  H  H102  1  0.11561341  0.05455369  0.90011845  1
  H  H103  1  0.12872453  0.38437046  0.87766273  1
  H  H104  1  0.12474165  0.72039985  0.88562094  1
  H  H105  1  0.61931688  0.05580867  0.89129934  1
  H  H106  1  0.62648007  0.38728690  0.89311068  1
  H  H107  1  0.61861398  0.72186341  0.89775591  1
  H  H108  1  0.11831490  0.27706534  0.10104391  1
  H  H109  1  0.11464370  0.60961550  0.09810652  1
  H  H110  1  0.11593258  0.94089914  0.09658157  1
  H  H111  1  0.62676108  0.28197672  0.11899083  1
  H  H112  1  0.62113809  0.61245429  0.10811396  1
  H  H113  1  0.61690721  0.94403713  0.10050077  1
  H  H114  1  0.38511482  0.05437336  0.60584212  1
  H  H115  1  0.37435109  0.38619175  0.61533724  1
  H  H116  1  0.38350419  0.72466555  0.59729306  1
  H  H117  1  0.88580404  0.05782677  0.59855296  1
  H  H118  1  0.87279989  0.38630618  0.60848253  1
  H  H119  1  0.87607249  0.71883899  0.61111664  1
  H  H120  1  0.11895049  0.11608808  0.37497472  1
  H  H121  1  0.12858491  0.44576083  0.38909912  1
  H  H122  1  0.12062132  0.78127149  0.37764850  1
  H  H123  1  0.61812691  0.11447557  0.38546345  1
  H  H124  1  0.62621768  0.44589805  0.39308296  1
  H  H125  1  0.62134729  0.77955431  0.38691676  1
  H  H126  1  0.37388815  0.21875985  0.88431272  1
  H  H127  1  0.37752942  0.55254365  0.88613347  1
  H  H128  1  0.37938213  0.88872943  0.89289252  1
  H  H129  1  0.87437540  0.22054858  0.89030452  1
  H  H130  1  0.88198169  0.55121840  0.87687156  1
  H  H131  1  0.88423635  0.88302224  0.87176096  1
  H  H132  1  0.37986619  0.11630395  0.12214473  1
  H  H133  1  0.36894001  0.44542738  0.10874657  1
  H  H134  1  0.37910562  0.78162270  0.11497484  1
  H  H135  1  0.87857909  0.11369182  0.11406697  1
  H  H136  1  0.86820818  0.44341696  0.10241839  1
  H  H137  1  0.87507310  0.78198006  0.11596682  1
  H  H138  1  0.12221548  0.22033084  0.60901337  1
  H  H139  1  0.13417391  0.55727469  0.59915957  1
  H  H140  1  0.12748575  0.89235493  0.59621146  1
  H  H141  1  0.62552305  0.22041769  0.60631798  1
  H  H142  1  0.63292772  0.55178539  0.60590712  1
  H  H143  1  0.62045987  0.88504972  0.62688822  1
  H  H144  1  0.59596458  0.92087649  0.49378543  1
  H  H145  1  0.35714898  0.08457583  0.00916207  1
  H  H146  1  0.20468842  0.91578882  0.49700968  1
  H  H147  1  0.89533658  0.58539507  0.00973820  1
  H  H148  1  0.69893315  0.58380131  1.00819634  1
  H  H149  1  0.33063098  0.41792477  0.49824269  1
  H  H150  1  0.80216538  0.08798595  0.50568314  1
  H  H151  1  0.30162799  0.08547694  0.50586930  1
  H  H152  1  0.59828473  0.25288549  0.01257735  1
  H  H153  1  0.78651299  0.91786398  0.49201521  1
  H  H154  1  0.60226475  0.75142917  0.51392464  1
  H  H155  1  0.18289596  0.25302153  0.99957152  1
  H  H156  1  0.94987523  0.41299593  1.00438901  1
  H  H157  1  0.20056708  0.07924483  -0.00246842  1
  H  H158  1  0.04629022  0.58387963  0.50251078  1
  H  H159  1  0.10550720  0.41568336  0.99074449  1
  H  H160  1  0.31127016  0.75406555  0.50316143  1
  H  H161  1  0.17235792  0.58265449  0.99758308  1
  H  H162  1  0.68826471  0.57800374  0.49427734  1
  H  H163  1  0.80363884  0.41612567  -0.00372181  1
  H  H164  1  0.33570534  0.58043316  0.99728227  1
  H  H165  1  0.07960607  0.92439395  0.49884709  1
  H  H166  1  0.40901611  0.74773212  0.99243626  1
  H  H167  1  0.13952910  0.08698623  0.48984238  1
  H  H168  1  0.45477061  0.73714372  0.49504886  1
  H  H169  1  0.20308964  0.58139131  0.49740638  1
  H  H170  1  0.95614737  0.08645562  0.49245819  1
  H  H171  1  0.43977385  0.24848265  -0.00535850  1
  H  H172  1  0.68354963  0.74954534  0.00057367  1
  H  H173  1  0.43719502  0.91674266  0.50648932  1
  H  H174  1  0.07503422  0.41560735  0.50242771  1
  H  H175  1  0.05126067  0.08258053  1.00658923  1
  H  H176  1  0.91924759  0.74890558  0.99764290  1
  H  H177  1  0.17302191  0.24886770  0.50519221  1
  H  H178  1  0.44219032  0.08264210  0.49484706  1
  H  H179  1  0.15042385  0.75328980  0.49069336  1
  H  H180  1  0.89630508  0.08116590  0.98695125  1
  H  H181  1  0.42255419  0.41834146  0.99587765  1
  H  H182  1  0.42495110  0.25021486  0.49829107  1
  H  H183  1  0.92496053  0.74726777  0.50232330  1
  H  H184  1  0.55512205  0.58112913  0.50284569  1
  H  H185  1  0.68796700  0.08486141  -0.00407692  1
  H  H186  1  0.91928808  0.92150321  0.49678891  1
  H  H187  1  0.89324930  0.91571674  0.00724266  1
  H  H188  1  0.08309425  0.74974368  0.99644483  1
  H  H189  1  0.55035080  0.91858732  -0.00196534  1
  H  H190  1  0.71205592  0.91794799  1.01016974  1
  H  H191  1  0.90401075  0.25261061  0.01165332  1
  Pb  Pb192  1  0.25136531  0.04513949  0.75760144  1
  Pb  Pb193  1  0.25277713  0.37982500  0.74792897  1
  Pb  Pb194  1  0.25512546  0.71428185  0.74476172  1
  Pb  Pb195  1  0.75599387  0.04908736  0.74521382  1
  Pb  Pb196  1  0.74966896  0.37959681  0.75394972  1
  Pb  Pb197  1  0.75088551  0.71252174  0.75300965  1
  Pb  Pb198  1  0.24919331  0.28746899  0.24770627  1
  Pb  Pb199  1  0.24197213  0.61819044  0.25054242  1
  Pb  Pb200  1  0.24811300  0.95459967  0.25372371  1
  Pb  Pb201  1  0.74698802  0.28697939  0.25303448  1
  Pb  Pb202  1  0.74692025  0.62114269  0.25109765  1
  Pb  Pb203  1  0.74570273  0.95323027  0.25174084  1
  Pb  Pb204  1  0.00329482  0.21503431  0.75360550  1
  Pb  Pb205  1  0.00370346  0.54621439  0.74338878  1
  Pb  Pb206  1  0.00202022  0.87925985  0.74057313  1
  Pb  Pb207  1  0.50004032  0.21187583  0.75123420  1
  Pb  Pb208  1  0.50400372  0.54523399  0.74983849  1
  Pb  Pb209  1  0.50548735  0.88165444  0.75787171  1
  Pb  Pb210  1  -0.00269788  0.12043970  0.24649691  1
  Pb  Pb211  1  -0.00608906  0.45138125  0.24636042  1
  Pb  Pb212  1  -0.00212179  0.78794516  0.24838695  1
  Pb  Pb213  1  0.49857311  0.12118084  0.25188994  1
  Pb  Pb214  1  0.49817688  0.45413730  0.24994147  1
  Pb  Pb215  1  0.49402165  0.78460577  0.25422462  1
  C  C216  1  0.00350937  0.04721143  0.63359416  1
  C  C217  1  -0.00280335  0.37873697  0.63344185  1
  C  C218  1  0.00053806  0.71245039  0.63510087  1
  C  C219  1  0.50683534  0.04710712  0.63282023  1
  C  C220  1  0.50085621  0.37911548  0.63221868  1
  C  C221  1  0.50255792  0.71249901  0.63051017  1
  C  C222  1  -0.00242542  0.28631300  0.13328502  1
  C  C223  1  -0.00481908  0.62013156  0.13196890  1
  C  C224  1  -0.00371551  0.95245497  0.12939799  1
  C  C225  1  0.49960412  0.28729715  0.13240947  1
  C  C226  1  0.49784217  0.62123608  0.13518053  1
  C  C227  1  0.49603925  0.95445915  0.13175985  1
  C  C228  1  -0.00522543  0.04600489  0.86726216  1
  C  C229  1  0.00058197  0.37864158  0.86846606  1
  C  C230  1  -0.00015446  0.71244356  0.86566926  1
  C  C231  1  0.49569204  0.04536642  0.86664914  1
  C  C232  1  0.50292949  0.37977132  0.86625784  1
  C  C233  1  0.49659101  0.71232850  0.86866284  1
  C  C234  1  -0.00151467  0.28726826  0.36807624  1
  C  C235  1  -0.00416898  0.62059409  0.36762027  1
  C  C236  1  0.00125358  0.95403854  0.36394166  1
  C  C237  1  0.50206577  0.28773439  0.36714573  1
  C  C238  1  0.49707968  0.61987127  0.36572648  1
  C  C239  1  0.50149157  0.95333381  0.36935672  1
  C  C240  1  0.24631128  0.21285221  0.63331838  1
  C  C241  1  0.25408743  0.54568366  0.63212747  1
  C  C242  1  0.24402455  0.87998036  0.63453491  1
  C  C243  1  0.74971342  0.21429263  0.62788874  1
  C  C244  1  0.75500263  0.54504938  0.63243343  1
  C  C245  1  0.74908173  0.87994072  0.62994394  1
  C  C246  1  0.25173055  0.12001967  0.13193286  1
  C  C247  1  0.24512498  0.45387280  0.13385062  1
  C  C248  1  0.25294437  0.78869367  0.13185076  1
  C  C249  1  0.75234625  0.12076535  0.13182601  1
  C  C250  1  0.74723110  0.45383741  0.13392710  1
  C  C251  1  0.74886070  0.78810443  0.13545204  1
  C  C252  1  0.24764217  0.21309441  0.86507888  1
  C  C253  1  0.25257378  0.54588675  0.86551660  1
  C  C254  1  0.25542630  0.87917324  0.86889405  1
  C  C255  1  0.74965599  0.21361735  0.87007283  1
  C  C256  1  0.75352166  0.54707287  0.86847495  1
  C  C257  1  0.75531137  0.87995274  0.86829176  1
  C  C258  1  0.24616886  0.12109365  0.36600204  1
  C  C259  1  0.25328330  0.45362270  0.36588314  1
  C  C260  1  0.24742687  0.78712837  0.36450021  1
  C  C261  1  0.74523776  0.12251278  0.37125045  1
  C  C262  1  0.75069185  0.45396104  0.36803065  1
  C  C263  1  0.74688473  0.78632739  0.36802036  1
  C  C264  1  0.26990818  0.09536763  0.46306695  1
  C  C265  1  0.79175757  0.23957440  0.96268062  1
  C  C266  1  0.02071259  0.92161563  0.03345190  1
  C  C267  1  0.81308020  0.57085273  0.95646993  1
  C  C268  1  0.52284685  0.59298211  0.46071947  1
  C  C269  1  0.20504780  0.42588475  0.04143749  1
  C  C270  1  0.27718536  0.76276487  0.46110153  1
  C  C271  1  0.46282037  0.40691544  0.95798025  1
  C  C272  1  0.05844267  0.40651704  0.95549686  1
  C  C273  1  0.71903315  0.76076156  0.04132780  1
  C  C274  1  0.80495028  0.56924226  0.54139036  1
  C  C275  1  0.47157207  0.92670990  0.46484714  1
  C  C276  1  0.45521457  0.40845501  0.54230900  1
  C  C277  1  0.29461992  0.57092003  0.95928131  1
  C  C278  1  0.29867244  0.75963898  0.04152127  1
  C  C279  1  0.47706027  0.07196987  0.53611431  1
  C  C280  1  0.30988313  0.09368711  0.04433557  1
  C  C281  1  0.47271389  0.25962866  0.03658103  1
  C  C282  1  0.73232207  0.57302971  0.96628518  1
  C  C283  1  0.95982022  0.73861561  0.95959092  1
  C  C284  1  0.98611232  0.07435943  0.53554911  1
  C  C285  1  0.72326640  0.09488170  0.03706682  1
  C  C286  1  0.29009406  0.42769654  0.45907183  1
  C  C287  1  0.55864221  0.07124835  0.54167945  1
  C  C288  1  0.96421487  0.73809815  0.54180285  1
  C  C289  1  0.72376975  0.56922867  0.53565757  1
  C  C290  1  0.02022569  0.07268626  0.96342467  1
  C  C291  1  0.45528160  0.07344863  0.95893125  1
  C  C292  1  0.46401891  0.26058178  0.45945639  1
  C  C293  1  0.21239516  0.57168449  0.95949491  1
  C  C294  1  0.77128790  0.42736108  0.03852904  1
  C  C295  1  0.18845862  0.09661665  0.45492622  1
  C  C296  1  0.79124496  0.23916152  0.53624160  1
  C  C297  1  0.19525607  0.76288339  0.45528933  1
  C  C298  1  0.21820723  0.24077754  0.95914082  1
  C  C299  1  0.82146613  0.90247680  0.95428077  1
  C  C300  1  0.06624113  0.07151215  0.54706539  1
  C  C301  1  0.04116193  0.93175226  0.45887484  1
  C  C302  1  0.21718693  0.90881617  0.96049484  1
  C  C303  1  0.71019809  0.23939143  0.96327966  1
  C  C304  1  0.68290134  0.90757646  0.54567492  1
  C  C305  1  0.95921591  0.93106011  0.45816597  1
  C  C306  1  0.77835413  0.75831595  0.46243825  1
  C  C307  1  0.71113926  0.23910678  0.53547345  1
  C  C308  1  0.69178649  0.09340745  0.46089633  1
  C  C309  1  0.03556097  0.40566073  0.54121434  1
  C  C310  1  0.04203245  0.73877842  0.95899692  1
  C  C311  1  0.74123679  0.90614969  0.96662074  1
  N  N312  1  0.78890370  0.42776151  0.46189356  1
  N  N313  1  0.71283965  0.42798437  0.46200971  1
  N  N314  1  0.54319708  0.25956594  0.46058065  1
  N  N315  1  0.70058203  0.76040420  0.46097869  1
  N  N316  1  0.94033899  0.59515750  0.45654145  1
  N  N317  1  0.97264130  0.25758227  0.46323545  1
  N  N318  1  0.02687509  0.26006526  0.03736816  1
  N  N319  1  0.55183487  0.26089978  0.04413864  1
  N  N320  1  0.53003087  0.74033419  0.96326999  1
  N  N321  1  0.94137461  0.07257818  0.95500133  1
  N  N322  1  0.29754408  0.23879205  0.95673977  1
  N  N323  1  0.53270974  0.40918071  0.53705866  1
  N  N324  1  0.95630429  0.40633614  0.53973070  1
  N  N325  1  0.80255478  0.09503315  0.04023454  1
  N  N326  1  0.29453257  0.90966190  0.96228000  1
  N  N327  1  0.28894521  0.23842188  0.54013078  1
  N  N328  1  0.04895741  0.25917917  0.45776006  1
  N  N329  1  0.53301110  0.07479725  0.96110317  1
  N  N330  1  0.45608943  0.59600311  0.04193389  1
  N  N331  1  0.21051842  0.42760436  0.45976268  1
  N  N332  1  0.76062716  0.91029577  0.53459052  1
  N  N333  1  0.52091212  0.92524371  0.03914696  1
  N  N334  1  0.94372153  0.59453201  0.04397430  1
  N  N335  1  0.28273377  0.42575677  0.03899120  1
  N  N336  1  0.30685342  0.90304392  0.54793190  1
  N  N337  1  0.21047983  0.23763348  0.54125141  1
  N  N338  1  0.97918152  0.40945454  0.96254310  1
  N  N339  1  0.48004154  0.74567214  0.53759833  1
  N  N340  1  0.04357350  0.73902153  0.54162679  1
  N  N341  1  0.55829998  0.73377420  0.54264920  1
  N  N342  1  0.69247827  0.42913703  0.04361438  1
  N  N343  1  0.45169067  0.74027485  0.95756325  1
  N  N344  1  0.23079183  0.09081945  0.03726877  1
  N  N345  1  0.02144978  0.59272649  0.03597946  1
  N  N346  1  0.30941838  0.57209512  0.54337751  1
  N  N347  1  0.23178210  0.57399899  0.53874402  1
  N  N348  1  0.55094016  0.92744105  0.45896156  1
  N  N349  1  0.94880278  0.26133827  0.04473079  1
  N  N350  1  0.94248687  0.92504354  0.04151624  1
  N  N351  1  0.54210581  0.40627561  0.96072812  1
  N  N352  1  0.22966693  0.90653425  0.53941081  1
  N  N353  1  0.77080709  0.09326174  0.46511646  1
  N  N354  1  0.22088528  0.75825561  0.03661654  1
  N  N355  1  0.79834788  0.76151264  0.04403862  1
  N  N356  1  0.53262329  0.59548375  0.04047819  1
  N  N357  1  0.44320441  0.92570585  0.04304205  1
  N  N358  1  0.44385330  0.59471038  0.45644878  1
  N  N359  1  0.01790962  0.59285612  0.46130970  1
  N  N360  1  0.07659503  0.05529594  0.60635649  1
  N  N361  1  0.06229949  0.38949640  0.59860220  1
  N  N362  1  0.06462735  0.72321254  0.60041563  1
  N  N363  1  0.57572890  0.05648107  0.60050408  1
  N  N364  1  0.56123732  0.39040420  0.59428483  1
  N  N365  1  0.57191370  0.72344091  0.60276615  1
  N  N366  1  0.43984461  0.27564053  0.09161912  1
  N  N367  1  0.43319902  0.61196978  0.10061231  1
  N  N368  1  0.42819901  0.94269424  0.10133093  1
  N  N369  1  0.93009833  0.27703269  0.10256068  1
  N  N370  1  0.92701181  0.61083497  0.10220395  1
  N  N371  1  0.92712891  0.94415714  0.10072276  1
  N  N372  1  0.43014298  0.05584302  0.90167510  1
  N  N373  1  0.43722213  0.39074716  0.90036268  1
  N  N374  1  0.43035513  0.72242054  0.90075429  1
  N  N375  1  0.92596785  0.05603988  0.89591592  1
  N  N376  1  0.94361625  0.38893573  0.90983138  1
  N  N377  1  0.93505416  0.72248514  0.90121607  1
  N  N378  1  0.06612797  0.27720542  0.39863763  1
  N  N379  1  0.05359345  0.60974703  0.40818068  1
  N  N380  1  0.06608201  0.94576901  0.39990651  1
  N  N381  1  0.56523221  0.27667453  0.40288433  1
  N  N382  1  0.55715080  0.60854513  0.40554592  1
  N  N383  1  0.56884257  0.94443665  0.40035564  1
  N  N384  1  0.31027742  0.22266675  0.59766287  1
  N  N385  1  0.32268261  0.55600385  0.60214020  1
  N  N386  1  0.31497923  0.88803183  0.60736636  1
  N  N387  1  0.81579537  0.22403307  0.59260370  1
  N  N388  1  0.82341446  0.55486791  0.59972775  1
  N  N389  1  0.80237682  0.89081692  0.58601858  1
  N  N390  1  0.19484539  0.10796620  0.09096967  1
  N  N391  1  0.17969892  0.44258897  0.09895561  1
  N  N392  1  0.19246429  0.77694685  0.09431193  1
  N  N393  1  0.69122140  0.11011725  0.09289735  1
  N  N394  1  0.67923194  0.44535177  0.10305408  1
  N  N395  1  0.68722830  0.77681665  0.09712810  1
  N  N396  1  0.18614509  0.22496835  0.90335532  1
  N  N397  1  0.18784310  0.55621041  0.90089790  1
  N  N398  1  0.19036861  0.89056016  0.90429842  1
  N  N399  1  0.68515900  0.22355962  0.90633414  1
  N  N400  1  0.69626160  0.55787260  0.91010341  1
  N  N401  1  0.70092522  0.89170230  0.91191915  1
  N  N402  1  0.30461026  0.11049879  0.40734193  1
  N  N403  1  0.31750391  0.44318344  0.40168681  1
  N  N404  1  0.30821368  0.77766717  0.40418427  1
  N  N405  1  0.80470851  0.11337116  0.41072456  1
  N  N406  1  0.81415769  0.44402892  0.40368513  1
  N  N407  1  0.80872190  0.77434226  0.40652287  1
  N  N408  1  0.43704806  0.27728160  0.40229241  1
  N  N409  1  0.42954414  0.61093472  0.39705311  1
  N  N410  1  0.44051501  0.94215848  0.40907561  1
  N  N411  1  0.94011271  0.27523784  0.40798496  1
  N  N412  1  0.92704803  0.61120753  0.39768653  1
  N  N413  1  0.93576688  0.94479017  0.39884130  1
  N  N414  1  0.05377008  0.05655100  0.90886073  1
  N  N415  1  0.07150737  0.38896918  0.89658791  1
  N  N416  1  0.06531037  0.72257065  0.90036164  1
  N  N417  1  0.55814017  0.05699283  0.90229805  1
  N  N418  1  0.56535900  0.38949517  0.90315610  1
  N  N419  1  0.55711906  0.72385832  0.90718746  1
  N  N420  1  0.05648735  0.27529231  0.09301859  1
  N  N421  1  0.05276735  0.60840318  0.09091276  1
  N  N422  1  0.05443496  0.93896615  0.08751810  1
  N  N423  1  0.56789150  0.27788383  0.10292775  1
  N  N424  1  0.55977912  0.61114895  0.09809236  1
  N  N425  1  0.55505275  0.94465723  0.09199003  1
  N  N426  1  0.44584309  0.05657079  0.59380742  1
  N  N427  1  0.43317445  0.39043029  0.59989376  1
  N  N428  1  0.44534827  0.72190883  0.58900422  1
  N  N429  1  0.94787505  0.05868119  0.59089241  1
  N  N430  1  0.93402374  0.38928505  0.59754784  1
  N  N431  1  0.93652463  0.72245163  0.59891616  1
  N  N432  1  0.17553915  0.11231112  0.39435423  1
  N  N433  1  0.18941784  0.44358088  0.40110644  1
  N  N434  1  0.17843361  0.77780414  0.39515777  1
  N  N435  1  0.67604069  0.11043123  0.40233410  1
  N  N436  1  0.68740457  0.44411727  0.40387001  1
  N  N437  1  0.68103161  0.77776255  0.40084447  1
  N  N438  1  0.31387193  0.22186632  0.89793473  1
  N  N439  1  0.31801668  0.55512017  0.90052854  1
  N  N440  1  0.31869123  0.89094629  0.90386144  1
  N  N441  1  0.81503516  0.22392733  0.90523059  1
  N  N442  1  0.82523896  0.55547020  0.89691743  1
  N  N443  1  0.82916627  0.88689795  0.89418402  1
  N  N444  1  0.32281570  0.11133324  0.10335110  1
  N  N445  1  0.30768188  0.44352273  0.09789083  1
  N  N446  1  0.32030412  0.77759833  0.09938807  1
  N  N447  1  0.81902856  0.11144938  0.09988807  1
  N  N448  1  0.80660995  0.44248937  0.09355670  1
  N  N449  1  0.81505692  0.77852347  0.10279208  1
  N  N450  1  0.18322560  0.22322137  0.59771265  1
  N  N451  1  0.19623074  0.55600665  0.59158348  1
  N  N452  1  0.18960475  0.89091976  0.59129069  1
  N  N453  1  0.68471665  0.22401486  0.59134918  1
  N  N454  1  0.69356725  0.55418693  0.59381362  1
  N  N455  1  0.67562474  0.89009279  0.60513260  1
  Cl  Cl456  1  0.26137336  0.05256812  0.62442729  1
  Cl  Cl457  1  0.24922138  0.38528831  0.61524236  1
  Cl  Cl458  1  0.25802932  0.72391093  0.60875886  1
  Cl  Cl459  1  0.76307607  0.05660990  0.60801285  1
  Cl  Cl460  1  0.74846609  0.38376793  0.62269269  1
  Cl  Cl461  1  0.75294308  0.71730504  0.61947909  1
  Cl  Cl462  1  0.24514349  0.27823024  0.11354854  1
  Cl  Cl463  1  0.24374460  0.61123750  0.11624995  1
  Cl  Cl464  1  0.24058488  0.94883361  0.12191221  1
  Cl  Cl465  1  0.75020810  0.28080014  0.11914059  1
  Cl  Cl466  1  0.74433542  0.61335280  0.11639805  1
  Cl  Cl467  1  0.73868668  0.94498445  0.11742547  1
  Cl  Cl468  1  0.23897532  0.05599526  0.89560991  1
  Cl  Cl469  1  0.25326752  0.38594765  0.87813090  1
  Cl  Cl470  1  0.25071884  0.72173454  0.87532490  1
  Cl  Cl471  1  0.74256612  0.05522991  0.87911622  1
  Cl  Cl472  1  0.75827926  0.38936968  0.89014051  1
  Cl  Cl473  1  0.74271985  0.72217594  0.88615218  1
  Cl  Cl474  1  0.24979114  0.27801772  0.38270553  1
  Cl  Cl475  1  0.23632021  0.60683379  0.39132462  1
  Cl  Cl476  1  0.25165665  0.94200553  0.39121540  1
  Cl  Cl477  1  0.75393559  0.27591228  0.38512721  1
  Cl  Cl478  1  0.74236971  0.61518289  0.38389320  1
  Cl  Cl479  1  0.75312654  0.94437366  0.39176488  1
  Cl  Cl480  1  0.00208461  0.21726383  0.62297325  1
  Cl  Cl481  1  0.01425916  0.55926691  0.60520634  1
  Cl  Cl482  1  -0.00281390  0.89300118  0.60485477  1
  Cl  Cl483  1  0.49430774  0.21935368  0.61950438  1
  Cl  Cl484  1  0.50790054  0.55533647  0.61387047  1
  Cl  Cl485  1  0.49618067  0.88548492  0.62306054  1
  Cl  Cl486  1  0.00883429  0.10877087  0.10894658  1
  Cl  Cl487  1  -0.00789762  0.44020634  0.10556314  1
  Cl  Cl488  1  0.00374161  0.78120417  0.11315810  1
  Cl  Cl489  1  0.50707973  0.11610245  0.12052789  1
  Cl  Cl490  1  0.49225164  0.44509990  0.11737367  1
  Cl  Cl491  1  0.50257278  0.78114172  0.12183679  1
  Cl  Cl492  1  0.00047216  0.21923651  0.88657336  1
  Cl  Cl493  1  0.00555753  0.55008447  0.87403251  1
  Cl  Cl494  1  0.00953090  0.88909788  0.87238523  1
  Cl  Cl495  1  0.49897993  0.22088193  0.88692181  1
  Cl  Cl496  1  0.50575298  0.55398033  0.87782315  1
  Cl  Cl497  1  0.51259586  0.89200525  0.89453823  1
  Cl  Cl498  1  -0.01324908  0.11044388  0.37927723  1
  Cl  Cl499  1  0.00281627  0.44743308  0.37956056  1
  Cl  Cl500  1  -0.00835494  0.77846835  0.38001728  1
  Cl  Cl501  1  0.49014116  0.11105053  0.38586033  1
  Cl  Cl502  1  0.50277737  0.44727492  0.38102232  1
  Cl  Cl503  1  0.49356809  0.77474736  0.39285468  1
  Cl  Cl504  1  0.36089851  0.14697286  0.75511819  1
  Cl  Cl505  1  0.36073676  0.48021261  0.74574989  1
  Cl  Cl506  1  0.36296535  0.81238447  0.74628604  1
  Cl  Cl507  1  0.86018234  0.14506758  0.75210502  1
  Cl  Cl508  1  0.86561994  0.47900366  0.74967584  1
  Cl  Cl509  1  0.86334439  0.81332400  0.75332647  1
  Cl  Cl510  1  0.13673492  0.18661041  0.25174827  1
  Cl  Cl511  1  0.14194585  0.52156949  0.24892647  1
  Cl  Cl512  1  0.13680220  0.85330527  0.25477028  1
  Cl  Cl513  1  0.63825722  0.18703832  0.25322218  1
  Cl  Cl514  1  0.63716189  0.52039599  0.24629724  1
  Cl  Cl515  1  0.64013679  0.85581528  0.25861894  1
  Cl  Cl516  1  0.13931103  0.14512288  0.74878823  1
  Cl  Cl517  1  0.13895242  0.47779177  0.75083969  1
  Cl  Cl518  1  0.13920317  0.81224215  0.74888560  1
  Cl  Cl519  1  0.63820014  0.14541383  0.74720228  1
  Cl  Cl520  1  0.64353149  0.48025512  0.75270129  1
  Cl  Cl521  1  0.63900752  0.81318667  0.74366070  1
  Cl  Cl522  1  0.35856826  0.18504892  0.24641104  1
  Cl  Cl523  1  0.36242965  0.52293033  0.25032147  1
  Cl  Cl524  1  0.36052254  0.85461714  0.24932090  1
  Cl  Cl525  1  0.86023858  0.18696216  0.24242702  1
  Cl  Cl526  1  0.86155290  0.52194201  0.25002382  1
  Cl  Cl527  1  0.86095722  0.85508016  0.24732952  1
  Cl  Cl528  1  0.11614232  0.31032931  0.75317788  1
  Cl  Cl529  1  0.11216630  0.64715143  0.74779986  1
  Cl  Cl530  1  0.11325820  0.98050527  0.74496709  1
  Cl  Cl531  1  0.60938127  0.31446039  0.75373828  1
  Cl  Cl532  1  0.61076688  0.64863586  0.74621050  1
  Cl  Cl533  1  0.60874877  0.97817918  0.74476597  1
  Cl  Cl534  1  0.38938812  0.01882127  0.24773401  1
  Cl  Cl535  1  0.38932061  0.35236057  0.24949899  1
  Cl  Cl536  1  0.38975153  0.68929338  0.25647968  1
  Cl  Cl537  1  0.88767976  0.01934739  0.24205023  1
  Cl  Cl538  1  0.89183036  0.35546411  0.24571365  1
  Cl  Cl539  1  0.88696533  0.68698685  0.24667917  1
  Cl  Cl540  1  0.38696871  0.31113577  0.74885272  1
  Cl  Cl541  1  0.39061959  0.64562374  0.74779249  1
  Cl  Cl542  1  0.38771162  0.97791735  0.75199407  1
  Cl  Cl543  1  0.89710158  0.31255167  0.75179149  1
  Cl  Cl544  1  0.88887725  0.64433692  0.75132615  1
  Cl  Cl545  1  0.88858999  0.97851865  0.75625313  1
  Cl  Cl546  1  0.10914769  0.02015203  0.25141386  1
  Cl  Cl547  1  0.11156652  0.35427442  0.24894066  1
  Cl  Cl548  1  0.10757036  0.68634976  0.24915817  1
  Cl  Cl549  1  0.61045162  0.02067806  0.25615601  1
  Cl  Cl550  1  0.61117444  0.35406876  0.24509839  1
  Cl  Cl551  1  0.61195026  0.68959578  0.25092813  1
