# generated using pymatgen
data_H8PbC4(N3Cl2)2
_symmetry_space_group_name_H-M   'P 1'
_cell_length_a   16.62363266
_cell_length_b   22.50807775
_cell_length_c   21.59041869
_cell_angle_alpha   90.00053368
_cell_angle_beta   89.98100814
_cell_angle_gamma   90.00096292
_symmetry_Int_Tables_number   1
_chemical_formula_structural   H8PbC4(N3Cl2)2
_chemical_formula_sum   'H192 Pb24 C96 N144 Cl96'
_cell_volume   8078.40051024
_cell_formula_units_Z   24
loop_
 _symmetry_equiv_pos_site_id
 _symmetry_equiv_pos_as_xyz
  1  'x, y, z'
loop_
 _atom_site_type_symbol
 _atom_site_label
 _atom_site_symmetry_multiplicity
 _atom_site_fract_x
 _atom_site_fract_y
 _atom_site_fract_z
 _atom_site_occupancy
  H  H0  1  0.01028271  0.03180827  0.68000753  1
  H  H1  1  -0.00115912  0.36289967  0.67606652  1
  H  H2  1  -0.00563995  0.69997294  0.68107270  1
  H  H3  1  0.49411344  0.02993056  0.67846722  1
  H  H4  1  0.49986888  0.36068038  0.67693864  1
  H  H5  1  0.49780008  0.69724628  0.68191631  1
  H  H6  1  0.00298222  0.30362086  0.18320095  1
  H  H7  1  -0.00923374  0.63452317  0.18041894  1
  H  H8  1  0.01087184  0.96689014  0.17466838  1
  H  H9  1  0.49166391  0.30132543  0.17511234  1
  H  H10  1  0.50402576  0.63417427  0.18085429  1
  H  H11  1  0.49268163  0.96872315  0.17978613  1
  H  H12  1  0.00954689  0.03133901  0.81937358  1
  H  H13  1  0.00246622  0.36555224  0.81815181  1
  H  H14  1  0.00570682  0.69471701  0.82420102  1
  H  H15  1  0.48939507  0.03304239  0.81810459  1
  H  H16  1  0.49022410  0.36406355  0.81992552  1
  H  H17  1  0.49942579  0.69634638  0.82176716  1
  H  H18  1  0.01166354  0.30081743  0.31993938  1
  H  H19  1  -0.00512386  0.63736011  0.31746746  1
  H  H20  1  -0.00058336  0.97011554  0.32285826  1
  H  H21  1  0.49513536  0.30393548  0.32086993  1
  H  H22  1  0.50468077  0.63796206  0.32555045  1
  H  H23  1  0.50614768  0.97075874  0.31952398  1
  H  H24  1  0.24883707  0.19518741  0.67657543  1
  H  H25  1  0.23449862  0.53093611  0.67615107  1
  H  H26  1  0.25452874  0.86229321  0.67563136  1
  H  H27  1  0.74505392  0.19943981  0.67872393  1
  H  H28  1  0.76456350  0.52763103  0.67854327  1
  H  H29  1  0.74893092  0.86421586  0.68056186  1
  H  H30  1  0.24029971  0.13569360  0.17996845  1
  H  H31  1  0.25368330  0.46942195  0.18240868  1
  H  H32  1  0.24903705  0.80137859  0.18247477  1
  H  H33  1  0.75230724  0.13487460  0.18077189  1
  H  H34  1  0.74360518  0.47257728  0.17850409  1
  H  H35  1  0.74562158  0.80268979  0.17840261  1
  H  H36  1  0.23704103  0.19880636  0.82138799  1
  H  H37  1  0.24542557  0.53001671  0.81959903  1
  H  H38  1  0.26291550  0.86438670  0.82206478  1
  H  H39  1  0.76410711  0.19733481  0.82289599  1
  H  H40  1  0.75352738  0.52981455  0.82106074  1
  H  H41  1  0.73506431  0.86553112  0.81858079  1
  H  H42  1  0.25084355  0.13409574  0.32548905  1
  H  H43  1  0.26008608  0.46757605  0.32257108  1
  H  H44  1  0.25229566  0.80336692  0.32153520  1
  H  H45  1  0.75244910  0.13837220  0.32246554  1
  H  H46  1  0.73997955  0.46782560  0.31943774  1
  H  H47  1  0.75302235  0.80124427  0.31680292  1
  H  H48  1  0.12477346  0.05727228  0.60028160  1
  H  H49  1  0.12619730  0.38320075  0.60777750  1
  H  H50  1  0.13073034  0.71692649  0.62408887  1
  H  H51  1  0.62636515  0.05221419  0.61626977  1
  H  H52  1  0.62539607  0.38651733  0.60794993  1
  H  H53  1  0.62658992  0.72043587  0.61326011  1
  H  H54  1  0.37923168  0.27362025  0.09639412  1
  H  H55  1  0.37820778  0.61356776  0.11150590  1
  H  H56  1  0.37299178  0.94433097  0.10552045  1
  H  H57  1  0.87703266  0.28045714  0.11582191  1
  H  H58  1  0.87857984  0.60888913  0.09940973  1
  H  H59  1  0.87362163  0.94952411  0.12097329  1
  H  H60  1  0.37421317  0.05514284  0.89501217  1
  H  H61  1  0.38271433  0.38978916  0.90281805  1
  H  H62  1  0.36724038  0.71981455  0.88442798  1
  H  H63  1  0.86813523  0.04870351  0.87132873  1
  H  H64  1  0.87784934  0.38834122  0.88910996  1
  H  H65  1  0.86672327  0.71440240  0.87771437  1
  H  H66  1  0.11618371  0.27497121  0.40328914  1
  H  H67  1  0.12387339  0.61328104  0.38245007  1
  H  H68  1  0.12468038  0.94407169  0.39084377  1
  H  H69  1  0.62109692  0.27909340  0.39138088  1
  H  H70  1  0.62130367  0.60840866  0.39972420  1
  H  H71  1  0.62221524  0.94545731  0.39638438  1
  H  H72  1  0.38042847  0.21812070  0.61382002  1
  H  H73  1  0.37776805  0.54721354  0.62798137  1
  H  H74  1  0.37555658  0.89005462  0.60390387  1
  H  H75  1  0.87750592  0.21944145  0.61961273  1
  H  H76  1  0.87056764  0.55726450  0.59405013  1
  H  H77  1  0.87619352  0.88672472  0.61343400  1
  H  H78  1  0.13089023  0.10724772  0.09724022  1
  H  H79  1  0.12106277  0.44687808  0.11811239  1
  H  H80  1  0.13301265  0.77909898  0.10451508  1
  H  H81  1  0.62984757  0.11381165  0.10948026  1
  H  H82  1  0.61975245  0.44570650  0.10755755  1
  H  H83  1  0.63547124  0.77491139  0.09801809  1
  H  H84  1  0.12732746  0.22453866  0.90470073  1
  H  H85  1  0.12054956  0.55534628  0.88942051  1
  H  H86  1  0.12446268  0.88520394  0.87651143  1
  H  H87  1  0.62180695  0.21577356  0.87283611  1
  H  H88  1  0.62234224  0.55327969  0.88406704  1
  H  H89  1  0.62970645  0.89033263  0.90386720  1
  H  H90  1  0.37379976  0.11333632  0.39530829  1
  H  H91  1  0.37111862  0.44174936  0.40325732  1
  H  H92  1  0.36808325  0.77581597  0.39859382  1
  H  H93  1  0.87434155  0.11207774  0.39484024  1
  H  H94  1  0.87191038  0.44467704  0.38434108  1
  H  H95  1  0.86850475  0.78012738  0.39392777  1
  H  H96  1  0.37229247  0.27824598  0.39466599  1
  H  H97  1  0.37342645  0.61305134  0.38857614  1
  H  H98  1  0.37404094  0.94854276  0.38332389  1
  H  H99  1  0.87042482  0.28437491  0.37194785  1
  H  H100  1  0.87462639  0.60945771  0.39128994  1
  H  H101  1  0.87645750  0.94911830  0.39544939  1
  H  H102  1  0.11410001  0.05466016  0.90389194  1
  H  H103  1  0.12715143  0.38803445  0.89017195  1
  H  H104  1  0.11230954  0.72670701  0.90614596  1
  H  H105  1  0.62266280  0.05175989  0.87955715  1
  H  H106  1  0.62913916  0.38431460  0.87636119  1
  H  H107  1  0.61570440  0.72228430  0.89889233  1
  H  H108  1  0.12675395  0.28095504  0.11322545  1
  H  H109  1  0.12557997  0.61397368  0.11755373  1
  H  H110  1  0.11911752  0.94143004  0.09196436  1
  H  H111  1  0.62633234  0.27986496  0.11514023  1
  H  H112  1  0.62750161  0.61278425  0.11160125  1
  H  H113  1  0.62128260  0.94825379  0.11298443  1
  H  H114  1  0.37862665  0.05681441  0.60053469  1
  H  H115  1  0.37641510  0.38705008  0.60702873  1
  H  H116  1  0.37818721  0.72160467  0.60585785  1
  H  H117  1  0.87722251  0.05347882  0.61526559  1
  H  H118  1  0.87771960  0.38990235  0.60447132  1
  H  H119  1  0.88325521  0.72391497  0.60167283  1
  H  H120  1  0.12471645  0.11258625  0.39216535  1
  H  H121  1  0.12416255  0.44748513  0.38200591  1
  H  H122  1  0.11986049  0.78239641  0.38434227  1
  H  H123  1  0.62464325  0.11536798  0.38871830  1
  H  H124  1  0.62416619  0.44336892  0.39891131  1
  H  H125  1  0.61982662  0.78192011  0.37770261  1
  H  H126  1  0.37356884  0.21787140  0.88096680  1
  H  H127  1  0.37034813  0.55447652  0.88863772  1
  H  H128  1  0.37069532  0.89174694  0.90571084  1
  H  H129  1  0.86552418  0.22682746  0.90908765  1
  H  H130  1  0.87043044  0.55695148  0.89730914  1
  H  H131  1  0.87528847  0.88459484  0.87324968  1
  H  H132  1  0.37718215  0.11797405  0.12034480  1
  H  H133  1  0.36967425  0.44431419  0.10525777  1
  H  H134  1  0.38130140  0.77882382  0.11750169  1
  H  H135  1  0.87891696  0.11223959  0.11397761  1
  H  H136  1  0.86822394  0.44654542  0.10871177  1
  H  H137  1  0.88302076  0.78170695  0.12046920  1
  H  H138  1  0.13169454  0.22224124  0.60056046  1
  H  H139  1  0.13546989  0.56130587  0.58852876  1
  H  H140  1  0.12709697  0.88804690  0.61052105  1
  H  H141  1  0.63002246  0.22291967  0.60113264  1
  H  H142  1  0.62515297  0.54829312  0.62625680  1
  H  H143  1  0.62780016  0.88994090  0.60707980  1
  H  H144  1  0.91977115  0.25325663  0.00345335  1
  H  H145  1  0.94751200  0.75063224  0.49375399  1
  H  H146  1  0.82282697  0.08583206  0.49909421  1
  H  H147  1  0.93121173  0.59343570  0.49800087  1
  H  H148  1  0.93202977  0.40330374  0.49926703  1
  H  H149  1  0.40846172  0.58281166  0.49653868  1
  H  H150  1  0.78613969  0.25051074  1.00792809  1
  H  H151  1  0.08406790  0.58777335  0.49522880  1
  H  H152  1  0.55222447  0.74811547  1.00302854  1
  H  H153  1  0.20446378  0.07938860  -0.00200719  1
  H  H154  1  0.70295444  0.74409333  -0.00693401  1
  H  H155  1  0.08036162  0.92713748  0.49690031  1
  H  H156  1  0.92658509  0.91108234  0.49448696  1
  H  H157  1  0.57236104  0.94285755  0.00443088  1
  H  H158  1  0.64908656  0.75551724  0.49111788  1
  H  H159  1  0.21736500  0.58422173  0.49071211  1
  H  H160  1  0.84305080  0.08262767  0.00267163  1
  H  H161  1  0.04328167  0.24755750  0.50894449  1
  H  H162  1  0.29613962  0.91814495  1.00568840  1
  H  H163  1  0.67464906  0.08319835  0.00016917  1
  H  H164  1  0.58494540  0.58458171  -0.00021084  1
  H  H165  1  0.67063930  0.41836339  0.00336405  1
  H  H166  1  0.80993137  0.75550310  0.50385843  1
  H  H167  1  0.92704077  0.41912493  0.99722389  1
  H  H168  1  0.56220829  0.91500373  0.50218895  1
  H  H169  1  0.79484817  0.57424319  0.49291207  1
  H  H170  1  0.11002566  0.74646592  0.51049173  1
  H  H171  1  0.08382078  0.41945395  0.50621567  1
  H  H172  1  0.66217486  0.08523225  0.49931707  1
  H  H173  1  0.32730932  0.58481030  0.99797498  1
  H  H174  1  0.19489504  0.24660454  0.49558841  1
  H  H175  1  0.59701910  0.25008555  0.00589941  1
  H  H176  1  0.70477746  0.91806071  1.00666346  1
  H  H177  1  0.43515039  0.90141875  0.00989305  1
  H  H178  1  0.32289526  0.92053417  0.50070822  1
  H  H179  1  0.45500342  0.41942825  1.00631479  1
  H  H180  1  0.20108477  0.24834394  1.00578768  1
  H  H181  1  0.03893112  0.75432504  1.00591254  1
  H  H182  1  0.16707175  0.58115531  0.99493242  1
  H  H183  1  0.30795484  0.41497655  -0.00124809  1
  H  H184  1  0.07939799  0.25736830  0.00047009  1
  H  H185  1  0.19460550  0.75115561  -0.00248517  1
  H  H186  1  0.85911644  0.75246463  0.01076464  1
  H  H187  1  0.04123137  0.08080156  1.00918776  1
  H  H188  1  0.85178473  0.25022907  0.50505175  1
  H  H189  1  0.89350453  0.92042815  1.00543701  1
  H  H190  1  0.43164046  0.08505392  1.00313893  1
  H  H191  1  0.64143503  0.57939341  0.51357499  1
  Pb  Pb192  1  0.24834282  0.04866130  0.75391099  1
  Pb  Pb193  1  0.25161584  0.38020258  0.75233808  1
  Pb  Pb194  1  0.24971174  0.71294665  0.75541449  1
  Pb  Pb195  1  0.75009601  0.04692227  0.74379153  1
  Pb  Pb196  1  0.75150289  0.37886427  0.75081879  1
  Pb  Pb197  1  0.74516265  0.71507416  0.74955299  1
  Pb  Pb198  1  0.24676074  0.28505478  0.25244169  1
  Pb  Pb199  1  0.24908125  0.62074203  0.25107125  1
  Pb  Pb200  1  0.24958411  0.95424983  0.24591152  1
  Pb  Pb201  1  0.74776761  0.28685821  0.24444403  1
  Pb  Pb202  1  0.74785791  0.61851374  0.25432392  1
  Pb  Pb203  1  0.74872077  0.95374761  0.25236492  1
  Pb  Pb204  1  0.00449065  0.21539756  0.75748959  1
  Pb  Pb205  1  -0.00272075  0.54899341  0.74223749  1
  Pb  Pb206  1  -0.00004480  0.87889545  0.74108808  1
  Pb  Pb207  1  0.50101616  0.21281206  0.74947445  1
  Pb  Pb208  1  0.50005253  0.54477848  0.75182225  1
  Pb  Pb209  1  0.49607426  0.88243607  0.75691837  1
  Pb  Pb210  1  -0.00038929  0.11933038  0.24729193  1
  Pb  Pb211  1  -0.00192325  0.45327983  0.25309974  1
  Pb  Pb212  1  0.00046831  0.78771187  0.24735833  1
  Pb  Pb213  1  0.50036504  0.12083406  0.25053820  1
  Pb  Pb214  1  0.49507880  0.45151454  0.25046679  1
  Pb  Pb215  1  0.49990109  0.78644017  0.24367026  1
  C  C216  1  0.00403781  0.04689841  0.63247983  1
  C  C217  1  0.00098114  0.37921815  0.62868377  1
  C  C218  1  0.00329053  0.71401458  0.63338206  1
  C  C219  1  0.49958659  0.04595356  0.63146119  1
  C  C220  1  0.50076173  0.37800693  0.63033069  1
  C  C221  1  0.50098026  0.71282253  0.63438562  1
  C  C222  1  0.00221561  0.28844053  0.13547955  1
  C  C223  1  -0.00165164  0.61976669  0.13288380  1
  C  C224  1  0.00040406  0.95274219  0.12742229  1
  C  C225  1  0.49969470  0.28580709  0.12803039  1
  C  C226  1  0.50362239  0.62010767  0.13286764  1
  C  C227  1  0.49563623  0.95379105  0.13192495  1
  C  C228  1  -0.00262493  0.04501223  0.86660350  1
  C  C229  1  0.00264076  0.38075488  0.86581923  1
  C  C230  1  -0.00486906  0.71114053  0.87075004  1
  C  C231  1  0.49512877  0.04661709  0.86603500  1
  C  C232  1  0.50108489  0.37936403  0.86689754  1
  C  C233  1  0.49434276  0.71182486  0.86909524  1
  C  C234  1  -0.00046227  0.28709394  0.36713132  1
  C  C235  1  -0.00270510  0.62135267  0.36497095  1
  C  C236  1  0.00016106  0.95442308  0.37046327  1
  C  C237  1  0.49602928  0.28829828  0.36835962  1
  C  C238  1  0.49918889  0.62076902  0.37229983  1
  C  C239  1  0.50057616  0.95488035  0.36680599  1
  C  C240  1  0.25330707  0.21054558  0.62922527  1
  C  C241  1  0.24897058  0.54545074  0.62944867  1
  C  C242  1  0.25273632  0.87929717  0.62870769  1
  C  C243  1  0.75156314  0.21398247  0.63118450  1
  C  C244  1  0.75372727  0.54316052  0.63156081  1
  C  C245  1  0.75077844  0.87974729  0.63324757  1
  C  C246  1  0.24914634  0.12030712  0.13282556  1
  C  C247  1  0.24786682  0.45390933  0.13507266  1
  C  C248  1  0.25487066  0.78673624  0.13482069  1
  C  C249  1  0.75379268  0.11977766  0.13295232  1
  C  C250  1  0.74352258  0.45546663  0.13153520  1
  C  C251  1  0.75555919  0.78669388  0.13143646  1
  C  C252  1  0.24549054  0.21284654  0.86905858  1
  C  C253  1  0.24505480  0.54605453  0.86712762  1
  C  C254  1  0.25300496  0.87960220  0.86899797  1
  C  C255  1  0.75075779  0.21251464  0.86955782  1
  C  C256  1  0.74887989  0.54608086  0.86799611  1
  C  C257  1  0.74690342  0.88018153  0.86555849  1
  C  C258  1  0.24975741  0.11964409  0.37357146  1
  C  C259  1  0.25135222  0.45255836  0.36961378  1
  C  C260  1  0.24684767  0.78746140  0.36856751  1
  C  C261  1  0.75082410  0.12209843  0.36988397  1
  C  C262  1  0.74540526  0.45242216  0.36689098  1
  C  C263  1  0.74681439  0.78737323  0.36477747  1
  C  C264  1  0.69420084  0.76457740  0.45583977  1
  C  C265  1  0.47265065  0.25463081  0.03243130  1
  C  C266  1  0.72271300  0.24190284  0.53591932  1
  C  C267  1  0.73278434  0.75674472  0.03600437  1
  C  C268  1  0.54280061  0.59432091  0.03808159  1
  C  C269  1  0.70535477  0.09494772  0.46160744  1
  C  C270  1  0.80387657  0.24056749  0.54046905  1
  C  C271  1  0.71592651  0.09354292  0.03853035  1
  C  C272  1  0.46704154  0.07305276  0.96277074  1
  C  C273  1  0.93218943  0.06829456  0.95230114  1
  C  C274  1  0.01433153  0.25988346  0.46544565  1
  C  C275  1  0.68345114  0.23822394  0.95390265  1
  C  C276  1  0.44183513  0.74070677  0.95901927  1
  C  C277  1  0.22804547  0.76132601  0.03957103  1
  C  C278  1  0.28641512  0.57394517  0.95967132  1
  C  C279  1  0.70190936  0.57566715  0.95758985  1
  C  C280  1  0.48408967  0.40764051  0.96273803  1
  C  C281  1  0.93268952  0.73936349  0.95644406  1
  C  C282  1  0.77595971  0.76393172  0.46181646  1
  C  C283  1  0.97944763  0.73979613  0.53616598  1
  C  C284  1  0.19097009  0.90887160  0.95502236  1
  C  C285  1  0.73213574  0.90746825  0.96199869  1
  C  C286  1  0.02202444  0.92569568  0.03051899  1
  C  C287  1  0.79813840  0.09340542  0.03995425  1
  C  C288  1  0.96590239  0.40787365  0.95841419  1
  C  C289  1  0.95948424  0.26369976  0.04197236  1
  C  C290  1  0.69072606  0.57105894  0.54673895  1
  C  C291  1  0.94141196  0.92854939  0.03885069  1
  C  C292  1  0.93445112  0.26395270  0.45285638  1
  C  C293  1  0.04154757  0.26474989  0.04078765  1
  C  C294  1  0.27330995  0.42337958  0.46501698  1
  C  C295  1  0.54824319  0.07473037  0.54205193  1
  C  C296  1  0.06105144  0.73760968  0.54421813  1
  C  C297  1  0.01203853  0.07056823  0.96533038  1
  C  C298  1  0.79324569  0.90630862  0.54113227  1
  C  C299  1  0.52760741  0.92645871  0.46114763  1
  C  C300  1  0.28776586  0.09367251  0.46585060  1
  C  C301  1  0.04402252  0.59513114  0.45614661  1
  C  C302  1  0.30517859  0.24029257  0.53964370  1
  C  C303  1  0.53200542  0.58898884  0.46670285  1
  C  C304  1  0.31868518  0.57102694  0.54615156  1
  C  C305  1  0.27441265  0.42632550  0.04047263  1
  C  C306  1  0.54822472  0.07118613  0.95616399  1
  C  C307  1  0.20589676  0.91214724  0.53835772  1
  C  C308  1  0.46448817  0.41118789  0.53955620  1
  C  C309  1  0.46099516  0.59499929  0.03952729  1
  C  C310  1  0.20762215  0.09325115  0.46471699  1
  C  C311  1  0.19881789  0.75975294  0.45828775  1
  N  N312  1  0.76097405  0.24203161  0.96522667  1
  N  N313  1  0.96439093  0.59316739  0.45802328  1
  N  N314  1  0.47102712  0.07643937  0.53565536  1
  N  N315  1  0.22638712  0.24049974  0.53593322  1
  N  N316  1  0.71708979  0.42340508  0.46194229  1
  N  N317  1  0.45304670  0.59118308  0.46182627  1
  N  N318  1  0.56255041  0.40619765  0.95392192  1
  N  N319  1  0.22719191  0.24058315  0.96335003  1
  N  N320  1  0.97392229  0.59199939  0.03679435  1
  N  N321  1  0.79345288  0.42377977  0.45726916  1
  N  N322  1  0.03119352  0.07510743  0.53693630  1
  N  N323  1  0.04524934  0.40732707  0.95940120  1
  N  N324  1  0.55095387  0.25805522  0.03953061  1
  N  N325  1  0.52051208  0.74058147  0.96301701  1
  N  N326  1  0.71561260  0.90767203  0.53790626  1
  N  N327  1  0.53610612  0.25988237  0.46103479  1
  N  N328  1  0.46001408  0.25961520  0.46192694  1
  N  N329  1  0.81153065  0.75949358  0.04456136  1
  N  N330  1  0.95468971  0.07387932  0.54198099  1
  N  N331  1  0.28516669  0.91149441  0.53690247  1
  N  N332  1  0.27595858  0.75711454  0.46437777  1
  N  N333  1  0.81000006  0.90665959  0.95127370  1
  N  N334  1  0.19542246  0.42726032  0.04454490  1
  N  N335  1  0.05006004  0.59415910  0.04267956  1
  N  N336  1  0.76933523  0.57401051  0.53638721  1
  N  N337  1  0.26903444  0.90963381  0.96385216  1
  N  N338  1  0.01087583  0.74406323  0.96468911  1
  N  N339  1  0.46099538  0.93332998  0.03734671  1
  N  N340  1  0.30871122  0.09651587  0.04508842  1
  N  N341  1  0.78637133  0.42707110  0.03933183  1
  N  N342  1  0.23134791  0.09321997  0.03840256  1
  N  N343  1  0.78518286  0.09308651  0.46221456  1
  N  N344  1  0.70795571  0.42623785  0.04074234  1
  N  N345  1  0.54443421  0.73990451  0.54220785  1
  N  N346  1  0.54171639  0.92683691  0.04211965  1
  N  N347  1  0.24153593  0.57580282  0.53377645  1
  N  N348  1  0.30713278  0.76102210  0.04389992  1
  N  N349  1  0.30453231  0.23804335  0.95652776  1
  N  N350  1  0.54188529  0.41109602  0.53853911  1
  N  N351  1  0.77935860  0.57700998  0.96328975  1
  N  N352  1  0.04135480  0.92178151  0.45965275  1
  N  N353  1  0.46827792  0.74053389  0.53981392  1
  N  N354  1  0.96310564  0.93480209  0.46458500  1
  N  N355  1  0.44836484  0.92761342  0.45746966  1
  N  N356  1  0.96548091  0.41224121  0.53815564  1
  N  N357  1  0.19608481  0.42617553  0.45974349  1
  N  N358  1  0.04389955  0.39923167  0.53628621  1
  N  N359  1  0.20666320  0.57409414  0.95906966  1
  N  N360  1  0.06291430  0.05856565  0.59276648  1
  N  N361  1  0.06623386  0.39007452  0.59542643  1
  N  N362  1  0.07389102  0.72181278  0.60488142  1
  N  N363  1  0.56817413  0.05644613  0.60017217  1
  N  N364  1  0.56478740  0.38992679  0.59618159  1
  N  N365  1  0.56631048  0.72262666  0.60076940  1
  N  N366  1  0.44055368  0.27213367  0.08695196  1
  N  N367  1  0.43778326  0.61040651  0.09690099  1
  N  N368  1  0.43420009  0.93841651  0.09642094  1
  N  N369  1  0.93647280  0.27826630  0.10113083  1
  N  N370  1  0.94057571  0.60781097  0.09242405  1
  N  N371  1  0.92928589  0.94515175  0.10009350  1
  N  N372  1  0.43498852  0.05719342  0.90551776  1
  N  N373  1  0.44496956  0.39124804  0.90979212  1
  N  N374  1  0.42532608  0.72352109  0.90068615  1
  N  N375  1  0.92393535  0.05320183  0.89253396  1
  N  N376  1  0.93822424  0.39172354  0.90136512  1
  N  N377  1  0.92262027  0.72014940  0.89772245  1
  N  N378  1  0.05409800  0.27486660  0.41052722  1
  N  N379  1  0.06468271  0.61067572  0.39794089  1
  N  N380  1  0.06478272  0.94527759  0.40490012  1
  N  N381  1  0.56013134  0.27801808  0.40320210  1
  N  N382  1  0.56075720  0.60682809  0.41112881  1
  N  N383  1  0.56106737  0.94263023  0.40588755  1
  N  N384  1  0.32204097  0.22251362  0.59755746  1
  N  N385  1  0.32337181  0.55350325  0.60572849  1
  N  N386  1  0.31475011  0.89013617  0.59234279  1
  N  N387  1  0.82040975  0.22311269  0.60106336  1
  N  N388  1  0.80839122  0.55295144  0.58804325  1
  N  N389  1  0.81705068  0.88978178  0.59891455  1
  N  N390  1  0.19333588  0.10681405  0.09157759  1
  N  N391  1  0.18062699  0.44417558  0.10367144  1
  N  N392  1  0.19444186  0.77713972  0.09489822  1
  N  N393  1  0.68997792  0.10983883  0.09673714  1
  N  N394  1  0.68049523  0.44439714  0.09604659  1
  N  N395  1  0.69759066  0.77336591  0.08982114  1
  N  N396  1  0.18930220  0.22307937  0.91108632  1
  N  N397  1  0.18129668  0.55580255  0.90224759  1
  N  N398  1  0.18087584  0.89077487  0.89617091  1
  N  N399  1  0.67699581  0.22108972  0.89428832  1
  N  N400  1  0.68085041  0.55734953  0.89982625  1
  N  N401  1  0.69174771  0.89119506  0.90960619  1
  N  N402  1  0.31442779  0.10943568  0.41021999  1
  N  N403  1  0.30946043  0.43950018  0.41127548  1
  N  N404  1  0.30611269  0.77480326  0.40695862  1
  N  N405  1  0.81307403  0.11117440  0.40619977  1
  N  N406  1  0.81215184  0.44144293  0.39822520  1
  N  N407  1  0.80741197  0.77788098  0.40456505  1
  N  N408  1  0.43342929  0.27733008  0.40462427  1
  N  N409  1  0.43250384  0.61149124  0.40377832  1
  N  N410  1  0.43345744  0.94553636  0.39818886  1
  N  N411  1  0.92592643  0.27988832  0.39341506  1
  N  N412  1  0.93567383  0.61288515  0.40268019  1
  N  N413  1  0.93708173  0.94324683  0.40593772  1
  N  N414  1  0.05189192  0.05589665  0.91038994  1
  N  N415  1  0.06639045  0.39060839  0.90132878  1
  N  N416  1  0.05005031  0.72481353  0.91236171  1
  N  N417  1  0.56466812  0.05557550  0.89762975  1
  N  N418  1  0.57121909  0.38886416  0.89391357  1
  N  N419  1  0.55407447  0.72122831  0.90831206  1
  N  N420  1  0.06684886  0.27980112  0.09936330  1
  N  N421  1  0.06638152  0.61139752  0.10237836  1
  N  N422  1  0.05759280  0.94037388  0.08405843  1
  N  N423  1  0.56812885  0.27774962  0.09842319  1
  N  N424  1  0.56789893  0.61001734  0.09746120  1
  N  N425  1  0.56144077  0.95029493  0.09771280  1
  N  N426  1  0.44050976  0.05815001  0.59265996  1
  N  N427  1  0.43637514  0.39144930  0.59489124  1
  N  N428  1  0.43980417  0.72422371  0.59685966  1
  N  N429  1  0.93689601  0.05633459  0.60118319  1
  N  N430  1  0.93847959  0.38895038  0.59222913  1
  N  N431  1  0.94467051  0.72513469  0.59209109  1
  N  N432  1  0.18346173  0.10894867  0.40837555  1
  N  N433  1  0.18245600  0.44406414  0.39860370  1
  N  N434  1  0.17828203  0.77771647  0.40018625  1
  N  N435  1  0.68414377  0.11196931  0.40374650  1
  N  N436  1  0.68599623  0.44141228  0.40629871  1
  N  N437  1  0.67766526  0.77889567  0.39541928  1
  N  N438  1  0.31532820  0.22209783  0.89749224  1
  N  N439  1  0.31030390  0.55730572  0.90234529  1
  N  N440  1  0.30855696  0.89007394  0.91150580  1
  N  N441  1  0.80344186  0.22384141  0.91376322  1
  N  N442  1  0.80875375  0.55795758  0.90616629  1
  N  N443  1  0.81774354  0.88977739  0.89141482  1
  N  N444  1  0.31906883  0.11317588  0.10387171  1
  N  N445  1  0.30834723  0.44247879  0.09562195  1
  N  N446  1  0.32197229  0.77650547  0.10337639  1
  N  N447  1  0.81981571  0.10959913  0.09911112  1
  N  N448  1  0.80766176  0.44426036  0.09651296  1
  N  N449  1  0.82506384  0.77877736  0.10308174  1
  N  N450  1  0.19323414  0.21997307  0.59032304  1
  N  N451  1  0.19738108  0.55719800  0.58459356  1
  N  N452  1  0.18594986  0.89241281  0.59529968  1
  N  N453  1  0.69105928  0.22577026  0.59042024  1
  N  N454  1  0.68136462  0.55405938  0.60616998  1
  N  N455  1  0.68899982  0.89073147  0.59653757  1
  Cl  Cl456  1  0.25043164  0.05247126  0.62061561  1
  Cl  Cl457  1  0.24899134  0.38084364  0.61888730  1
  Cl  Cl458  1  0.25721712  0.71428205  0.62447706  1
  Cl  Cl459  1  0.75311210  0.05652039  0.60785947  1
  Cl  Cl460  1  0.75411536  0.38741715  0.61937694  1
  Cl  Cl461  1  0.75562366  0.72133693  0.61595740  1
  Cl  Cl462  1  0.25196666  0.27399605  0.11300513  1
  Cl  Cl463  1  0.25039383  0.61071897  0.11667129  1
  Cl  Cl464  1  0.24977918  0.94336949  0.10292073  1
  Cl  Cl465  1  0.75368694  0.27520047  0.10565485  1
  Cl  Cl466  1  0.75527964  0.61510281  0.12310508  1
  Cl  Cl467  1  0.74052674  0.94009629  0.11701034  1
  Cl  Cl468  1  0.23966451  0.05470424  0.89497174  1
  Cl  Cl469  1  0.25872008  0.38895272  0.88790254  1
  Cl  Cl470  1  0.23536148  0.72346168  0.89101250  1
  Cl  Cl471  1  0.74415181  0.05090688  0.87490687  1
  Cl  Cl472  1  0.75365635  0.38474551  0.88510607  1
  Cl  Cl473  1  0.73782795  0.72223125  0.88675017  1
  Cl  Cl474  1  0.24245062  0.27465143  0.39181984  1
  Cl  Cl475  1  0.24698984  0.60733640  0.39097008  1
  Cl  Cl476  1  0.24779149  0.94343109  0.38088759  1
  Cl  Cl477  1  0.74261328  0.27694681  0.37527547  1
  Cl  Cl478  1  0.75133834  0.60391130  0.39471830  1
  Cl  Cl479  1  0.75247131  0.95007815  0.38416633  1
  Cl  Cl480  1  0.01126585  0.22511210  0.62223479  1
  Cl  Cl481  1  -0.00139369  0.56089983  0.59741987  1
  Cl  Cl482  1  0.00135400  0.89125021  0.60436830  1
  Cl  Cl483  1  0.50555537  0.21660493  0.62190891  1
  Cl  Cl484  1  0.50166119  0.55196977  0.61784191  1
  Cl  Cl485  1  0.50139459  0.89068723  0.62242435  1
  Cl  Cl486  1  0.00966003  0.10957739  0.11191699  1
  Cl  Cl487  1  -0.00820716  0.44484190  0.12124804  1
  Cl  Cl488  1  0.01069570  0.77641018  0.10705506  1
  Cl  Cl489  1  0.50360131  0.11648217  0.11572726  1
  Cl  Cl490  1  0.49520061  0.44407359  0.11276126  1
  Cl  Cl491  1  0.51357162  0.77732431  0.10444818  1
  Cl  Cl492  1  -0.00171401  0.22541624  0.89362891  1
  Cl  Cl493  1  -0.00254821  0.55588782  0.87451667  1
  Cl  Cl494  1  0.00107905  0.87862794  0.87134592  1
  Cl  Cl495  1  0.49748299  0.22019535  0.88473804  1
  Cl  Cl496  1  0.49616325  0.55405660  0.88364757  1
  Cl  Cl497  1  0.49892414  0.89074913  0.90139488  1
  Cl  Cl498  1  -0.00397968  0.11285251  0.37760712  1
  Cl  Cl499  1  -0.00337730  0.44417576  0.39013822  1
  Cl  Cl500  1  -0.00737678  0.78308500  0.38043140  1
  Cl  Cl501  1  0.50128478  0.11338539  0.37794266  1
  Cl  Cl502  1  0.49753168  0.44865291  0.38297915  1
  Cl  Cl503  1  0.49085865  0.78018158  0.37411226  1
  Cl  Cl504  1  0.35955616  0.14490043  0.75528773  1
  Cl  Cl505  1  0.36050503  0.48175020  0.74540830  1
  Cl  Cl506  1  0.36107781  0.81422207  0.75402299  1
  Cl  Cl507  1  0.85699055  0.14645750  0.74956730  1
  Cl  Cl508  1  0.86103615  0.48093857  0.74869642  1
  Cl  Cl509  1  0.86478257  0.81097915  0.75262997  1
  Cl  Cl510  1  0.14043221  0.18636182  0.25031803  1
  Cl  Cl511  1  0.13613811  0.52048762  0.25479239  1
  Cl  Cl512  1  0.13867573  0.85312944  0.25422655  1
  Cl  Cl513  1  0.64105681  0.18466392  0.24559237  1
  Cl  Cl514  1  0.64334768  0.52137481  0.24786884  1
  Cl  Cl515  1  0.63957947  0.85132617  0.24978418  1
  Cl  Cl516  1  0.14039449  0.14683955  0.75172025  1
  Cl  Cl517  1  0.14010873  0.48085471  0.74855753  1
  Cl  Cl518  1  0.13873473  0.81378247  0.74388903  1
  Cl  Cl519  1  0.63645194  0.14530786  0.75525486  1
  Cl  Cl520  1  0.63824653  0.47901879  0.75128750  1
  Cl  Cl521  1  0.64505297  0.81318237  0.75111990  1
  Cl  Cl522  1  0.36194762  0.18585270  0.24835781  1
  Cl  Cl523  1  0.35809349  0.51881583  0.25100851  1
  Cl  Cl524  1  0.36144678  0.85282410  0.24203914  1
  Cl  Cl525  1  0.86292009  0.18793862  0.24783250  1
  Cl  Cl526  1  0.86432362  0.52140568  0.25540885  1
  Cl  Cl527  1  0.86214945  0.85380350  0.24419269  1
  Cl  Cl528  1  0.10899880  0.31384950  0.75360255  1
  Cl  Cl529  1  0.11389625  0.64625252  0.74662776  1
  Cl  Cl530  1  0.10723417  0.98069771  0.74999361  1
  Cl  Cl531  1  0.61229531  0.31175718  0.75509419  1
  Cl  Cl532  1  0.61059528  0.64639632  0.74786475  1
  Cl  Cl533  1  0.61439744  0.97867572  0.75164197  1
  Cl  Cl534  1  0.38948872  0.01886530  0.24651262  1
  Cl  Cl535  1  0.39227952  0.35391205  0.24675715  1
  Cl  Cl536  1  0.38660730  0.68638128  0.24405827  1
  Cl  Cl537  1  0.88788759  0.01918710  0.24430060  1
  Cl  Cl538  1  0.88580043  0.35347579  0.25493145  1
  Cl  Cl539  1  0.89018870  0.68760336  0.25229696  1
  Cl  Cl540  1  0.38898762  0.31264655  0.75106991  1
  Cl  Cl541  1  0.38816674  0.64574333  0.75564221  1
  Cl  Cl542  1  0.39340601  0.97802814  0.75137591  1
  Cl  Cl543  1  0.88993047  0.31399623  0.74700546  1
  Cl  Cl544  1  0.89414897  0.64701730  0.74994446  1
  Cl  Cl545  1  0.88324416  0.97625621  0.75249041  1
  Cl  Cl546  1  0.10852617  0.01653426  0.24755768  1
  Cl  Cl547  1  0.11084961  0.35229936  0.24993414  1
  Cl  Cl548  1  0.11176405  0.68701842  0.25011782  1
  Cl  Cl549  1  0.60980056  0.01871622  0.24484158  1
  Cl  Cl550  1  0.61165344  0.35353042  0.24245209  1
  Cl  Cl551  1  0.60992362  0.68503163  0.25540024  1
