# generated using pymatgen
data_H8PbC4(N3Cl2)2
_symmetry_space_group_name_H-M   'P 1'
_cell_length_a   16.63087621
_cell_length_b   22.52594769
_cell_length_c   21.59736121
_cell_angle_alpha   89.99720403
_cell_angle_beta   90.00654822
_cell_angle_gamma   90.01188713
_symmetry_Int_Tables_number   1
_chemical_formula_structural   H8PbC4(N3Cl2)2
_chemical_formula_sum   'H192 Pb24 C96 N144 Cl96'
_cell_volume   8090.93814914
_cell_formula_units_Z   24
loop_
 _symmetry_equiv_pos_site_id
 _symmetry_equiv_pos_as_xyz
  1  'x, y, z'
loop_
 _atom_site_type_symbol
 _atom_site_label
 _atom_site_symmetry_multiplicity
 _atom_site_fract_x
 _atom_site_fract_y
 _atom_site_fract_z
 _atom_site_occupancy
  H  H0  1  -0.00292884  0.02554830  0.67680184  1
  H  H1  1  -0.00309891  0.36281476  0.67608140  1
  H  H2  1  0.02594397  0.69567977  0.67100861  1
  H  H3  1  0.52606863  0.03668339  0.66011890  1
  H  H4  1  0.50396388  0.36125961  0.67304072  1
  H  H5  1  0.48273256  0.69436514  0.67373977  1
  H  H6  1  0.00806533  0.30594870  0.17299610  1
  H  H7  1  0.01835099  0.64254720  0.17592442  1
  H  H8  1  0.00502846  0.97466420  0.17562610  1
  H  H9  1  0.49936783  0.30287373  0.18263746  1
  H  H10  1  0.48551971  0.63785619  0.17045999  1
  H  H11  1  0.48377493  0.97078194  0.17507649  1
  H  H12  1  0.00974522  0.02780570  0.82061748  1
  H  H13  1  -0.00117073  0.35974434  0.82359972  1
  H  H14  1  0.01545078  0.70039633  0.82455182  1
  H  H15  1  0.49896952  0.02358569  0.82552675  1
  H  H16  1  0.49695003  0.36275956  0.81630970  1
  H  H17  1  0.49349490  0.69262765  0.82308622  1
  H  H18  1  0.00466219  0.30214346  0.31907806  1
  H  H19  1  -0.00574920  0.64010784  0.32605450  1
  H  H20  1  -0.01259133  0.96939377  0.32039893  1
  H  H21  1  0.48503113  0.30524265  0.32700822  1
  H  H22  1  0.49769275  0.63615489  0.31945874  1
  H  H23  1  0.50861834  0.96736785  0.31512552  1
  H  H24  1  0.23189148  0.19355522  0.67749025  1
  H  H25  1  0.25448938  0.52952407  0.67832291  1
  H  H26  1  0.24880525  0.86219795  0.68163976  1
  H  H27  1  0.76407708  0.19923425  0.67464208  1
  H  H28  1  0.74193573  0.52760258  0.68376696  1
  H  H29  1  0.73539735  0.86259556  0.68188289  1
  H  H30  1  0.25872315  0.13710689  0.17578991  1
  H  H31  1  0.26245990  0.46639483  0.18238744  1
  H  H32  1  0.26160225  0.80870164  0.17536774  1
  H  H33  1  0.75525088  0.13794518  0.17953618  1
  H  H34  1  0.74668740  0.47678209  0.17739582  1
  H  H35  1  0.73640556  0.80814163  0.17122459  1
  H  H36  1  0.24292101  0.18930870  0.82500221  1
  H  H37  1  0.24338880  0.53126195  0.81729763  1
  H  H38  1  0.25778604  0.86029395  0.82209004  1
  H  H39  1  0.74973457  0.19878507  0.82038638  1
  H  H40  1  0.76180846  0.52830928  0.82384274  1
  H  H41  1  0.75759999  0.86057911  0.81861430  1
  H  H42  1  0.25014382  0.13479758  0.31572962  1
  H  H43  1  0.24955329  0.46998695  0.32339085  1
  H  H44  1  0.25783533  0.80732580  0.32509010  1
  H  H45  1  0.72660319  0.13625385  0.34540088  1
  H  H46  1  0.75137540  0.46930330  0.31982815  1
  H  H47  1  0.74182922  0.80079402  0.32488389  1
  H  H48  1  0.13805900  0.04846037  0.62768425  1
  H  H49  1  0.11200932  0.39064085  0.59867934  1
  H  H50  1  0.12406449  0.73085727  0.58554792  1
  H  H51  1  0.66099541  0.05833536  0.60389040  1
  H  H52  1  0.61169650  0.39440713  0.59277950  1
  H  H53  1  0.62936824  0.71275332  0.63250682  1
  H  H54  1  0.36800599  0.27755098  0.12008099  1
  H  H55  1  0.37954024  0.60634469  0.08844710  1
  H  H56  1  0.37889656  0.94351054  0.09156885  1
  H  H57  1  0.86556112  0.28863590  0.12154461  1
  H  H58  1  0.87507816  0.62035402  0.13114777  1
  H  H59  1  0.88444464  0.94301838  0.10468468  1
  H  H60  1  0.38157233  0.05426760  0.90027439  1
  H  H61  1  0.38251392  0.38650948  0.89386432  1
  H  H62  1  0.37976996  0.72261834  0.89792393  1
  H  H63  1  0.88221421  0.05411749  0.88808716  1
  H  H64  1  0.87950757  0.39251762  0.89424626  1
  H  H65  1  0.87450235  0.71635483  0.87678162  1
  H  H66  1  0.11934047  0.27831071  0.39530605  1
  H  H67  1  0.12914870  0.61411663  0.38426833  1
  H  H68  1  0.12031070  0.94703757  0.38351457  1
  H  H69  1  0.62429607  0.28112641  0.37996442  1
  H  H70  1  0.62674336  0.61565635  0.38606362  1
  H  H71  1  0.62013245  0.94486430  0.39575682  1
  H  H72  1  0.37226466  0.21618420  0.62502645  1
  H  H73  1  0.36829864  0.55841264  0.60142736  1
  H  H74  1  0.37605168  0.88652433  0.61285046  1
  H  H75  1  0.86736652  0.22896470  0.58860758  1
  H  H76  1  0.86889219  0.55275327  0.61526898  1
  H  H77  1  0.87612243  0.88119242  0.62768599  1
  H  H78  1  0.12044796  0.11461543  0.12065433  1
  H  H79  1  0.12110915  0.44997880  0.13303672  1
  H  H80  1  0.12419339  0.78255350  0.12101422  1
  H  H81  1  0.62118388  0.11579104  0.11757065  1
  H  H82  1  0.61961031  0.44772262  0.11164705  1
  H  H83  1  0.63246511  0.77389598  0.08748707  1
  H  H84  1  0.13923412  0.22651051  0.90752075  1
  H  H85  1  0.13228423  0.55773922  0.89792864  1
  H  H86  1  0.12268927  0.88384705  0.88303854  1
  H  H87  1  0.63674359  0.22248033  0.90086525  1
  H  H88  1  0.62948194  0.55341789  0.88576225  1
  H  H89  1  0.62409354  0.88295858  0.88272163  1
  H  H90  1  0.36275958  0.11227180  0.39361862  1
  H  H91  1  0.38764755  0.45239676  0.37760586  1
  H  H92  1  0.36517251  0.77269269  0.40685113  1
  H  H93  1  0.83409314  0.10313667  0.42650206  1
  H  H94  1  0.88623873  0.44579663  0.38084797  1
  H  H95  1  0.86829175  0.77833996  0.39319110  1
  H  H96  1  0.37820119  0.27410061  0.40823317  1
  H  H97  1  0.37749281  0.61102733  0.39023180  1
  H  H98  1  0.37262705  0.94914256  0.37235970  1
  H  H99  1  0.87094327  0.28261053  0.38019476  1
  H  H100  1  0.88092197  0.61094679  0.40308486  1
  H  H101  1  0.87221266  0.94385248  0.39799717  1
  H  H102  1  0.13112227  0.05469734  0.89267289  1
  H  H103  1  0.12825910  0.38587613  0.88914512  1
  H  H104  1  0.11859401  0.72941540  0.91071812  1
  H  H105  1  0.62964891  0.05136596  0.88959484  1
  H  H106  1  0.63054010  0.38277902  0.87614420  1
  H  H107  1  0.62795852  0.71523736  0.88158046  1
  H  H108  1  0.10896101  0.26926202  0.08945742  1
  H  H109  1  0.11708440  0.60835352  0.08888182  1
  H  H110  1  0.13325713  0.94767851  0.10827873  1
  H  H111  1  0.61605090  0.27962371  0.10395488  1
  H  H112  1  0.62478622  0.61731360  0.11689298  1
  H  H113  1  0.62314861  0.95110152  0.12562485  1
  H  H114  1  0.41440707  0.06276979  0.58165654  1
  H  H115  1  0.36550965  0.38411132  0.61933994  1
  H  H116  1  0.39037159  0.72703922  0.58316372  1
  H  H117  1  0.89470762  0.06142755  0.59387519  1
  H  H118  1  0.86396744  0.38553205  0.61498177  1
  H  H119  1  0.88231471  0.71501537  0.62337108  1
  H  H120  1  0.11599283  0.11647016  0.37380748  1
  H  H121  1  0.14134619  0.44242050  0.40438887  1
  H  H122  1  0.12019279  0.78108896  0.37974416  1
  H  H123  1  0.58754307  0.11288073  0.39605978  1
  H  H124  1  0.63875864  0.44340901  0.39881113  1
  H  H125  1  0.61974191  0.77409635  0.39604409  1
  H  H126  1  0.38335041  0.21085449  0.87449529  1
  H  H127  1  0.37942592  0.55317533  0.87741495  1
  H  H128  1  0.36945981  0.89118898  0.90218635  1
  H  H129  1  0.88376172  0.21959206  0.88035034  1
  H  H130  1  0.87725220  0.55808126  0.89974929  1
  H  H131  1  0.87184039  0.89009204  0.89787854  1
  H  H132  1  0.36675068  0.10528422  0.09491350  1
  H  H133  1  0.36512991  0.44364776  0.09685748  1
  H  H134  1  0.36934671  0.77785015  0.09280133  1
  H  H135  1  0.86899805  0.10896314  0.10283694  1
  H  H136  1  0.86744544  0.44609925  0.10530436  1
  H  H137  1  0.87651106  0.78442890  0.11840716  1
  H  H138  1  0.12858648  0.22631137  0.59296160  1
  H  H139  1  0.12073349  0.55188011  0.61710085  1
  H  H140  1  0.12696420  0.88596885  0.60918758  1
  H  H141  1  0.62341869  0.21722406  0.62265677  1
  H  H142  1  0.61998565  0.55384692  0.61139441  1
  H  H143  1  0.63102489  0.89113112  0.59789856  1
  H  H144  1  0.60451753  0.25253509  0.49022113  1
  H  H145  1  0.02761898  0.25237933  -0.01043943  1
  H  H146  1  0.89442170  0.74784709  0.51488513  1
  H  H147  1  0.88224644  0.58624624  0.01856743  1
  H  H148  1  0.58895060  0.08155312  0.99469656  1
  H  H149  1  0.70456511  0.41366259  0.50428137  1
  H  H150  1  0.76187669  0.08104757  0.52796440  1
  H  H151  1  0.19993009  0.58462988  1.00292716  1
  H  H152  1  0.29081999  0.41814817  -0.00781581  1
  H  H153  1  0.42746244  0.58042011  0.50072333  1
  H  H154  1  0.80580282  0.07567085  -0.00197970  1
  H  H155  1  0.37129950  0.42428871  0.49300550  1
  H  H156  1  0.17886055  0.91772639  0.50196790  1
  H  H157  1  0.03543011  0.58534686  -0.00762013  1
  H  H158  1  0.44233788  0.41560621  1.00172978  1
  H  H159  1  0.80921010  0.41779325  0.00139630  1
  H  H160  1  0.05972918  0.24966413  0.50489285  1
  H  H161  1  0.20938315  0.41614437  0.51072833  1
  H  H162  1  0.60858408  0.91715642  1.01112682  1
  H  H163  1  0.70667575  0.92089127  0.49599520  1
  H  H164  1  0.85525577  0.75317470  0.00902139  1
  H  H165  1  0.09879810  0.58587533  0.49193928  1
  H  H166  1  0.21556848  0.24670761  1.00775842  1
  H  H167  1  0.60169674  0.58634313  0.00834620  1
  H  H168  1  0.20857912  0.25084464  0.49461804  1
  H  H169  1  0.13264760  0.42429394  1.01759343  1
  H  H170  1  0.88059690  0.25093729  0.01431340  1
  H  H171  1  0.30167344  0.08350994  0.50214890  1
  H  H172  1  0.47393001  0.08856088  0.47352107  1
  H  H173  1  0.66674898  0.74828835  0.50210886  1
  H  H174  1  0.29272471  0.75241179  -0.00667515  1
  H  H175  1  0.36905414  0.24606226  0.98749022  1
  H  H176  1  0.47886994  0.74930089  0.48802509  1
  H  H177  1  0.04722370  0.41676460  0.49506574  1
  H  H178  1  0.14048248  0.08919964  0.48943294  1
  H  H179  1  0.28835576  0.74551642  0.50610687  1
  H  H180  1  0.55643034  0.91965258  0.50318344  1
  H  H181  1  0.93317938  0.91116317  0.50244281  1
  H  H182  1  0.60317779  0.40964102  0.98935540  1
  H  H183  1  0.53822467  0.42049653  0.49120202  1
  H  H184  1  0.08774311  0.91532498  0.00536062  1
  H  H185  1  0.07798007  0.08438387  1.00027108  1
  H  H186  1  0.67067834  0.58521005  0.50475087  1
  H  H187  1  0.94265534  0.57591892  0.50770834  1
  H  H188  1  0.39594234  0.92296201  0.48650294  1
  H  H189  1  0.44112197  0.75860056  1.00452091  1
  H  H190  1  0.97173923  0.08754005  0.49411210  1
  H  H191  1  0.44824341  0.24180146  0.51118776  1
  Pb  Pb192  1  0.26313840  0.04959805  0.74555657  1
  Pb  Pb193  1  0.25578869  0.38499816  0.75105111  1
  Pb  Pb194  1  0.25762722  0.71771660  0.74973972  1
  Pb  Pb195  1  0.75907187  0.05236318  0.75520697  1
  Pb  Pb196  1  0.75234896  0.38045843  0.75008797  1
  Pb  Pb197  1  0.75758391  0.71631482  0.74624751  1
  Pb  Pb198  1  0.24811708  0.28146586  0.25337999  1
  Pb  Pb199  1  0.24513692  0.61668348  0.24055623  1
  Pb  Pb200  1  0.24587790  0.95277670  0.24662726  1
  Pb  Pb201  1  0.74346502  0.28443393  0.24676348  1
  Pb  Pb202  1  0.74958857  0.61948165  0.25701378  1
  Pb  Pb203  1  0.75140130  0.94974545  0.25427021  1
  Pb  Pb204  1  0.01047556  0.21826794  0.74555140  1
  Pb  Pb205  1  0.00127856  0.54901063  0.75597522  1
  Pb  Pb206  1  0.00737700  0.88420509  0.75306956  1
  Pb  Pb207  1  0.50556024  0.21523063  0.75281114  1
  Pb  Pb208  1  0.50793383  0.55012056  0.74769034  1
  Pb  Pb209  1  0.50689686  0.88484809  0.74674026  1
  Pb  Pb210  1  -0.01159915  0.11813226  0.26018183  1
  Pb  Pb211  1  -0.00262997  0.44997819  0.25614200  1
  Pb  Pb212  1  -0.00204240  0.78556554  0.25673983  1
  Pb  Pb213  1  0.49989479  0.11676737  0.23805090  1
  Pb  Pb214  1  0.49926223  0.45193668  0.24911881  1
  Pb  Pb215  1  0.49393954  0.78235947  0.24563818  1
  C  C216  1  0.00984198  0.04284296  0.63100834  1
  C  C217  1  -0.00875321  0.37838700  0.62885510  1
  C  C218  1  0.01019159  0.71244238  0.62554840  1
  C  C219  1  0.53424737  0.05122655  0.61248256  1
  C  C220  1  0.49398707  0.37854284  0.62670633  1
  C  C221  1  0.50086793  0.70982005  0.62818441  1
  C  C222  1  -0.00602832  0.28886505  0.12715242  1
  C  C223  1  0.00350812  0.62511377  0.13032358  1
  C  C224  1  0.00802884  0.95621181  0.12938424  1
  C  C225  1  0.49452418  0.28737055  0.13545193  1
  C  C226  1  0.49710927  0.62144460  0.12414626  1
  C  C227  1  0.49644008  0.95528951  0.12863773  1
  C  C228  1  0.00749043  0.04488673  0.86749613  1
  C  C229  1  0.00261031  0.37924909  0.86917145  1
  C  C230  1  0.00298237  0.71528335  0.87122574  1
  C  C231  1  0.50392809  0.04157686  0.87193456  1
  C  C232  1  0.50371083  0.37712109  0.86406558  1
  C  C233  1  0.50027268  0.71010993  0.86944642  1
  C  C234  1  -0.00153315  0.28807550  0.36677515  1
  C  C235  1  0.00207783  0.62233221  0.37252240  1
  C  C236  1  -0.00649943  0.95405528  0.36778721  1
  C  C237  1  0.49656699  0.28800927  0.37327666  1
  C  C238  1  0.50031124  0.62053358  0.36687820  1
  C  C239  1  0.49998840  0.95379931  0.36298654  1
  C  C240  1  0.24392660  0.21056214  0.63138849  1
  C  C241  1  0.24741818  0.54624383  0.63177429  1
  C  C242  1  0.25085343  0.87837325  0.63430786  1
  C  C243  1  0.75178879  0.21521168  0.62836831  1
  C  C244  1  0.74372912  0.54431975  0.63668862  1
  C  C245  1  0.74797686  0.87846514  0.63543598  1
  C  C246  1  0.24832976  0.11928043  0.13009202  1
  C  C247  1  0.24880617  0.45319129  0.13509926  1
  C  C248  1  0.25216022  0.79103550  0.12924679  1
  C  C249  1  0.74820428  0.12148239  0.13260153  1
  C  C250  1  0.74496754  0.45798480  0.13120607  1
  C  C251  1  0.74879263  0.79007090  0.12562509  1
  C  C252  1  0.25507118  0.20705931  0.87090884  1
  C  C253  1  0.25203239  0.54651993  0.86444866  1
  C  C254  1  0.25012361  0.87727574  0.86874228  1
  C  C255  1  0.75680681  0.21317812  0.86780991  1
  C  C256  1  0.75579409  0.54530942  0.87034732  1
  C  C257  1  0.75123672  0.87654725  0.86575446  1
  C  C258  1  0.24224856  0.12079705  0.36356938  1
  C  C259  1  0.26007417  0.45536481  0.37063395  1
  C  C260  1  0.24796707  0.78863651  0.37071077  1
  C  C261  1  0.71622916  0.11781377  0.39130918  1
  C  C262  1  0.75926127  0.45352298  0.36691429  1
  C  C263  1  0.74294670  0.78538126  0.37248335  1
  C  C264  1  0.18287189  0.43136241  0.04923747  1
  C  C265  1  0.47585535  0.40361635  0.96043794  1
  C  C266  1  0.59070292  0.07516480  0.52173280  1
  C  C267  1  0.65396885  0.08741514  0.47650657  1
  C  C268  1  0.94512446  0.26259186  0.45618276  1
  C  C269  1  0.47861584  0.92491105  0.03240937  1
  C  C270  1  0.46559644  0.59180509  0.46145381  1
  C  C271  1  0.07486291  0.07509875  0.54824534  1
  C  C272  1  0.27328630  0.57834614  0.53782442  1
  C  C273  1  0.73636959  0.42480299  0.46171581  1
  C  C274  1  0.55503236  0.74187079  0.95616704  1
  C  C275  1  0.44289859  0.93156925  0.45257207  1
  C  C276  1  0.18694739  0.09740665  0.45361725  1
  C  C277  1  0.57620509  0.73638545  0.54843891  1
  C  C278  1  0.97504803  0.58916576  0.46618398  1
  C  C279  1  0.23997405  0.42822879  0.46795650  1
  C  C280  1  0.26859721  0.09485895  0.46020983  1
  C  C281  1  0.80726958  0.23713291  0.95774513  1
  C  C282  1  0.70982940  0.57368345  0.54401830  1
  C  C283  1  0.47417764  0.74447422  0.96365278  1
  C  C284  1  0.44766707  0.26017705  0.04532146  1
  C  C285  1  0.54704272  0.59345149  0.45817923  1
  C  C286  1  0.55903767  0.92690288  0.04267756  1
  C  C287  1  0.78339686  0.57640948  0.96441448  1
  C  C288  1  0.02612580  0.26077520  0.46323192  1
  C  C289  1  0.47724301  0.25547001  0.46826683  1
  C  C290  1  0.21675701  0.90661037  0.54140289  1
  C  C291  1  0.47708657  0.58821839  0.02824115  1
  C  C292  1  0.94218375  0.74071899  0.95706098  1
  C  C293  1  0.31960488  0.23710603  0.95397263  1
  C  C294  1  0.77282316  0.08931833  0.03913301  1
  C  C295  1  0.23090779  0.57366838  0.95997703  1
  C  C296  1  0.93720841  0.40715890  0.53955115  1
  C  C297  1  0.78709355  0.75846932  0.46555764  1
  C  C298  1  0.93409409  0.59430490  0.04963657  1
  C  C299  1  0.96747630  0.92383306  0.46163145  1
  C  C300  1  0.02140808  0.74875777  0.52986391  1
  C  C301  1  0.43294502  0.41035944  0.54182969  1
  C  C302  1  0.97015807  0.41454756  0.96036584  1
  C  C303  1  0.50821085  0.07776873  0.51494759  1
  C  C304  1  0.55755983  0.40105717  0.95431941  1
  C  C305  1  0.73436530  0.90838996  0.53989675  1
  C  C306  1  0.26328641  0.42875940  0.03647404  1
  C  C307  1  0.04061435  0.07407851  0.96035409  1
  C  C308  1  0.26694223  0.08452524  0.03648475  1
  C  C309  1  0.52416247  0.92966291  0.46068308  1
  C  C310  1  0.69117968  0.24113582  0.54256041  1
  C  C311  1  0.32112688  0.43235284  0.45880270  1
  N  N312  1  0.99732449  0.07884011  0.53800927  1
  N  N313  1  0.94492232  0.74114268  0.54306809  1
  N  N314  1  0.19115784  0.75887110  0.04506213  1
  N  N315  1  0.50013875  0.74121119  0.53287765  1
  N  N316  1  0.70573925  0.57490003  0.96117620  1
  N  N317  1  0.18684114  0.75527696  0.45429772  1
  N  N318  1  0.24128149  0.24197825  0.96419766  1
  N  N319  1  0.19579383  0.57585806  0.54193038  1
  N  N320  1  0.77744632  0.90692508  0.96054787  1
  N  N321  1  0.47016283  0.07426926  0.96453511  1
  N  N322  1  0.73012568  0.23922141  0.96516217  1
  N  N323  1  0.81518936  0.42467324  0.45550218  1
  N  N324  1  0.30887494  0.24046824  0.54816425  1
  N  N325  1  0.04854513  0.92312352  0.04141935  1
  N  N326  1  0.70165079  0.90384712  0.95556892  1
  N  N327  1  0.96134597  0.07462437  0.95911977  1
  N  N328  1  0.04665846  0.92545849  0.45744464  1
  N  N329  1  0.04768990  0.41220491  0.95968085  1
  N  N330  1  0.76717116  0.24514262  0.53055034  1
  N  N331  1  0.78918345  0.57350001  0.54474703  1
  N  N332  1  0.77632223  0.42385340  0.04125840  1
  N  N333  1  0.23181629  0.24423951  0.53846193  1
  N  N334  1  0.01183633  0.58992684  0.03643653  1
  N  N335  1  0.73409521  0.08238250  0.48444999  1
  N  N336  1  0.26403058  0.75274292  0.46223284  1
  N  N337  1  0.01810382  0.74463478  0.96926251  1
  N  N338  1  0.92995957  0.26557289  0.04355889  1
  N  N339  1  0.29603923  0.90683682  0.54223008  1
  N  N340  1  0.05420635  0.59053536  0.45877611  1
  N  N341  1  0.51119103  0.41341040  0.53370688  1
  N  N342  1  0.26837190  0.75758745  0.03689464  1
  N  N343  1  0.27349173  0.90911343  0.96340272  1
  N  N344  1  0.70790537  0.75773302  0.46532750  1
  N  N345  1  0.69383360  0.09184708  0.04369572  1
  N  N346  1  0.19747646  0.90671050  0.95700222  1
  N  N347  1  0.97029089  0.92198755  0.03821690  1
  N  N348  1  0.55469032  0.59323611  0.03852295  1
  N  N349  1  0.00611993  0.25142378  0.03508404  1
  N  N350  1  0.80718026  0.76009345  0.04200992  1
  N  N351  1  0.01580210  0.40836871  0.53511579  1
  N  N352  1  0.18999521  0.08823485  0.04299407  1
  N  N353  1  0.73041308  0.75595420  0.03090333  1
  N  N354  1  0.55576768  0.25817011  0.45778872  1
  N  N355  1  0.30962780  0.57202546  0.95341052  1
  N  N356  1  0.52463247  0.26020134  0.03884295  1
  N  N357  1  0.81251956  0.90583959  0.54997397  1
  N  N358  1  0.54811571  0.07308506  0.95962662  1
  N  N359  1  0.69819507  0.42520277  0.04201582  1
  N  N360  1  0.08341925  0.05431472  0.60653531  1
  N  N361  1  0.05038099  0.38904110  0.58949190  1
  N  N362  1  0.06228136  0.73059844  0.58068033  1
  N  N363  1  0.60448560  0.05808414  0.58339753  1
  N  N364  1  0.54971871  0.39060280  0.58502429  1
  N  N365  1  0.57677068  0.71850042  0.60808045  1
  N  N366  1  0.42616768  0.27629498  0.10389125  1
  N  N367  1  0.44093918  0.60569551  0.08115131  1
  N  N368  1  0.44088896  0.94187062  0.08414622  1
  N  N369  1  0.92181314  0.28004110  0.10315201  1
  N  N370  1  0.92931956  0.61404992  0.10850129  1
  N  N371  1  0.94559288  0.94156417  0.09374782  1
  N  N372  1  0.44312917  0.05520854  0.90967179  1
  N  N373  1  0.44368304  0.38870647  0.90378156  1
  N  N374  1  0.44085773  0.72441444  0.90833813  1
  N  N375  1  0.94246408  0.05621070  0.90087798  1
  N  N376  1  0.94039995  0.39486504  0.90573171  1
  N  N377  1  0.93024236  0.72311588  0.89708377  1
  N  N378  1  0.05851278  0.27688448  0.40622814  1
  N  N379  1  0.07054991  0.61268258  0.40172545  1
  N  N380  1  0.06086879  0.94430766  0.39884953  1
  N  N381  1  0.56708358  0.27932353  0.39971969  1
  N  N382  1  0.56765123  0.61051292  0.40084329  1
  N  N383  1  0.55848194  0.94339913  0.40440648  1
  N  N384  1  0.31544920  0.22178093  0.60651759  1
  N  N385  1  0.30697208  0.56063103  0.59201675  1
  N  N386  1  0.31570735  0.88950768  0.60065816  1
  N  N387  1  0.80512194  0.22874487  0.58533460  1
  N  N388  1  0.80842339  0.55544926  0.60274672  1
  N  N389  1  0.81902393  0.88742645  0.60951795  1
  N  N390  1  0.17838562  0.10958147  0.10310437  1
  N  N391  1  0.17555626  0.44608225  0.11044627  1
  N  N392  1  0.18174104  0.77785353  0.10339226  1
  N  N393  1  0.68018415  0.11213578  0.10248383  1
  N  N394  1  0.67940273  0.44436858  0.09893027  1
  N  N395  1  0.69440589  0.77417161  0.08339661  1
  N  N396  1  0.20133214  0.22013694  0.91401620  1
  N  N397  1  0.19394290  0.55839806  0.90580394  1
  N  N398  1  0.18169195  0.88687539  0.89835288  1
  N  N399  1  0.69897141  0.22396143  0.90800225  1
  N  N400  1  0.68876333  0.55468673  0.90128195  1
  N  N401  1  0.68369646  0.88460176  0.89719249  1
  N  N402  1  0.30145362  0.10933191  0.40397070  1
  N  N403  1  0.33176414  0.44902966  0.39804118  1
  N  N404  1  0.30295494  0.77524044  0.41281873  1
  N  N405  1  0.77147387  0.10586113  0.43356461  1
  N  N406  1  0.82762466  0.44258364  0.39629274  1
  N  N407  1  0.80881232  0.77535130  0.40785729  1
  N  N408  1  0.43995449  0.27363252  0.41575794  1
  N  N409  1  0.43760874  0.60860094  0.40339061  1
  N  N410  1  0.42941150  0.94633712  0.39185011  1
  N  N411  1  0.92889056  0.27877376  0.39800335  1
  N  N412  1  0.94235111  0.60785955  0.41226867  1
  N  N413  1  0.93346253  0.94116701  0.40703207  1
  N  N414  1  0.07049590  0.05670979  0.90428022  1
  N  N415  1  0.06821714  0.39059705  0.90156000  1
  N  N416  1  0.05624714  0.72835375  0.91442367  1
  N  N417  1  0.57011322  0.05216779  0.90393468  1
  N  N418  1  0.57319533  0.38486342  0.89437451  1
  N  N419  1  0.57032248  0.72143180  0.89927503  1
  N  N420  1  0.04681735  0.27507343  0.08334964  1
  N  N421  1  0.05467063  0.61254055  0.08520683  1
  N  N422  1  0.07289518  0.94569294  0.09582369  1
  N  N423  1  0.55395380  0.27759588  0.09632748  1
  N  N424  1  0.56764938  0.61438922  0.09742225  1
  N  N425  1  0.56853040  0.94576769  0.10363733  1
  N  N426  1  0.47559943  0.06267891  0.57147657  1
  N  N427  1  0.42184119  0.39003950  0.60005632  1
  N  N428  1  0.45271321  0.72177231  0.58118448  1
  N  N429  1  0.95654251  0.05549101  0.58769351  1
  N  N430  1  0.92162803  0.38928963  0.59780828  1
  N  N431  1  0.93765320  0.71767005  0.60169893  1
  N  N432  1  0.17207488  0.11336071  0.39321095  1
  N  N433  1  0.20328546  0.44259827  0.41264123  1
  N  N434  1  0.17752575  0.77595163  0.39663337  1
  N  N435  1  0.64395795  0.10673180  0.41686465  1
  N  N436  1  0.70055374  0.44239734  0.40781473  1
  N  N437  1  0.68017198  0.77505303  0.40812089  1
  N  N438  1  0.32811043  0.21735741  0.89540212  1
  N  N439  1  0.32081669  0.55523866  0.89392318  1
  N  N440  1  0.30748206  0.89105693  0.90894131  1
  N  N441  1  0.82646412  0.22200088  0.89820367  1
  N  N442  1  0.81617896  0.55903438  0.90957580  1
  N  N443  1  0.80980407  0.89015949  0.90492478  1
  N  N444  1  0.30496991  0.10350934  0.08824909  1
  N  N445  1  0.30311151  0.44242505  0.09044580  1
  N  N446  1  0.30729166  0.77961278  0.08671966  1
  N  N447  1  0.80756626  0.10719661  0.09322362  1
  N  N448  1  0.80623194  0.44629477  0.09427685  1
  N  N449  1  0.81946621  0.78144782  0.09923039  1
  N  N450  1  0.19073652  0.22340452  0.58778882  1
  N  N451  1  0.17973522  0.55581634  0.60165107  1
  N  N452  1  0.18767442  0.88960774  0.59765020  1
  N  N453  1  0.67913139  0.22329016  0.60235302  1
  N  N454  1  0.68056408  0.55616647  0.60022020  1
  N  N455  1  0.69327356  0.89215206  0.59205705  1
  Cl  Cl456  1  0.28409726  0.06020080  0.61205129  1
  Cl  Cl457  1  0.23483375  0.38845290  0.61606582  1
  Cl  Cl458  1  0.26678977  0.72813684  0.60113721  1
  Cl  Cl459  1  0.78131970  0.06796679  0.61790762  1
  Cl  Cl460  1  0.73262392  0.39246779  0.61520807  1
  Cl  Cl461  1  0.75636687  0.72427909  0.61135135  1
  Cl  Cl462  1  0.22991912  0.26488003  0.10641948  1
  Cl  Cl463  1  0.24395057  0.60839191  0.10420526  1
  Cl  Cl464  1  0.25662261  0.94611397  0.11422456  1
  Cl  Cl465  1  0.73970872  0.28231217  0.11492749  1
  Cl  Cl466  1  0.74759832  0.61379355  0.12451444  1
  Cl  Cl467  1  0.76129163  0.94325917  0.12459430  1
  Cl  Cl468  1  0.25873799  0.05707201  0.88057874  1
  Cl  Cl469  1  0.25658215  0.38405583  0.88478205  1
  Cl  Cl470  1  0.25189020  0.72758066  0.88968231  1
  Cl  Cl471  1  0.75416685  0.05669320  0.88757499  1
  Cl  Cl472  1  0.76071286  0.39303510  0.88613653  1
  Cl  Cl473  1  0.75121472  0.71061144  0.87354712  1
  Cl  Cl474  1  0.24763353  0.27341203  0.39126998  1
  Cl  Cl475  1  0.25200681  0.61177553  0.37323694  1
  Cl  Cl476  1  0.24430424  0.94285435  0.37833186  1
  Cl  Cl477  1  0.74653985  0.27975395  0.37691733  1
  Cl  Cl478  1  0.75498406  0.61646194  0.38932762  1
  Cl  Cl479  1  0.74449489  0.94671406  0.39110750  1
  Cl  Cl480  1  0.00354626  0.22575782  0.61019033  1
  Cl  Cl481  1  -0.00457600  0.55303292  0.61897239  1
  Cl  Cl482  1  0.00414082  0.88219377  0.62003690  1
  Cl  Cl483  1  0.49748509  0.21914057  0.61697198  1
  Cl  Cl484  1  0.49312036  0.55440228  0.61376233  1
  Cl  Cl485  1  0.50634006  0.88799118  0.61105183  1
  Cl  Cl486  1  -0.00659366  0.11481855  0.12765662  1
  Cl  Cl487  1  -0.01318747  0.44635763  0.12436681  1
  Cl  Cl488  1  -0.00056893  0.78118934  0.12752026  1
  Cl  Cl489  1  0.49352479  0.11011083  0.10779264  1
  Cl  Cl490  1  0.49061834  0.44644986  0.11504087  1
  Cl  Cl491  1  0.49547953  0.77490668  0.11071163  1
  Cl  Cl492  1  0.01873538  0.23534487  0.89360088  1
  Cl  Cl493  1  0.00593475  0.56178520  0.89525089  1
  Cl  Cl494  1  -0.00356946  0.89052888  0.88657060  1
  Cl  Cl495  1  0.51421649  0.21782910  0.88077443  1
  Cl  Cl496  1  0.50576991  0.56055201  0.88098795  1
  Cl  Cl497  1  0.49528552  0.89021775  0.88104613  1
  Cl  Cl498  1  -0.04523877  0.10654940  0.40468208  1
  Cl  Cl499  1  0.01885802  0.44104091  0.39391315  1
  Cl  Cl500  1  -0.00860345  0.77415663  0.39125537  1
  Cl  Cl501  1  0.47656357  0.12113557  0.37232315  1
  Cl  Cl502  1  0.51821788  0.43985909  0.39013163  1
  Cl  Cl503  1  0.48788718  0.76942330  0.39588684  1
  Cl  Cl504  1  0.36366190  0.15178172  0.75137265  1
  Cl  Cl505  1  0.35904918  0.48082950  0.75186133  1
  Cl  Cl506  1  0.35747353  0.81497706  0.74654796  1
  Cl  Cl507  1  0.86231248  0.14898142  0.76055471  1
  Cl  Cl508  1  0.86310017  0.48154402  0.74365345  1
  Cl  Cl509  1  0.85990626  0.81365039  0.74564559  1
  Cl  Cl510  1  0.12780108  0.18669697  0.25769238  1
  Cl  Cl511  1  0.13574305  0.51745583  0.24750441  1
  Cl  Cl512  1  0.13724922  0.85047378  0.24931207  1
  Cl  Cl513  1  0.63722411  0.18060956  0.26049858  1
  Cl  Cl514  1  0.64018206  0.51650037  0.24955286  1
  Cl  Cl515  1  0.64152324  0.84985975  0.25115687  1
  Cl  Cl516  1  0.14078345  0.14571406  0.75213620  1
  Cl  Cl517  1  0.13809285  0.48249899  0.74884942  1
  Cl  Cl518  1  0.13689999  0.81260922  0.75529238  1
  Cl  Cl519  1  0.64026100  0.14713520  0.73685111  1
  Cl  Cl520  1  0.64246197  0.48217118  0.76257805  1
  Cl  Cl521  1  0.63646533  0.81075912  0.75205421  1
  Cl  Cl522  1  0.35176005  0.18733357  0.24371164  1
  Cl  Cl523  1  0.35951794  0.51702598  0.25242242  1
  Cl  Cl524  1  0.35916317  0.85119326  0.25400436  1
  Cl  Cl525  1  0.85596112  0.18463369  0.25068922  1
  Cl  Cl526  1  0.86240210  0.51980487  0.25622951  1
  Cl  Cl527  1  0.85926292  0.84934911  0.25689421  1
  Cl  Cl528  1  0.10868376  0.31355368  0.75036787  1
  Cl  Cl529  1  0.10803112  0.64967697  0.74974190  1
  Cl  Cl530  1  0.11274561  0.98079977  0.74596838  1
  Cl  Cl531  1  0.60880203  0.31906066  0.74708787  1
  Cl  Cl532  1  0.61066276  0.64596331  0.74312010  1
  Cl  Cl533  1  0.61479198  0.97949552  0.74232859  1
  Cl  Cl534  1  0.38582667  0.01769126  0.25129750  1
  Cl  Cl535  1  0.38270930  0.35259298  0.25593132  1
  Cl  Cl536  1  0.39546542  0.68370797  0.24551993  1
  Cl  Cl537  1  0.89225193  0.01275020  0.24664783  1
  Cl  Cl538  1  0.88061351  0.35266859  0.25203448  1
  Cl  Cl539  1  0.88894180  0.68381940  0.24698405  1
  Cl  Cl540  1  0.38797628  0.31324045  0.74078845  1
  Cl  Cl541  1  0.38974021  0.64794662  0.75132999  1
  Cl  Cl542  1  0.39951219  0.98751874  0.74658488  1
  Cl  Cl543  1  0.89106357  0.31413653  0.75135465  1
  Cl  Cl544  1  0.88991970  0.64933622  0.74474589  1
  Cl  Cl545  1  0.89113075  0.98245851  0.74708407  1
  Cl  Cl546  1  0.11126454  0.02364328  0.25923206  1
  Cl  Cl547  1  0.10336598  0.35014117  0.24207902  1
  Cl  Cl548  1  0.10954559  0.68408387  0.25651940  1
  Cl  Cl549  1  0.60546029  0.01938971  0.24231017  1
  Cl  Cl550  1  0.60293398  0.34736573  0.25150987  1
  Cl  Cl551  1  0.61138965  0.68547707  0.25563646  1
