# generated using pymatgen
data_H8PbC4(N3Cl2)2
_symmetry_space_group_name_H-M   'P 1'
_cell_length_a   16.63131250
_cell_length_b   22.52195396
_cell_length_c   21.59554661
_cell_angle_alpha   90.00102372
_cell_angle_beta   89.99690591
_cell_angle_gamma   89.99250071
_symmetry_Int_Tables_number   1
_chemical_formula_structural   H8PbC4(N3Cl2)2
_chemical_formula_sum   'H192 Pb24 C96 N144 Cl96'
_cell_volume   8089.03635151
_cell_formula_units_Z   24
loop_
 _symmetry_equiv_pos_site_id
 _symmetry_equiv_pos_as_xyz
  1  'x, y, z'
loop_
 _atom_site_type_symbol
 _atom_site_label
 _atom_site_symmetry_multiplicity
 _atom_site_fract_x
 _atom_site_fract_y
 _atom_site_fract_z
 _atom_site_occupancy
  H  H0  1  0.01387395  0.02962045  0.67916845  1
  H  H1  1  0.00696348  0.36431193  0.67962240  1
  H  H2  1  -0.00258836  0.69309699  0.67519738  1
  H  H3  1  0.49029292  0.03017154  0.67660203  1
  H  H4  1  0.50585841  0.36429896  0.68147942  1
  H  H5  1  0.50281273  0.69580968  0.67175805  1
  H  H6  1  0.01505730  0.30522389  0.18009926  1
  H  H7  1  -0.01741939  0.63986839  0.18184468  1
  H  H8  1  -0.00146039  0.97693204  0.17224025  1
  H  H9  1  0.49304662  0.30767560  0.17818258  1
  H  H10  1  0.48192025  0.62992646  0.15724396  1
  H  H11  1  0.49060203  0.96840832  0.18000648  1
  H  H12  1  -0.00175873  0.02750237  0.82233759  1
  H  H13  1  0.00677527  0.36142684  0.82135778  1
  H  H14  1  -0.00449806  0.69880304  0.82243025  1
  H  H15  1  0.49938165  0.02887040  0.81853410  1
  H  H16  1  0.51225031  0.36532318  0.82154419  1
  H  H17  1  0.50655243  0.69779432  0.81743271  1
  H  H18  1  -0.00419149  0.30555864  0.32130768  1
  H  H19  1  0.01275672  0.63165674  0.32387444  1
  H  H20  1  -0.01186841  0.96892120  0.31974026  1
  H  H21  1  0.49274166  0.30493890  0.32266023  1
  H  H22  1  0.49130062  0.63585441  0.31955441  1
  H  H23  1  0.51881890  0.97288821  0.32088729  1
  H  H24  1  0.25857219  0.19420756  0.68027220  1
  H  H25  1  0.25597144  0.53064578  0.68019394  1
  H  H26  1  0.25965746  0.86332710  0.67719979  1
  H  H27  1  0.74026468  0.19230871  0.68117619  1
  H  H28  1  0.73875630  0.52977926  0.67334429  1
  H  H29  1  0.74955254  0.86225877  0.68136620  1
  H  H30  1  0.26625179  0.13592734  0.18028506  1
  H  H31  1  0.24432809  0.47102469  0.17926660  1
  H  H32  1  0.26293945  0.80719342  0.17674592  1
  H  H33  1  0.73301575  0.13887919  0.17547323  1
  H  H34  1  0.73743297  0.46651279  0.17773394  1
  H  H35  1  0.73443294  0.80499518  0.18128476  1
  H  H36  1  0.25748516  0.19774012  0.81794841  1
  H  H37  1  0.26709069  0.53102994  0.84873780  1
  H  H38  1  0.25024191  0.86187502  0.81976845  1
  H  H39  1  0.75517869  0.19519003  0.82508684  1
  H  H40  1  0.76476026  0.52727363  0.81874144  1
  H  H41  1  0.75139272  0.86149971  0.82766751  1
  H  H42  1  0.25549051  0.13824601  0.32024162  1
  H  H43  1  0.25896962  0.47307175  0.32425307  1
  H  H44  1  0.25259839  0.80509989  0.32680707  1
  H  H45  1  0.75414999  0.14098001  0.32463843  1
  H  H46  1  0.74534693  0.47169946  0.31818489  1
  H  H47  1  0.74686946  0.80434882  0.32647380  1
  H  H48  1  0.12464270  0.05641923  0.59681030  1
  H  H49  1  0.12211513  0.39111854  0.60275609  1
  H  H50  1  0.13750096  0.71289562  0.62394439  1
  H  H51  1  0.62294199  0.04890464  0.61710234  1
  H  H52  1  0.61681917  0.39207624  0.60145500  1
  H  H53  1  0.63921697  0.71859904  0.61642826  1
  H  H54  1  0.38480389  0.27926232  0.09703891  1
  H  H55  1  0.34366308  0.61167278  0.10579025  1
  H  H56  1  0.38117558  0.93979472  0.09936472  1
  H  H57  1  0.88302820  0.28082527  0.11696674  1
  H  H58  1  0.86551521  0.61538369  0.10314050  1
  H  H59  1  0.88322860  0.94351004  0.09925437  1
  H  H60  1  0.37523874  0.05647098  0.88647682  1
  H  H61  1  0.37642329  0.38467550  0.87657731  1
  H  H62  1  0.36937325  0.71571127  0.87324495  1
  H  H63  1  0.87497065  0.05478853  0.89449599  1
  H  H64  1  0.87253788  0.38454237  0.88247509  1
  H  H65  1  0.87456451  0.72403921  0.89236958  1
  H  H66  1  0.13096664  0.28632830  0.37906562  1
  H  H67  1  0.11660497  0.60423685  0.41038236  1
  H  H68  1  0.12900243  0.95162608  0.36875589  1
  H  H69  1  0.63405848  0.28319489  0.37276049  1
  H  H70  1  0.62663747  0.61693107  0.37837292  1
  H  H71  1  0.63612418  0.94482458  0.39820755  1
  H  H72  1  0.36511980  0.22089369  0.59643528  1
  H  H73  1  0.36893986  0.55326499  0.60150276  1
  H  H74  1  0.37062370  0.89141742  0.59610180  1
  H  H75  1  0.86386221  0.21984521  0.61013205  1
  H  H76  1  0.87878478  0.54983938  0.61936668  1
  H  H77  1  0.86496287  0.88904444  0.60436630  1
  H  H78  1  0.12608647  0.11545996  0.12620447  1
  H  H79  1  0.13046647  0.44240906  0.10155714  1
  H  H80  1  0.12817860  0.78429927  0.11795890  1
  H  H81  1  0.63116123  0.10925186  0.08946547  1
  H  H82  1  0.62768035  0.44033602  0.09718840  1
  H  H83  1  0.63170884  0.77392043  0.09699453  1
  H  H84  1  0.11930421  0.21873095  0.87515425  1
  H  H85  1  0.16452470  0.56936546  0.93000686  1
  H  H86  1  0.11715740  0.88473008  0.88417626  1
  H  H87  1  0.62088089  0.21989298  0.88384973  1
  H  H88  1  0.63406742  0.55045357  0.88063084  1
  H  H89  1  0.61876520  0.88722250  0.88842669  1
  H  H90  1  0.37636762  0.11163380  0.39388798  1
  H  H91  1  0.37794053  0.44432477  0.39768026  1
  H  H92  1  0.36038227  0.77229017  0.40736967  1
  H  H93  1  0.87348662  0.11120541  0.39829327  1
  H  H94  1  0.88000238  0.44922214  0.37582447  1
  H  H95  1  0.85521981  0.77368100  0.40896511  1
  H  H96  1  0.38947911  0.27366194  0.40708593  1
  H  H97  1  0.37884280  0.61062871  0.39748672  1
  H  H98  1  0.38809644  0.94872423  0.38656132  1
  H  H99  1  0.88353440  0.27685596  0.39878663  1
  H  H100  1  0.87201666  0.61452684  0.37620209  1
  H  H101  1  0.88513334  0.94288120  0.40446760  1
  H  H102  1  0.12318869  0.05413445  0.89327741  1
  H  H103  1  0.12051924  0.39324762  0.89807159  1
  H  H104  1  0.12346013  0.71956896  0.88893100  1
  H  H105  1  0.62290838  0.05031935  0.89033230  1
  H  H106  1  0.62260125  0.39119575  0.90188303  1
  H  H107  1  0.61653542  0.72218931  0.89784945  1
  H  H108  1  0.13112043  0.27920149  0.10293846  1
  H  H109  1  0.11269167  0.61228515  0.12167990  1
  H  H110  1  0.13091480  0.94816693  0.11228910  1
  H  H111  1  0.63121997  0.28353518  0.12327824  1
  H  H112  1  0.58826705  0.60084856  0.07577961  1
  H  H113  1  0.62813608  0.94980414  0.12122768  1
  H  H114  1  0.37537431  0.05471173  0.59912467  1
  H  H115  1  0.36900141  0.38416676  0.62106202  1
  H  H116  1  0.39356615  0.72720827  0.59178060  1
  H  H117  1  0.87833130  0.05093818  0.62009815  1
  H  H118  1  0.87416583  0.38601327  0.61639855  1
  H  H119  1  0.89350791  0.72703883  0.59200343  1
  H  H120  1  0.12822687  0.11236516  0.38950178  1
  H  H121  1  0.12914997  0.44797771  0.38922642  1
  H  H122  1  0.11518330  0.78456801  0.38360005  1
  H  H123  1  0.62489004  0.11342831  0.38713974  1
  H  H124  1  0.63191539  0.44783533  0.39659942  1
  H  H125  1  0.61002130  0.77777162  0.38192938  1
  H  H126  1  0.36557371  0.22530747  0.89980153  1
  H  H127  1  0.40757994  0.55235104  0.89723777  1
  H  H128  1  0.36481380  0.89093085  0.89857979  1
  H  H129  1  0.86703083  0.22603281  0.90451249  1
  H  H130  1  0.88230606  0.55196343  0.89715128  1
  H  H131  1  0.86641195  0.89359294  0.90224603  1
  H  H132  1  0.37159340  0.10617800  0.09636912  1
  H  H133  1  0.37837033  0.44819469  0.11790711  1
  H  H134  1  0.37536098  0.77569996  0.10002462  1
  H  H135  1  0.87394284  0.11278078  0.12885837  1
  H  H136  1  0.87370530  0.44947052  0.12278394  1
  H  H137  1  0.87612145  0.78784282  0.12809373  1
  H  H138  1  0.11918627  0.21725060  0.62570556  1
  H  H139  1  0.12127906  0.54861380  0.62082108  1
  H  H140  1  0.12445266  0.88623336  0.61818194  1
  H  H141  1  0.61482802  0.21762542  0.61177107  1
  H  H142  1  0.63441773  0.56079766  0.58816263  1
  H  H143  1  0.61656772  0.88470670  0.61804169  1
  H  H144  1  0.10602576  0.25667769  0.49220567  1
  H  H145  1  0.54768240  0.42316910  0.49710707  1
  H  H146  1  0.60767600  0.25910323  0.01394403  1
  H  H147  1  0.66042067  0.24898150  0.50337596  1
  H  H148  1  0.29160741  0.25286162  0.49468383  1
  H  H149  1  0.45395762  0.25189334  -0.00849435  1
  H  H150  1  0.13839048  0.74739259  0.49198917  1
  H  H151  1  0.39840949  0.41444421  -0.00856910  1
  H  H152  1  0.85292800  0.41613020  1.00872988  1
  H  H153  1  0.59573754  0.07870980  0.50276856  1
  H  H154  1  0.70895782  0.74642694  -0.00495064  1
  H  H155  1  0.29418092  0.25639233  1.00297646  1
  H  H156  1  0.69374976  0.42008965  0.50464464  1
  H  H157  1  0.79823619  0.25343488  1.00489678  1
  H  H158  1  0.95949019  0.91473173  0.50841098  1
  H  H159  1  0.56343264  0.05554690  0.99652500  1
  H  H160  1  0.65378456  0.91799605  0.99568253  1
  H  H161  1  0.15751756  0.75209546  0.01111842  1
  H  H162  1  0.28588363  0.75338605  0.50960309  1
  H  H163  1  0.07808831  0.57809747  0.01031648  1
  H  H164  1  0.81726024  0.08092314  0.50028601  1
  H  H165  1  0.11752242  0.92207212  0.48304324  1
  H  H166  1  0.93044045  0.60686567  -0.00240316  1
  H  H167  1  0.30729736  0.57895551  0.49255947  1
  H  H168  1  0.80117780  0.92069104  0.49842426  1
  H  H169  1  0.44140772  0.58126721  0.50538733  1
  H  H170  1  0.05358627  0.08453252  0.49762471  1
  H  H171  1  0.96988193  0.75045827  0.49132940  1
  H  H172  1  0.38973910  0.74448442  0.98735569  1
  H  H173  1  0.23864345  0.59149737  1.03125466  1
  H  H174  1  0.29561396  0.07340773  -0.00424457  1
  H  H175  1  0.66876812  0.57570685  0.99461665  1
  H  H176  1  0.94581942  0.25002089  0.50663732  1
  H  H177  1  0.81955528  0.55764143  1.00274849  1
  H  H178  1  0.45004981  0.91046523  -0.00473910  1
  H  H179  1  0.78064973  0.74644477  0.50890936  1
  H  H180  1  0.92165834  0.75578765  0.00191408  1
  H  H181  1  0.55014419  0.74801434  1.00547640  1
  H  H182  1  0.85387688  0.41999575  0.48895018  1
  H  H183  1  0.46856154  0.24680776  0.50594609  1
  H  H184  1  0.43388317  0.10990184  0.97691638  1
  H  H185  1  0.07073189  0.24685096  -0.00160578  1
  H  H186  1  0.09491397  0.91479455  0.00640851  1
  H  H187  1  0.85740977  0.58022718  0.50936202  1
  H  H188  1  0.71218479  0.08211070  -0.00801008  1
  H  H189  1  0.30078528  0.92630238  0.49837159  1
  H  H190  1  0.46388456  0.75093178  0.48943148  1
  H  H191  1  0.52242220  0.57296901  -0.02998974  1
  Pb  Pb192  1  0.24176707  0.04986737  0.74946031  1
  Pb  Pb193  1  0.23952462  0.38622787  0.75491601  1
  Pb  Pb194  1  0.24868030  0.71396334  0.74558805  1
  Pb  Pb195  1  0.74545554  0.04841098  0.75258353  1
  Pb  Pb196  1  0.74589469  0.38323130  0.74829345  1
  Pb  Pb197  1  0.74395447  0.71705256  0.74930173  1
  Pb  Pb198  1  0.25475395  0.28623775  0.24832489  1
  Pb  Pb199  1  0.25202257  0.61908108  0.26068730  1
  Pb  Pb200  1  0.25450219  0.95142759  0.25187414  1
  Pb  Pb201  1  0.75677465  0.28453995  0.24850276  1
  Pb  Pb202  1  0.74909494  0.61977180  0.23318437  1
  Pb  Pb203  1  0.75434341  0.95243692  0.25271074  1
  Pb  Pb204  1  -0.01082561  0.21656914  0.75226151  1
  Pb  Pb205  1  -0.00303629  0.55065089  0.76763773  1
  Pb  Pb206  1  -0.00551297  0.88040688  0.75172269  1
  Pb  Pb207  1  0.48917347  0.21892754  0.74655165  1
  Pb  Pb208  1  0.49729007  0.54713686  0.73433123  1
  Pb  Pb209  1  0.49144018  0.88356657  0.75131662  1
  Pb  Pb210  1  0.00324844  0.11932289  0.25999751  1
  Pb  Pb211  1  0.00488171  0.45314146  0.24378725  1
  Pb  Pb212  1  -0.00023735  0.78578085  0.25933672  1
  Pb  Pb213  1  0.50280052  0.11842722  0.23995862  1
  Pb  Pb214  1  0.50464569  0.45240673  0.25227393  1
  Pb  Pb215  1  0.49975236  0.78406414  0.24789644  1
  C  C216  1  0.00595340  0.04507866  0.63204679  1
  C  C217  1  0.00065095  0.37983101  0.63252991  1
  C  C218  1  0.00948096  0.70925712  0.62873269  1
  C  C219  1  0.49698183  0.04447195  0.62901868  1
  C  C220  1  0.49694600  0.37956672  0.63430726  1
  C  C221  1  0.51177450  0.71197943  0.62495583  1
  C  C222  1  0.00951467  0.28902152  0.13301705  1
  C  C223  1  -0.01388987  0.62425969  0.13427088  1
  C  C224  1  0.00466201  0.95764959  0.12655994  1
  C  C225  1  0.50387298  0.29155845  0.13143367  1
  C  C226  1  0.47095331  0.61423188  0.11033945  1
  C  C227  1  0.50031853  0.95314484  0.13287140  1
  C  C228  1  -0.00118164  0.04460771  0.86924022  1
  C  C229  1  -0.00038888  0.37903367  0.86756084  1
  C  C230  1  -0.00264586  0.71424923  0.86995066  1
  C  C231  1  0.49932124  0.04493663  0.86591132  1
  C  C232  1  0.50287336  0.37986182  0.86882739  1
  C  C233  1  0.49692961  0.71213934  0.86495201  1
  C  C234  1  0.00377859  0.28997868  0.36852968  1
  C  C235  1  0.00066472  0.61713405  0.37075111  1
  C  C236  1  0.00149467  0.95456724  0.36669566  1
  C  C237  1  0.50528412  0.28886328  0.36902414  1
  C  C238  1  0.49874973  0.62140424  0.36697919  1
  C  C239  1  0.51442267  0.95649197  0.36804260  1
  C  C240  1  0.24730469  0.21030075  0.63374959  1
  C  C241  1  0.24907378  0.54426623  0.63238847  1
  C  C242  1  0.25173016  0.88098227  0.63085111  1
  C  C243  1  0.73961749  0.20964533  0.63436111  1
  C  C244  1  0.75097928  0.54648671  0.62717254  1
  C  C245  1  0.74356483  0.87838621  0.63428306  1
  C  C246  1  0.25454348  0.11980288  0.13384344  1
  C  C247  1  0.25147956  0.45434460  0.13272929  1
  C  C248  1  0.25495618  0.78970655  0.13032567  1
  C  C249  1  0.74612151  0.12187956  0.12978738  1
  C  C250  1  0.74725974  0.45180690  0.13058446  1
  C  C251  1  0.74780123  0.78935939  0.13481004  1
  C  C252  1  0.24704034  0.21339249  0.86479343  1
  C  C253  1  0.27923116  0.54923192  0.89441558  1
  C  C254  1  0.24415420  0.87763077  0.86703747  1
  C  C255  1  0.74786929  0.21283686  0.87145597  1
  C  C256  1  0.76124503  0.54197723  0.86663188  1
  C  C257  1  0.74496298  0.87965253  0.87386426  1
  C  C258  1  0.25317258  0.12161083  0.36737627  1
  C  C259  1  0.25518134  0.45572220  0.37081708  1
  C  C260  1  0.24234443  0.78777629  0.37320256  1
  C  C261  1  0.75145654  0.12253719  0.37092849  1
  C  C262  1  0.75270446  0.45617744  0.36549230  1
  C  C263  1  0.73758730  0.78662823  0.37270147  1
  C  C264  1  0.26835709  0.08770970  0.03911586  1
  C  C265  1  0.70212826  0.08990749  0.46050687  1
  C  C266  1  0.57121627  0.25932467  0.45260801  1
  C  C267  1  0.43809598  0.73582731  0.95360882  1
  C  C268  1  0.48051066  0.92361489  0.03777712  1
  C  C269  1  0.94053953  0.59228896  0.45685727  1
  C  C270  1  0.28217352  0.75695139  0.03511108  1
  C  C271  1  0.80779928  0.42979197  0.45453988  1
  C  C272  1  0.03616573  0.25880690  0.03924551  1
  C  C273  1  0.06735242  0.93021817  0.45184428  1
  C  C274  1  0.72420002  0.42179155  0.03492360  1
  C  C275  1  0.52681566  0.40829030  0.96489500  1
  C  C276  1  0.73580229  0.75946337  0.03906297  1
  C  C277  1  0.02773729  0.41062997  0.53866488  1
  C  C278  1  0.77553669  0.91516852  0.96716100  1
  C  C279  1  0.96182153  0.74381266  0.96426935  1
  C  C280  1  0.19352214  0.56741584  0.54289433  1
  C  C281  1  0.28574649  0.42148642  0.46238927  1
  C  C282  1  0.26358241  0.24120996  0.53875275  1
  C  C283  1  0.48273404  0.26234349  0.03544038  1
  C  C284  1  0.02473950  0.41322958  0.96045852  1
  C  C285  1  0.55469149  0.59621664  0.45562149  1
  C  C286  1  0.49110784  0.58501635  0.01258187  1
  C  C287  1  0.80507764  0.42474593  0.04222578  1
  C  C288  1  0.47401017  0.59335669  0.46366249  1
  C  C289  1  0.51760799  0.40941253  0.53954493  1
  C  C290  1  0.07371140  0.73513868  0.54311542  1
  C  C291  1  0.05978255  0.26522864  0.45761517  1
  C  C292  1  0.34424182  0.57843724  0.97870228  1
  C  C293  1  0.44588957  0.40586291  0.95783936  1
  C  C294  1  0.97828418  0.26195306  0.46474721  1
  C  C295  1  0.81280527  0.08757145  0.04828225  1
  C  C296  1  0.70149228  0.23878504  0.54244441  1
  C  C297  1  0.98697807  0.92684726  0.46448956  1
  C  C298  1  0.26471714  0.24328206  0.95998388  1
  C  C299  1  0.27419647  0.56925002  0.53477423  1
  C  C300  1  0.54911993  0.06996386  0.53791868  1
  C  C301  1  0.46784356  0.07193522  0.53346991  1
  C  C302  1  0.22610825  0.42173113  0.03915215  1
  C  C303  1  0.71073275  0.56678594  0.95704418  1
  C  C304  1  0.72624739  0.42988291  0.46214067  1
  C  C305  1  0.97338676  0.91972748  0.03459408  1
  C  C306  1  0.03658053  0.59394188  0.04564596  1
  C  C307  1  0.04333887  0.74161769  0.96160624  1
  C  C308  1  0.40925220  0.58936814  0.02231083  1
  C  C309  1  0.51938202  0.73764579  0.96240119  1
  C  C310  1  0.57160726  0.74117820  0.53806657  1
  C  C311  1  0.76891492  0.90872070  0.54053118  1
  N  N312  1  0.81356765  0.76408517  0.04931897  1
  N  N313  1  0.53987884  0.07425162  0.95706707  1
  N  N314  1  0.75490472  0.75345989  0.46545187  1
  N  N315  1  0.18501940  0.76248643  0.45895629  1
  N  N316  1  0.73223381  0.57769362  0.53143315  1
  N  N317  1  0.95723687  0.59792809  0.03933788  1
  N  N318  1  0.79048094  0.56633460  0.96191782  1
  N  N319  1  0.30325550  0.42450739  0.04316241  1
  N  N320  1  0.56117203  0.26356148  0.04579941  1
  N  N321  1  0.27097719  0.90704771  0.96211867  1
  N  N322  1  0.76936566  0.24685668  0.96316997  1
  N  N323  1  0.55922874  0.92717720  0.04472634  1
  N  N324  1  0.19038535  0.09105094  0.04865730  1
  N  N325  1  0.96150377  0.07556572  0.96174328  1
  N  N326  1  0.45728242  0.07199123  0.95751633  1
  N  N327  1  0.46802924  0.92716298  0.45859179  1
  N  N328  1  0.69701788  0.91114355  0.96177498  1
  N  N329  1  0.26475261  0.58607200  0.98763781  1
  N  N330  1  0.95715786  0.25889593  0.04358506  1
  N  N331  1  0.20375131  0.75971926  0.04279740  1
  N  N332  1  0.28796949  0.09138408  0.46068647  1
  N  N333  1  0.49315389  0.74330709  0.53083398  1
  N  N334  1  0.78130813  0.08992046  0.46299117  1
  N  N335  1  0.05203764  0.92287362  0.03986814  1
  N  N336  1  0.69170199  0.24433780  0.95770929  1
  N  N337  1  0.73564413  0.08855939  0.03571846  1
  N  N338  1  0.18630852  0.24066158  0.95197525  1
  N  N339  1  0.03764068  0.07558144  0.96137543  1
  N  N340  1  0.94745179  0.07072823  0.54424594  1
  N  N341  1  0.94760466  0.40995915  0.95661678  1
  N  N342  1  0.19477271  0.90406309  0.95739406  1
  N  N343  1  0.21151913  0.09168287  0.45919015  1
  N  N344  1  0.19492304  0.90989455  0.54407718  1
  N  N345  1  0.26215184  0.75161157  0.46491481  1
  N  N346  1  0.80892880  0.57355895  0.54245697  1
  N  N347  1  0.02522364  0.07290613  0.53814950  1
  N  N348  1  0.20860163  0.42263454  0.46100616  1
  N  N349  1  0.78066717  0.24022169  0.54168118  1
  N  N350  1  0.01660694  0.58875208  0.46891430  1
  N  N351  1  0.27227425  0.91053588  0.53741926  1
  N  N352  1  0.43902188  0.40618335  0.54589345  1
  N  N353  1  0.54404350  0.92581659  0.46221033  1
  N  N354  1  0.67756769  0.75522430  0.45777823  1
  N  N355  1  0.68996769  0.90796508  0.54526380  1
  N  N356  1  0.18570210  0.24166572  0.54916983  1
  N  N357  1  0.99590313  0.74091865  0.53429436  1
  N  N358  1  0.49364614  0.25567777  0.46310541  1
  N  N359  1  0.95057302  0.40841407  0.54183580  1
  N  N360  1  0.06239020  0.05697783  0.59076163  1
  N  N361  1  0.06084489  0.39336259  0.59304125  1
  N  N362  1  0.08263345  0.71690685  0.60247757  1
  N  N363  1  0.56575671  0.05292653  0.59875351  1
  N  N364  1  0.55488471  0.39297561  0.59328336  1
  N  N365  1  0.58328625  0.72291823  0.59671878  1
  N  N366  1  0.44675361  0.27845754  0.08902057  1
  N  N367  1  0.39926787  0.60738283  0.08390952  1
  N  N368  1  0.44309313  0.93963639  0.09133498  1
  N  N369  1  0.94245021  0.27790399  0.10212380  1
  N  N370  1  0.92658002  0.62023627  0.09374161  1
  N  N371  1  0.94387914  0.94070375  0.08835674  1
  N  N372  1  0.43579757  0.06247826  0.89767509  1
  N  N373  1  0.43242166  0.38820623  0.89690412  1
  N  N374  1  0.42587081  0.72004671  0.89279558  1
  N  N375  1  0.93585476  0.05641531  0.90478625  1
  N  N376  1  0.93167780  0.38849389  0.89761703  1
  N  N377  1  0.93428493  0.72641717  0.90589561  1
  N  N378  1  0.07416069  0.28222531  0.39783402  1
  N  N379  1  0.05419361  0.60474821  0.41396175  1
  N  N380  1  0.07475890  0.94720576  0.39128912  1
  N  N381  1  0.57867903  0.27850855  0.39384188  1
  N  N382  1  0.56924528  0.61273869  0.39726009  1
  N  N383  1  0.57442744  0.94387393  0.40625054  1
  N  N384  1  0.30285968  0.22204298  0.59034971  1
  N  N385  1  0.30804195  0.55495856  0.59193141  1
  N  N386  1  0.30855088  0.89457700  0.59046429  1
  N  N387  1  0.80262514  0.22212546  0.59915538  1
  N  N388  1  0.82154273  0.55440898  0.60039705  1
  N  N389  1  0.80354793  0.89101652  0.59482365  1
  N  N390  1  0.18360213  0.11094173  0.10754537  1
  N  N391  1  0.19208696  0.43997130  0.09286871  1
  N  N392  1  0.18661890  0.78023138  0.10115430  1
  N  N393  1  0.69338870  0.11171018  0.08511523  1
  N  N394  1  0.68933081  0.43820933  0.08809583  1
  N  N395  1  0.69390796  0.77467082  0.09117966  1
  N  N396  1  0.17710143  0.22215255  0.89256512  1
  N  N397  1  0.22517891  0.56318254  0.93715696  1
  N  N398  1  0.17680333  0.88555902  0.89864336  1
  N  N399  1  0.67896610  0.22506552  0.89982176  1
  N  N400  1  0.69282322  0.55377078  0.89784583  1
  N  N401  1  0.67740508  0.88832641  0.90459969  1
  N  N402  1  0.31516654  0.10981865  0.40401419  1
  N  N403  1  0.31731505  0.44139633  0.40820037  1
  N  N404  1  0.29834299  0.77631697  0.41524704  1
  N  N405  1  0.81232684  0.11103964  0.40816921  1
  N  N406  1  0.82259650  0.44575489  0.39435804  1
  N  N407  1  0.79293431  0.77484556  0.41494953  1
  N  N408  1  0.45193582  0.27683927  0.41251902  1
  N  N409  1  0.43994157  0.60931869  0.40720146  1
  N  N410  1  0.44818582  0.94634753  0.40029460  1
  N  N411  1  0.94482259  0.27736106  0.40890902  1
  N  N412  1  0.92809268  0.60935629  0.39684363  1
  N  N413  1  0.94725707  0.94209519  0.41096526  1
  N  N414  1  0.06240637  0.05637513  0.90406560  1
  N  N415  1  0.05894289  0.39471917  0.90699483  1
  N  N416  1  0.06422760  0.72403547  0.90443286  1
  N  N417  1  0.56239521  0.04860560  0.90295102  1
  N  N418  1  0.56100142  0.39254896  0.91129537  1
  N  N419  1  0.55482805  0.72293640  0.90694433  1
  N  N420  1  0.06990727  0.27696491  0.09377401  1
  N  N421  1  0.05411108  0.60891634  0.10443694  1
  N  N422  1  0.07215524  0.94773449  0.09606798  1
  N  N423  1  0.57400951  0.28380461  0.10405283  1
  N  N424  1  0.52711878  0.60112930  0.06773792  1
  N  N425  1  0.56986588  0.94519228  0.10448506  1
  N  N426  1  0.43639008  0.05674936  0.58832066  1
  N  N427  1  0.42798666  0.38795008  0.60499727  1
  N  N428  1  0.45526082  0.72274506  0.58351116  1
  N  N429  1  0.93643582  0.05399002  0.60305765  1
  N  N430  1  0.93334262  0.38893626  0.60154039  1
  N  N431  1  0.95564403  0.72246435  0.58612152  1
  N  N432  1  0.18870308  0.11018737  0.40121237  1
  N  N433  1  0.18925753  0.44433185  0.40275602  1
  N  N434  1  0.17221173  0.77641142  0.39975358  1
  N  N435  1  0.68360256  0.10926955  0.40325780  1
  N  N436  1  0.69322422  0.44625786  0.40623451  1
  N  N437  1  0.66728455  0.77414764  0.39932187  1
  N  N438  1  0.30348152  0.22675620  0.90686797  1
  N  N439  1  0.35213517  0.55784655  0.91943979  1
  N  N440  1  0.30288190  0.89059592  0.90630160  1
  N  N441  1  0.80501959  0.22492475  0.91210662  1
  N  N442  1  0.82125042  0.54707100  0.90650541  1
  N  N443  1  0.80549783  0.89581158  0.91271731  1
  N  N444  1  0.30956561  0.10535196  0.09086663  1
  N  N445  1  0.31935145  0.44513759  0.10247477  1
  N  N446  1  0.31436505  0.77465987  0.08980675  1
  N  N447  1  0.81937471  0.10767635  0.10660665  1
  N  N448  1  0.81788945  0.44342725  0.10283183  1
  N  N449  1  0.81929974  0.78260310  0.10899078  1
  N  N450  1  0.17689321  0.22226917  0.60824900  1
  N  N451  1  0.17862507  0.55266220  0.60171116  1
  N  N452  1  0.18247394  0.89096428  0.60197569  1
  N  N453  1  0.67484272  0.22056641  0.59932638  1
  N  N454  1  0.69664493  0.56127714  0.58443772  1
  N  N455  1  0.67600429  0.88909551  0.60369040  1
  Cl  Cl456  1  0.24720582  0.05271081  0.61714381  1
  Cl  Cl457  1  0.24442100  0.38614827  0.62372169  1
  Cl  Cl458  1  0.27220759  0.73453189  0.60531514  1
  Cl  Cl459  1  0.75393112  0.05641352  0.61955500  1
  Cl  Cl460  1  0.74153002  0.39199251  0.61391961  1
  Cl  Cl461  1  0.77270732  0.72808999  0.60550642  1
  Cl  Cl462  1  0.26018581  0.27799228  0.11185190  1
  Cl  Cl463  1  0.22811925  0.61549656  0.12197837  1
  Cl  Cl464  1  0.25648721  0.93978653  0.12041354  1
  Cl  Cl465  1  0.75746176  0.27347057  0.11112762  1
  Cl  Cl466  1  0.73657416  0.60402478  0.09715269  1
  Cl  Cl467  1  0.75691050  0.94746157  0.11823075  1
  Cl  Cl468  1  0.25195033  0.05516783  0.88613114  1
  Cl  Cl469  1  0.24378198  0.39403859  0.88699565  1
  Cl  Cl470  1  0.24252316  0.71626855  0.87835920  1
  Cl  Cl471  1  0.74525002  0.05916861  0.89578058  1
  Cl  Cl472  1  0.74515589  0.38893247  0.88168429  1
  Cl  Cl473  1  0.74029655  0.72213454  0.88454656  1
  Cl  Cl474  1  0.26904573  0.27607693  0.38463068  1
  Cl  Cl475  1  0.24770326  0.60945139  0.39221793  1
  Cl  Cl476  1  0.26507971  0.94163276  0.38901709  1
  Cl  Cl477  1  0.76095798  0.27306950  0.37840287  1
  Cl  Cl478  1  0.74968319  0.61556744  0.36444000  1
  Cl  Cl479  1  0.76188288  0.94494847  0.38992891  1
  Cl  Cl480  1  -0.01213001  0.21789532  0.61801560  1
  Cl  Cl481  1  -0.00133020  0.54808110  0.63612625  1
  Cl  Cl482  1  -0.00949107  0.88658024  0.61736404  1
  Cl  Cl483  1  0.48700756  0.22428453  0.60376919  1
  Cl  Cl484  1  0.50557079  0.55809404  0.60234008  1
  Cl  Cl485  1  0.48943791  0.88137212  0.61957644  1
  Cl  Cl486  1  0.00171254  0.11318554  0.13312213  1
  Cl  Cl487  1  0.00830173  0.44743664  0.11221740  1
  Cl  Cl488  1  0.00548482  0.78571726  0.12779069  1
  Cl  Cl489  1  0.50297133  0.10760939  0.09785985  1
  Cl  Cl490  1  0.50614332  0.44394731  0.11957823  1
  Cl  Cl491  1  0.50579780  0.77383289  0.11271034  1
  Cl  Cl492  1  -0.01168416  0.22650093  0.88496826  1
  Cl  Cl493  1  0.01161688  0.56382972  0.90374323  1
  Cl  Cl494  1  -0.00709351  0.89081861  0.88728294  1
  Cl  Cl495  1  0.49016978  0.21961391  0.88850392  1
  Cl  Cl496  1  0.51814198  0.55072191  0.86789426  1
  Cl  Cl497  1  0.48937844  0.89329420  0.88832167  1
  Cl  Cl498  1  0.00180364  0.10854484  0.39682350  1
  Cl  Cl499  1  0.00613506  0.44842946  0.37500511  1
  Cl  Cl500  1  -0.02179132  0.77293498  0.39950641  1
  Cl  Cl501  1  0.50071680  0.11708531  0.37326207  1
  Cl  Cl502  1  0.50607730  0.44551526  0.38783479  1
  Cl  Cl503  1  0.47910976  0.76984836  0.38999433  1
  Cl  Cl504  1  0.35964032  0.14765489  0.74938519  1
  Cl  Cl505  1  0.36455628  0.47873553  0.75897844  1
  Cl  Cl506  1  0.35469280  0.81708350  0.75527865  1
  Cl  Cl507  1  0.85175027  0.15157731  0.75024327  1
  Cl  Cl508  1  0.86338032  0.48072871  0.75016605  1
  Cl  Cl509  1  0.85566212  0.81673511  0.75896117  1
  Cl  Cl510  1  0.14095337  0.18638957  0.25158436  1
  Cl  Cl511  1  0.14405248  0.51759144  0.24817930  1
  Cl  Cl512  1  0.13610930  0.85455837  0.26501156  1
  Cl  Cl513  1  0.63875254  0.18757044  0.24810465  1
  Cl  Cl514  1  0.64433972  0.51653625  0.24876504  1
  Cl  Cl515  1  0.63967562  0.85215556  0.25581485  1
  Cl  Cl516  1  0.13729588  0.14709497  0.74900146  1
  Cl  Cl517  1  0.14826102  0.48599644  0.75394017  1
  Cl  Cl518  1  0.13322964  0.81217864  0.73580828  1
  Cl  Cl519  1  0.63217562  0.14569843  0.76100904  1
  Cl  Cl520  1  0.64195105  0.48755998  0.74500961  1
  Cl  Cl521  1  0.63868430  0.81155487  0.74653356  1
  Cl  Cl522  1  0.36428843  0.18380824  0.24481302  1
  Cl  Cl523  1  0.36541071  0.52035097  0.24266664  1
  Cl  Cl524  1  0.35831740  0.84598463  0.25403659  1
  Cl  Cl525  1  0.85999281  0.17997567  0.24720013  1
  Cl  Cl526  1  0.86864008  0.52246198  0.23623549  1
  Cl  Cl527  1  0.86144146  0.84952754  0.24857963  1
  Cl  Cl528  1  0.10771797  0.31383140  0.75150459  1
  Cl  Cl529  1  0.11164776  0.64849077  0.74506724  1
  Cl  Cl530  1  0.10928378  0.97921398  0.75105380  1
  Cl  Cl531  1  0.60756312  0.31518002  0.75051230  1
  Cl  Cl532  1  0.60719241  0.65032703  0.74415332  1
  Cl  Cl533  1  0.61460443  0.97695433  0.74640256  1
  Cl  Cl534  1  0.39469726  0.01602321  0.25177015  1
  Cl  Cl535  1  0.39588753  0.35038459  0.24938977  1
  Cl  Cl536  1  0.38958125  0.68289029  0.23564907  1
  Cl  Cl537  1  0.89622848  0.01560163  0.24993923  1
  Cl  Cl538  1  0.89381166  0.35178786  0.24478214  1
  Cl  Cl539  1  0.88681210  0.68703778  0.25022326  1
  Cl  Cl540  1  0.38570682  0.31291598  0.75424257  1
  Cl  Cl541  1  0.38634670  0.64754025  0.75126460  1
  Cl  Cl542  1  0.39429298  0.98394642  0.75044540  1
  Cl  Cl543  1  0.88486559  0.31653217  0.74746586  1
  Cl  Cl544  1  0.89282895  0.64801693  0.75605446  1
  Cl  Cl545  1  0.88738561  0.98430664  0.74732724  1
  Cl  Cl546  1  0.11958751  0.02130688  0.25624713  1
  Cl  Cl547  1  0.11464484  0.35099884  0.25642557  1
  Cl  Cl548  1  0.11062473  0.68442143  0.25556788  1
  Cl  Cl549  1  0.61601349  0.01863520  0.24204945  1
  Cl  Cl550  1  0.61866034  0.35203484  0.25330971  1
  Cl  Cl551  1  0.60970233  0.68278652  0.25128427  1
