# generated using pymatgen
data_H8PbC4(N3Cl2)2
_symmetry_space_group_name_H-M   'P 1'
_cell_length_a   16.61896976
_cell_length_b   22.50651832
_cell_length_c   21.58924775
_cell_angle_alpha   90.00140033
_cell_angle_beta   89.98898028
_cell_angle_gamma   90.00128161
_symmetry_Int_Tables_number   1
_chemical_formula_structural   H8PbC4(N3Cl2)2
_chemical_formula_sum   'H192 Pb24 C96 N144 Cl96'
_cell_volume   8075.13731072
_cell_formula_units_Z   24
loop_
 _symmetry_equiv_pos_site_id
 _symmetry_equiv_pos_as_xyz
  1  'x, y, z'
loop_
 _atom_site_type_symbol
 _atom_site_label
 _atom_site_symmetry_multiplicity
 _atom_site_fract_x
 _atom_site_fract_y
 _atom_site_fract_z
 _atom_site_occupancy
  H  H0  1  -0.00273368  0.02762973  0.67800506  1
  H  H1  1  0.00246579  0.36641738  0.68246628  1
  H  H2  1  0.01075292  0.69821182  0.67794999  1
  H  H3  1  0.49856236  0.02938159  0.67410679  1
  H  H4  1  0.50602790  0.36465561  0.67891225  1
  H  H5  1  0.48709324  0.69875715  0.68185201  1
  H  H6  1  0.01161166  0.30259864  0.17348153  1
  H  H7  1  -0.01269443  0.63575465  0.17625338  1
  H  H8  1  -0.01028069  0.96878593  0.17711567  1
  H  H9  1  0.49337504  0.30399056  0.17967980  1
  H  H10  1  0.51843704  0.63121725  0.17261677  1
  H  H11  1  0.50996037  0.96567636  0.18117888  1
  H  H12  1  0.01242576  0.03216919  0.82287333  1
  H  H13  1  0.01166249  0.36522242  0.82452322  1
  H  H14  1  0.00836845  0.70001249  0.82082574  1
  H  H15  1  0.48772177  0.03100203  0.82072747  1
  H  H16  1  0.50455900  0.36434365  0.82360065  1
  H  H17  1  0.48874499  0.69747722  0.82198010  1
  H  H18  1  -0.00183688  0.30497916  0.31786999  1
  H  H19  1  -0.00551822  0.63519474  0.32080019  1
  H  H20  1  0.00742077  0.96889406  0.32425245  1
  H  H21  1  0.50019434  0.29986807  0.32542726  1
  H  H22  1  0.50912568  0.63308040  0.31992433  1
  H  H23  1  0.49459277  0.96940601  0.32091481  1
  H  H24  1  0.23634602  0.19588355  0.67484604  1
  H  H25  1  0.24983810  0.53058633  0.67613318  1
  H  H26  1  0.25369669  0.86364174  0.67742431  1
  H  H27  1  0.76346539  0.19932637  0.67983313  1
  H  H28  1  0.75133983  0.53050379  0.68022453  1
  H  H29  1  0.74925321  0.86230060  0.67832892  1
  H  H30  1  0.25274937  0.13647345  0.18313657  1
  H  H31  1  0.24311537  0.46846033  0.17701341  1
  H  H32  1  0.25743567  0.80413940  0.17736372  1
  H  H33  1  0.74044777  0.13704341  0.17838186  1
  H  H34  1  0.74776688  0.46891845  0.17907718  1
  H  H35  1  0.74839220  0.80077725  0.17668695  1
  H  H36  1  0.25446811  0.20170735  0.81920313  1
  H  H37  1  0.24339279  0.52987003  0.82534926  1
  H  H38  1  0.25713125  0.86401843  0.82354227  1
  H  H39  1  0.73810381  0.19811782  0.82447604  1
  H  H40  1  0.75483882  0.52906167  0.82266111  1
  H  H41  1  0.74536041  0.86248539  0.81767907  1
  H  H42  1  0.23935296  0.13513422  0.32306578  1
  H  H43  1  0.24032364  0.46948836  0.32485863  1
  H  H44  1  0.25992414  0.80522133  0.32133978  1
  H  H45  1  0.75952763  0.13310806  0.32016173  1
  H  H46  1  0.75530301  0.46960439  0.31849188  1
  H  H47  1  0.74639822  0.80434594  0.32163321  1
  H  H48  1  0.13059204  0.05164194  0.61668121  1
  H  H49  1  0.12096468  0.39021078  0.60483117  1
  H  H50  1  0.11986746  0.72446492  0.59773622  1
  H  H51  1  0.62767400  0.04958719  0.60653265  1
  H  H52  1  0.61748454  0.38927461  0.59990623  1
  H  H53  1  0.62768138  0.71393320  0.62925982  1
  H  H54  1  0.37982099  0.27745507  0.09934425  1
  H  H55  1  0.37504365  0.61811193  0.12657748  1
  H  H56  1  0.37295986  0.94843406  0.12406864  1
  H  H57  1  0.87406515  0.28243277  0.11736861  1
  H  H58  1  0.88650957  0.60621404  0.08911701  1
  H  H59  1  0.88347488  0.93922274  0.09371637  1
  H  H60  1  0.38108428  0.05668932  0.90671015  1
  H  H61  1  0.36907492  0.38572662  0.88470959  1
  H  H62  1  0.38879897  0.72481802  0.90795384  1
  H  H63  1  0.87358926  0.04980819  0.87798671  1
  H  H64  1  0.87203023  0.38318998  0.87667410  1
  H  H65  1  0.87906265  0.71917926  0.88690243  1
  H  H66  1  0.12294268  0.27833023  0.38845466  1
  H  H67  1  0.12587629  0.61357571  0.38351755  1
  H  H68  1  0.11345402  0.94206744  0.40931599  1
  H  H69  1  0.62135296  0.27908950  0.39771029  1
  H  H70  1  0.62087110  0.61013475  0.39869830  1
  H  H71  1  0.61999740  0.94683606  0.38749370  1
  H  H72  1  0.38090089  0.21354363  0.62764102  1
  H  H73  1  0.37456740  0.55044626  0.60470623  1
  H  H74  1  0.37669295  0.88991533  0.60682757  1
  H  H75  1  0.86361913  0.22578491  0.59231213  1
  H  H76  1  0.87646206  0.55465228  0.61158105  1
  H  H77  1  0.88230580  0.88578563  0.61630432  1
  H  H78  1  0.12506629  0.11632197  0.11533540  1
  H  H79  1  0.13508717  0.44037695  0.09374904  1
  H  H80  1  0.12035534  0.78181642  0.12185669  1
  H  H81  1  0.62951335  0.10849013  0.09606953  1
  H  H82  1  0.63203493  0.44534434  0.09974459  1
  H  H83  1  0.61955095  0.77458875  0.11169794  1
  H  H84  1  0.12038953  0.21914859  0.88008350  1
  H  H85  1  0.12583479  0.55923045  0.90044411  1
  H  H86  1  0.12307934  0.88551118  0.88511044  1
  H  H87  1  0.63379081  0.22607704  0.91085013  1
  H  H88  1  0.61977576  0.55250343  0.88160978  1
  H  H89  1  0.62145910  0.88712323  0.88726543  1
  H  H90  1  0.37356417  0.11272806  0.38165003  1
  H  H91  1  0.37941603  0.44841129  0.37874821  1
  H  H92  1  0.37049979  0.77776773  0.40325444  1
  H  H93  1  0.86094223  0.10725696  0.40600693  1
  H  H94  1  0.87636812  0.44828979  0.39030009  1
  H  H95  1  0.87587494  0.77934597  0.38670687  1
  H  H96  1  0.37277081  0.27942671  0.39197380  1
  H  H97  1  0.37331906  0.61593410  0.37855388  1
  H  H98  1  0.37041367  0.94645065  0.39209261  1
  H  H99  1  0.87329449  0.28084307  0.38690901  1
  H  H100  1  0.87709104  0.61158401  0.39476518  1
  H  H101  1  0.86806767  0.94890211  0.37726986  1
  H  H102  1  0.11825507  0.06125119  0.90618416  1
  H  H103  1  0.11718197  0.38990119  0.90703428  1
  H  H104  1  0.12823054  0.72283087  0.89331609  1
  H  H105  1  0.62617298  0.05104325  0.87666293  1
  H  H106  1  0.61674278  0.39102549  0.90438689  1
  H  H107  1  0.63238095  0.71227389  0.86991351  1
  H  H108  1  0.12005379  0.27725372  0.09121652  1
  H  H109  1  0.12946908  0.61586688  0.12846947  1
  H  H110  1  0.12912829  0.95060134  0.12209372  1
  H  H111  1  0.62731539  0.28126367  0.11853457  1
  H  H112  1  0.61619261  0.60691184  0.08499502  1
  H  H113  1  0.61983253  0.94466490  0.10029256  1
  H  H114  1  0.37980216  0.05830348  0.60168309  1
  H  H115  1  0.36946113  0.38257842  0.62054148  1
  H  H116  1  0.38209054  0.72445798  0.59867442  1
  H  H117  1  0.88297834  0.05547752  0.59858747  1
  H  H118  1  0.87238970  0.38707975  0.61412173  1
  H  H119  1  0.87302651  0.71612715  0.62202725  1
  H  H120  1  0.12670135  0.10747355  0.40348732  1
  H  H121  1  0.13391992  0.43991509  0.40668096  1
  H  H122  1  0.12403578  0.78194880  0.38004480  1
  H  H123  1  0.61658097  0.11882769  0.36982582  1
  H  H124  1  0.62687966  0.44800368  0.38512938  1
  H  H125  1  0.62706336  0.77796825  0.39515918  1
  H  H126  1  0.36892048  0.22347881  0.89686376  1
  H  H127  1  0.37343196  0.55073834  0.89140136  1
  H  H128  1  0.37044220  0.89218524  0.90163828  1
  H  H129  1  0.87825268  0.21896896  0.87580027  1
  H  H130  1  0.86761708  0.55670243  0.90239914  1
  H  H131  1  0.87099966  0.88882023  0.88746270  1
  H  H132  1  0.37477330  0.10822960  0.11056734  1
  H  H133  1  0.38132122  0.45056211  0.12088184  1
  H  H134  1  0.36667179  0.77581220  0.09566581  1
  H  H135  1  0.87600237  0.11494966  0.11767096  1
  H  H136  1  0.88050952  0.44714022  0.11630822  1
  H  H137  1  0.86776287  0.77948700  0.10039059  1
  H  H138  1  0.13953639  0.22820527  0.58687425  1
  H  H139  1  0.12645542  0.55972553  0.60742104  1
  H  H140  1  0.12753978  0.88713584  0.60821518  1
  H  H141  1  0.62027237  0.21590989  0.63014595  1
  H  H142  1  0.62770613  0.55336251  0.60734676  1
  H  H143  1  0.63518589  0.88910350  0.59937970  1
  H  H144  1  0.55601373  0.41815455  0.49323819  1
  H  H145  1  0.59203262  0.08457284  0.50176800  1
  H  H146  1  0.55844251  0.58221174  0.50663062  1
  H  H147  1  0.07955513  0.75029351  1.00401337  1
  H  H148  1  0.67597400  0.74600480  0.50237394  1
  H  H149  1  0.84112124  0.74982884  0.49308047  1
  H  H150  1  0.82167911  0.90482253  0.99578337  1
  H  H151  1  0.63057025  0.24734437  0.52110083  1
  H  H152  1  0.32113237  0.08812054  0.00413701  1
  H  H153  1  0.22582263  0.24129468  0.49005943  1
  H  H154  1  0.34119938  0.58473338  0.99619461  1
  H  H155  1  0.85057522  0.91331767  0.50817302  1
  H  H156  1  0.33134121  0.58597554  0.50397709  1
  H  H157  1  0.29765632  0.75318509  0.50414711  1
  H  H158  1  0.37470918  0.24868507  0.51846878  1
  H  H159  1  0.96085962  0.92553631  -0.00765984  1
  H  H160  1  0.45472252  0.75229503  0.49326099  1
  H  H161  1  0.16892765  0.09462990  0.00169939  1
  H  H162  1  0.65499535  0.74893583  0.00311383  1
  H  H163  1  0.07204204  0.26210938  0.49631619  1
  H  H164  1  0.93040896  0.58076905  0.50383512  1
  H  H165  1  0.45921859  0.07797804  1.00651521  1
  H  H166  1  0.45015275  0.25380964  -0.00313875  1
  H  H167  1  0.39893744  0.41527769  0.99240519  1
  H  H168  1  0.84908234  0.41591793  0.00485191  1
  H  H169  1  0.36022205  0.41641996  0.48876797  1
  H  H170  1  0.91925897  0.25473791  0.49819757  1
  H  H171  1  0.78579272  0.25153588  0.49002485  1
  H  H172  1  0.17897098  0.57983598  1.00367111  1
  H  H173  1  0.57725263  0.91612010  0.49998432  1
  H  H174  1  0.04208316  0.07518390  1.00661885  1
  H  H175  1  0.46663605  0.75173961  1.01107878  1
  H  H176  1  0.55358463  0.92234799  -0.00919538  1
  H  H177  1  0.10648591  0.91515766  0.01589086  1
  H  H178  1  0.95151473  0.08259901  0.49736245  1
  H  H179  1  0.30848217  0.25049813  1.00645749  1
  H  H180  1  0.17125806  0.57908840  0.50236776  1
  H  H181  1  0.66975434  0.91332181  0.99889693  1
  H  H182  1  0.82699559  0.41947702  0.50107034  1
  H  H183  1  0.96750588  0.57892429  -0.00784325  1
  H  H184  1  0.43326270  0.07655801  0.49718130  1
  H  H185  1  0.89588702  0.08676678  0.98377911  1
  H  H186  1  0.05564814  0.75362907  0.49222927  1
  H  H187  1  0.89720332  0.25413420  0.00674264  1
  H  H188  1  0.79926304  0.58413336  1.00455521  1
  H  H189  1  0.78558822  0.08073607  0.50932881  1
  H  H190  1  0.81081804  0.74093281  0.00197050  1
  H  H191  1  0.29497600  0.75038038  -0.00564510  1
  Pb  Pb192  1  0.25267826  0.04985373  0.75813028  1
  Pb  Pb193  1  0.24829739  0.37979106  0.74930581  1
  Pb  Pb194  1  0.25091808  0.71458164  0.74953787  1
  Pb  Pb195  1  0.75009010  0.04644883  0.74495002  1
  Pb  Pb196  1  0.74446963  0.38109216  0.75056553  1
  Pb  Pb197  1  0.75330496  0.71247777  0.75307454  1
  Pb  Pb198  1  0.24957290  0.28637209  0.24738742  1
  Pb  Pb199  1  0.24790966  0.61915150  0.25204210  1
  Pb  Pb200  1  0.24705892  0.95463027  0.25744562  1
  Pb  Pb201  1  0.75010396  0.28784344  0.25446102  1
  Pb  Pb202  1  0.75018855  0.61970980  0.24349169  1
  Pb  Pb203  1  0.74511669  0.95068029  0.24014561  1
  Pb  Pb204  1  -0.00428263  0.21549554  0.73689807  1
  Pb  Pb205  1  0.00042420  0.54584791  0.75635190  1
  Pb  Pb206  1  0.00252215  0.88194217  0.75590071  1
  Pb  Pb207  1  0.49953803  0.21283387  0.76399699  1
  Pb  Pb208  1  0.49866364  0.54625922  0.74679124  1
  Pb  Pb209  1  0.50016302  0.87997416  0.74870208  1
  Pb  Pb210  1  -0.00416668  0.11730871  0.25694282  1
  Pb  Pb211  1  0.00092237  0.45347740  0.24956465  1
  Pb  Pb212  1  -0.00168503  0.78735157  0.24779689  1
  Pb  Pb213  1  0.49840291  0.12026759  0.24305142  1
  Pb  Pb214  1  0.50125314  0.45399410  0.24635850  1
  Pb  Pb215  1  0.49398084  0.78475122  0.25116738  1
  C  C216  1  0.00312927  0.04448501  0.63118480  1
  C  C217  1  -0.00143115  0.38089649  0.63456252  1
  C  C218  1  0.00137571  0.71282244  0.63064769  1
  C  C219  1  0.50231191  0.04594885  0.62680066  1
  C  C220  1  0.49792230  0.37890069  0.63134073  1
  C  C221  1  0.49903881  0.71230926  0.63457985  1
  C  C222  1  0.00143192  0.28758945  0.12639073  1
  C  C223  1  0.00112059  0.62012615  0.12989163  1
  C  C224  1  0.00097266  0.95335995  0.13009406  1
  C  C225  1  0.49969214  0.28834395  0.13245988  1
  C  C226  1  0.50268886  0.61861490  0.12573079  1
  C  C227  1  0.50107707  0.95276374  0.13333880  1
  C  C228  1  0.00136062  0.04780730  0.86985628  1
  C  C229  1  -0.00003258  0.37969294  0.87151538  1
  C  C230  1  0.00556165  0.71434469  0.86868359  1
  C  C231  1  0.49787876  0.04577030  0.86792731  1
  C  C232  1  0.49634859  0.37981795  0.87079925  1
  C  C233  1  0.50348711  0.71175935  0.86861732  1
  C  C234  1  -0.00121505  0.28904245  0.36539858  1
  C  C235  1  -0.00108089  0.62008547  0.36832061  1
  C  C236  1  -0.00348779  0.95362854  0.37097518  1
  C  C237  1  0.49801094  0.28633776  0.37345618  1
  C  C238  1  0.50118513  0.61985672  0.36778885  1
  C  C239  1  0.49553962  0.95409387  0.36841822  1
  C  C240  1  0.25248716  0.21202902  0.62890833  1
  C  C241  1  0.25030446  0.54679316  0.62865989  1
  C  C242  1  0.25248263  0.87977617  0.63032617  1
  C  C243  1  0.74848323  0.21393915  0.63308943  1
  C  C244  1  0.75151337  0.54585177  0.63283149  1
  C  C245  1  0.75582635  0.87873134  0.63130691  1
  C  C246  1  0.25140297  0.12141265  0.13527329  1
  C  C247  1  0.25309851  0.45305583  0.13013622  1
  C  C248  1  0.24845098  0.78819127  0.13046034  1
  C  C249  1  0.74848047  0.12117645  0.13130303  1
  C  C250  1  0.75351699  0.45378205  0.13160616  1
  C  C251  1  0.74523092  0.78485892  0.12905646  1
  C  C252  1  0.24812962  0.21465480  0.86727895  1
  C  C253  1  0.24743579  0.54636823  0.87262426  1
  C  C254  1  0.24976058  0.87959814  0.87054834  1
  C  C255  1  0.74974160  0.21395664  0.87090797  1
  C  C256  1  0.74773610  0.54516318  0.86957081  1
  C  C257  1  0.74671962  0.87788846  0.86539333  1
  C  C258  1  0.24619468  0.11922269  0.36996027  1
  C  C259  1  0.25185019  0.45316857  0.37126043  1
  C  C260  1  0.25181788  0.78912576  0.36831288  1
  C  C261  1  0.74562542  0.12027120  0.36740739  1
  C  C262  1  0.75319450  0.45516102  0.36630382  1
  C  C263  1  0.75018756  0.78732864  0.36875716  1
  C  C264  1  0.44382721  0.59757955  0.45709089  1
  C  C265  1  0.53687242  0.92680127  0.46200419  1
  C  C266  1  0.04965450  0.59276755  0.45857145  1
  C  C267  1  0.71602156  0.75763563  0.46269315  1
  C  C268  1  0.76013208  0.24098219  0.53518528  1
  C  C269  1  0.07000106  0.59089668  0.04696887  1
  C  C270  1  0.75680135  0.09368055  0.46598295  1
  C  C271  1  0.52122638  0.40622040  0.53414522  1
  C  C272  1  0.27484156  0.23936008  0.96478054  1
  C  C273  1  0.43272093  0.59785286  0.04211383  1
  C  C274  1  0.57319509  0.73531546  0.95222862  1
  C  C275  1  0.29821604  0.09030054  0.45809194  1
  C  C276  1  0.01719858  0.40649426  0.96776908  1
  C  C277  1  0.23214383  0.41991322  0.46709776  1
  C  C278  1  0.03977881  0.74012154  0.96461935  1
  C  C279  1  0.02386222  0.25901061  0.02914432  1
  C  C280  1  0.53492943  0.26202837  0.46807817  1
  C  C281  1  0.95701985  0.26215135  0.45786882  1
  C  C282  1  0.70714456  0.42991532  0.45845743  1
  C  C283  1  0.56382252  0.73540627  0.54863507  1
  C  C284  1  0.78868472  0.42956895  0.46172990  1
  C  C285  1  0.52485372  0.59429165  0.46525372  1
  C  C286  1  0.20674118  0.09783385  0.04263951  1
  C  C287  1  0.80149318  0.42661122  0.04181887  1
  C  C288  1  0.51180077  0.59375779  0.02824247  1
  C  C289  1  0.93780096  0.40402771  0.95783497  1
  C  C290  1  0.45314667  0.26245322  0.46677004  1
  C  C291  1  0.30972834  0.42692473  0.04287806  1
  C  C292  1  0.45519827  0.92706108  0.46173982  1
  C  C293  1  0.19371507  0.23693845  0.95757596  1
  C  C294  1  0.94094793  0.73760893  0.54303851  1
  C  C295  1  0.79124704  0.57347742  0.54036272  1
  C  C296  1  0.93793356  0.92647214  0.45708116  1
  C  C297  1  0.67727167  0.09887068  0.45229484  1
  C  C298  1  0.27484070  0.91016328  0.96516639  1
  C  C299  1  0.44217007  0.93060700  0.04475813  1
  C  C300  1  0.96818549  0.59184601  0.46400684  1
  C  C301  1  0.44035886  0.40284706  0.54260118  1
  C  C302  1  0.80976134  0.24111225  0.95639008  1
  C  C303  1  0.48364895  0.73970132  0.53655548  1
  C  C304  1  0.49388110  0.73975880  0.96686138  1
  C  C305  1  0.28805399  0.91122695  0.53881300  1
  C  C306  1  0.69144629  0.57584385  0.95729023  1
  C  C307  1  0.18799967  0.75865276  0.04387268  1
  C  C308  1  0.70627228  0.90529208  0.95807414  1
  C  C309  1  0.95812185  0.73868249  0.96087283  1
  C  C310  1  0.52263016  0.93007465  0.03454902  1
  C  C311  1  0.02192538  0.74113686  0.53334726  1
  N  N312  1  0.55511916  0.26017541  0.04452223  1
  N  N313  1  0.44544806  0.40739658  0.95802308  1
  N  N314  1  0.26659879  0.75698214  0.03618482  1
  N  N315  1  0.48310952  0.07262607  0.96278081  1
  N  N316  1  0.68271579  0.23857446  0.54941193  1
  N  N317  1  0.94149407  0.06988210  0.95584890  1
  N  N318  1  0.99244156  0.58815968  0.03497742  1
  N  N319  1  0.21071791  0.91002188  0.53777986  1
  N  N320  1  0.73369734  0.24401750  0.96872768  1
  N  N321  1  0.21680366  0.58019491  0.96431489  1
  N  N322  1  0.72252994  0.42596951  0.03559228  1
  N  N323  1  0.23309539  0.42305327  0.03292247  1
  N  N324  1  0.01435739  0.92331319  0.46841100  1
  N  N325  1  0.94588114  0.26101703  0.03908006  1
  N  N326  1  0.54735757  0.06744188  0.53514666  1
  N  N327  1  0.24490452  0.24744191  0.53523820  1
  N  N328  1  0.22115660  0.08918064  0.46656241  1
  N  N329  1  0.19762610  0.90674934  0.96120007  1
  N  N330  1  0.28605559  0.09266438  0.04282043  1
  N  N331  1  0.03674952  0.26101550  0.45742353  1
  N  N332  1  0.71369826  0.57371713  0.53821798  1
  N  N333  1  0.72649023  0.90643778  0.53593014  1
  N  N334  1  0.52298656  0.40939789  0.96595524  1
  N  N335  1  0.80457099  0.90493615  0.54286165  1
  N  N336  1  0.80190525  0.09483146  0.04209993  1
  N  N337  1  0.01912171  0.08223726  0.96294338  1
  N  N338  1  0.02993054  0.40730318  0.53929972  1
  N  N339  1  0.28947218  0.56686639  0.53510047  1
  N  N340  1  0.72603640  0.09188060  0.03539608  1
  N  N341  1  0.77696340  0.76419703  0.03389599  1
  N  N342  1  0.47739606  0.25909562  0.03938573  1
  N  N343  1  0.95350442  0.40630774  0.54231220  1
  N  N344  1  0.29472219  0.56796482  0.96387053  1
  N  N345  1  0.69935995  0.75329142  0.04093457  1
  N  N346  1  0.56022469  0.07075836  0.95430774  1
  N  N347  1  0.19351317  0.75965429  0.45466691  1
  N  N348  1  0.98015617  0.07504111  0.53867551  1
  N  N349  1  0.98339736  0.92039993  0.03667098  1
  N  N350  1  0.05780789  0.07388283  0.54328825  1
  N  N351  1  0.27124266  0.75768396  0.46123420  1
  N  N352  1  0.76991766  0.57617426  0.96328067  1
  N  N353  1  0.46963635  0.08050170  0.53608012  1
  N  N354  1  0.78598786  0.90574404  0.95710070  1
  N  N355  1  0.32135848  0.23534753  0.54713296  1
  N  N356  1  0.79576437  0.75818659  0.45881022  1
  N  N357  1  0.06091624  0.93212370  0.04403226  1
  N  N358  1  0.21194002  0.58097164  0.53930478  1
  N  N359  1  0.30981980  0.42436394  0.45681238  1
  N  N360  1  0.07173047  0.05593081  0.60154662  1
  N  N361  1  0.05916697  0.39171547  0.59623338  1
  N  N362  1  0.05841848  0.72524919  0.58917088  1
  N  N363  1  0.56815742  0.05520722  0.59371747  1
  N  N364  1  0.55608179  0.39087254  0.59076366  1
  N  N365  1  0.57224544  0.71916147  0.60794164  1
  N  N366  1  0.44180882  0.27827435  0.09178991  1
  N  N367  1  0.42828212  0.61278658  0.10231916  1
  N  N368  1  0.42974921  0.94397623  0.10429832  1
  N  N369  1  0.93165215  0.27868278  0.09900372  1
  N  N370  1  0.94921579  0.60855603  0.08522740  1
  N  N371  1  0.94574391  0.94355527  0.08691282  1
  N  N372  1  0.44337814  0.05516524  0.91149804  1
  N  N373  1  0.42804342  0.38914593  0.90042293  1
  N  N374  1  0.45122483  0.72476294  0.91338883  1
  N  N375  1  0.93059656  0.05839842  0.89561226  1
  N  N376  1  0.92731842  0.38802960  0.89804548  1
  N  N377  1  0.93820597  0.72341937  0.90285302  1
  N  N378  1  0.06230616  0.28118109  0.40123048  1
  N  N379  1  0.06754921  0.60985308  0.40060038  1
  N  N380  1  0.05093101  0.94096578  0.41347883  1
  N  N381  1  0.56128244  0.27655870  0.41074131  1
  N  N382  1  0.55954252  0.60865913  0.40857438  1
  N  N383  1  0.56077733  0.94377468  0.40276903  1
  N  N384  1  0.32559493  0.22184648  0.60704899  1
  N  N385  1  0.31411243  0.55586485  0.59330934  1
  N  N386  1  0.31674492  0.89291906  0.59453095  1
  N  N387  1  0.80164312  0.22547969  0.58712875  1
  N  N388  1  0.81685709  0.55702538  0.59767607  1
  N  N389  1  0.82326611  0.88819334  0.60053699  1
  N  N390  1  0.18472562  0.11391077  0.10044250  1
  N  N391  1  0.19767811  0.43956809  0.08866777  1
  N  N392  1  0.17688593  0.77667163  0.10269902  1
  N  N393  1  0.69144791  0.10848075  0.09043637  1
  N  N394  1  0.69423720  0.44323074  0.09199553  1
  N  N395  1  0.67895248  0.77427566  0.09675665  1
  N  N396  1  0.17819443  0.22249989  0.89868761  1
  N  N397  1  0.18689326  0.55902690  0.91037049  1
  N  N398  1  0.18176504  0.88755519  0.90093740  1
  N  N399  1  0.69613449  0.22643148  0.91408980  1
  N  N400  1  0.67745613  0.55733812  0.89905537  1
  N  N401  1  0.68157294  0.88949471  0.90092531  1
  N  N402  1  0.31590418  0.10877617  0.39978875  1
  N  N403  1  0.32235553  0.44519982  0.39792210  1
  N  N404  1  0.30832915  0.77835067  0.41000750  1
  N  N405  1  0.79864033  0.10769219  0.41178522  1
  N  N406  1  0.81628176  0.44532374  0.40316182  1
  N  N407  1  0.81602710  0.77683252  0.40107272  1
  N  N408  1  0.43185086  0.27729953  0.40758890  1
  N  N409  1  0.43034412  0.61256896  0.39779898  1
  N  N410  1  0.43061661  0.94327378  0.40512274  1
  N  N411  1  0.93330029  0.27741233  0.40036915  1
  N  N412  1  0.93770087  0.60901908  0.40655641  1
  N  N413  1  0.92440604  0.94430580  0.39748695  1
  N  N414  1  0.05659599  0.05787588  0.91290732  1
  N  N415  1  0.05560941  0.39186401  0.91528420  1
  N  N416  1  0.06817545  0.72490447  0.90581197  1
  N  N417  1  0.56875862  0.05591909  0.89457759  1
  N  N418  1  0.55443828  0.39233934  0.91143369  1
  N  N419  1  0.57826670  0.71869935  0.89247328  1
  N  N420  1  0.05872073  0.27509318  0.08330184  1
  N  N421  1  0.07502736  0.60973586  0.10618390  1
  N  N422  1  0.07176172  0.94306388  0.10428093  1
  N  N423  1  0.56849908  0.27697726  0.10312321  1
  N  N424  1  0.55444449  0.60648512  0.07914998  1
  N  N425  1  0.55880473  0.94368840  0.09122104  1
  N  N426  1  0.44085958  0.05804234  0.58989770  1
  N  N427  1  0.42683647  0.38659728  0.60175349  1
  N  N428  1  0.44416649  0.72485049  0.59140186  1
  N  N429  1  0.94489411  0.05590924  0.59120945  1
  N  N430  1  0.93279399  0.39010174  0.60133582  1
  N  N431  1  0.92967358  0.72086337  0.60212693  1
  N  N432  1  0.18844623  0.10739849  0.41024812  1
  N  N433  1  0.19566816  0.43795042  0.41431756  1
  N  N434  1  0.18235722  0.77720525  0.39625127  1
  N  N435  1  0.67127785  0.11481944  0.39244885  1
  N  N436  1  0.68620248  0.44515920  0.40075023  1
  N  N437  1  0.68767796  0.77541742  0.40657600  1
  N  N438  1  0.30786775  0.22505725  0.90720698  1
  N  N439  1  0.31372372  0.55534749  0.90519867  1
  N  N440  1  0.30908326  0.89363371  0.91078354  1
  N  N441  1  0.82226964  0.22356794  0.89659543  1
  N  N442  1  0.80578884  0.55552130  0.91010599  1
  N  N443  1  0.81080715  0.88497235  0.90085593  1
  N  N444  1  0.31379357  0.11034590  0.09904953  1
  N  N445  1  0.32448006  0.44497501  0.10217523  1
  N  N446  1  0.30467047  0.77761977  0.08867546  1
  N  N447  1  0.81724654  0.11261128  0.10163783  1
  N  N448  1  0.82178975  0.44317366  0.10055643  1
  N  N449  1  0.80635848  0.77455191  0.09121667  1
  N  N450  1  0.20176111  0.22366268  0.58304080  1
  N  N451  1  0.18666822  0.55865903  0.59395644  1
  N  N452  1  0.18817537  0.89013742  0.59597115  1
  N  N453  1  0.67626758  0.22251922  0.60955160  1
  N  N454  1  0.68871745  0.55612975  0.59695531  1
  N  N455  1  0.69698594  0.89029864  0.59120373  1
  Cl  Cl456  1  0.25897177  0.05312423  0.62605673  1
  Cl  Cl457  1  0.24333269  0.38876124  0.61345988  1
  Cl  Cl458  1  0.25525743  0.72516792  0.60983711  1
  Cl  Cl459  1  0.75801700  0.05382845  0.60900663  1
  Cl  Cl460  1  0.74715312  0.38548518  0.61549227  1
  Cl  Cl461  1  0.75157365  0.71923720  0.62112708  1
  Cl  Cl462  1  0.25560724  0.27713817  0.11363799  1
  Cl  Cl463  1  0.25035972  0.61496472  0.11871104  1
  Cl  Cl464  1  0.24892178  0.95157057  0.12226622  1
  Cl  Cl465  1  0.75091829  0.28274833  0.12647866  1
  Cl  Cl466  1  0.76252194  0.60846260  0.09915252  1
  Cl  Cl467  1  0.75992060  0.93493163  0.10056852  1
  Cl  Cl468  1  0.25392117  0.06109340  0.90216427  1
  Cl  Cl469  1  0.24551853  0.38632342  0.88010815  1
  Cl  Cl470  1  0.26330426  0.72557878  0.89264114  1
  Cl  Cl471  1  0.75056669  0.04659697  0.87543729  1
  Cl  Cl472  1  0.73858662  0.38729785  0.88110751  1
  Cl  Cl473  1  0.75926623  0.71821952  0.88943943  1
  Cl  Cl474  1  0.24430762  0.27206288  0.39012658  1
  Cl  Cl475  1  0.24913817  0.61038504  0.38629325  1
  Cl  Cl476  1  0.24268016  0.94710136  0.38606598  1
  Cl  Cl477  1  0.74930253  0.27869026  0.39035396  1
  Cl  Cl478  1  0.74862461  0.61530247  0.37506820  1
  Cl  Cl479  1  0.74479755  0.94641079  0.37121020  1
  Cl  Cl480  1  0.00832006  0.22849781  0.59757873  1
  Cl  Cl481  1  0.00374315  0.55730596  0.62372014  1
  Cl  Cl482  1  0.00324120  0.88612343  0.62578800  1
  Cl  Cl483  1  0.49978070  0.21188712  0.63115275  1
  Cl  Cl484  1  0.49886681  0.55282724  0.61277239  1
  Cl  Cl485  1  0.50864760  0.88943307  0.61447341  1
  Cl  Cl486  1  0.00245921  0.10708955  0.11058571  1
  Cl  Cl487  1  0.00944548  0.44713173  0.11463696  1
  Cl  Cl488  1  -0.00950748  0.78193766  0.11397617  1
  Cl  Cl489  1  0.49808922  0.10600946  0.10423352  1
  Cl  Cl490  1  0.50764277  0.44727323  0.11492327  1
  Cl  Cl491  1  0.49204099  0.77731203  0.11540922  1
  Cl  Cl492  1  -0.00010160  0.21672139  0.87024888  1
  Cl  Cl493  1  -0.00558760  0.55960033  0.89749761  1
  Cl  Cl494  1  -0.00669489  0.89910912  0.89484079  1
  Cl  Cl495  1  0.49675827  0.22568043  0.89966439  1
  Cl  Cl496  1  0.49439546  0.55139571  0.87923790  1
  Cl  Cl497  1  0.49623422  0.88886895  0.88277867  1
  Cl  Cl498  1  -0.01145716  0.10818942  0.39413482  1
  Cl  Cl499  1  0.00810248  0.44676942  0.38064235  1
  Cl  Cl500  1  -0.00078422  0.78020279  0.38048657  1
  Cl  Cl501  1  0.49253342  0.10757366  0.37642925  1
  Cl  Cl502  1  0.50388185  0.44682943  0.37880696  1
  Cl  Cl503  1  0.49386801  0.77845586  0.38608929  1
  Cl  Cl504  1  0.36241535  0.14543532  0.74894712  1
  Cl  Cl505  1  0.35852922  0.48150627  0.74761615  1
  Cl  Cl506  1  0.36010442  0.81550056  0.74969770  1
  Cl  Cl507  1  0.86026483  0.14790160  0.75005678  1
  Cl  Cl508  1  0.86199802  0.47893591  0.75207976  1
  Cl  Cl509  1  0.86214929  0.81194417  0.75322987  1
  Cl  Cl510  1  0.13839380  0.18627397  0.25222598  1
  Cl  Cl511  1  0.14182152  0.52131530  0.25033991  1
  Cl  Cl512  1  0.13699301  0.85348490  0.24627765  1
  Cl  Cl513  1  0.63672059  0.18732316  0.25388139  1
  Cl  Cl514  1  0.64090841  0.51830980  0.24798108  1
  Cl  Cl515  1  0.64448544  0.85265472  0.24604797  1
  Cl  Cl516  1  0.14307828  0.14537632  0.75096345  1
  Cl  Cl517  1  0.14110599  0.48296825  0.75087719  1
  Cl  Cl518  1  0.13894438  0.81443523  0.75574126  1
  Cl  Cl519  1  0.63812117  0.14684394  0.74843858  1
  Cl  Cl520  1  0.63876643  0.48008844  0.75072297  1
  Cl  Cl521  1  0.64231739  0.81228437  0.74971215  1
  Cl  Cl522  1  0.36235880  0.18667305  0.25301061  1
  Cl  Cl523  1  0.36239354  0.52099796  0.25135485  1
  Cl  Cl524  1  0.35857252  0.85399402  0.24878745  1
  Cl  Cl525  1  0.86174766  0.18640183  0.24804747  1
  Cl  Cl526  1  0.86215561  0.51948851  0.24757490  1
  Cl  Cl527  1  0.86066061  0.85311932  0.24953569  1
  Cl  Cl528  1  0.11219584  0.31226650  0.75168163  1
  Cl  Cl529  1  0.11249863  0.64728708  0.75308214  1
  Cl  Cl530  1  0.10609332  0.98084782  0.75410940  1
  Cl  Cl531  1  0.60776702  0.31408743  0.74824559  1
  Cl  Cl532  1  0.61267796  0.64630281  0.75131045  1
  Cl  Cl533  1  0.61319199  0.98004809  0.75025288  1
  Cl  Cl534  1  0.38680567  0.02029221  0.24393147  1
  Cl  Cl535  1  0.38719356  0.35440559  0.25370398  1
  Cl  Cl536  1  0.39012401  0.68720231  0.25010816  1
  Cl  Cl537  1  0.89393727  0.01982166  0.24823295  1
  Cl  Cl538  1  0.89169781  0.35150311  0.24828558  1
  Cl  Cl539  1  0.88881476  0.68601808  0.24741667  1
  Cl  Cl540  1  0.38655261  0.31232108  0.74805312  1
  Cl  Cl541  1  0.38852130  0.64807237  0.75095445  1
  Cl  Cl542  1  0.39312139  0.98198587  0.74899668  1
  Cl  Cl543  1  0.89188784  0.31076653  0.75102476  1
  Cl  Cl544  1  0.89082726  0.64742238  0.75067245  1
  Cl  Cl545  1  0.88605105  0.97852424  0.75505418  1
  Cl  Cl546  1  0.11219188  0.02191550  0.24365242  1
  Cl  Cl547  1  0.11289720  0.35248991  0.24847519  1
  Cl  Cl548  1  0.11188299  0.68705951  0.24789883  1
  Cl  Cl549  1  0.61032745  0.01988648  0.25078819  1
  Cl  Cl550  1  0.61042463  0.35221887  0.24944143  1
  Cl  Cl551  1  0.61155723  0.68698224  0.24365990  1
