# generated using pymatgen
data_H8PbC4(N3Cl2)2
_symmetry_space_group_name_H-M   'P 1'
_cell_length_a   16.62219977
_cell_length_b   22.50267191
_cell_length_c   21.58866268
_cell_angle_alpha   89.99983265
_cell_angle_beta   90.00312065
_cell_angle_gamma   89.99693585
_symmetry_Int_Tables_number   1
_chemical_formula_structural   H8PbC4(N3Cl2)2
_chemical_formula_sum   'H192 Pb24 C96 N144 Cl96'
_cell_volume   8075.10772846
_cell_formula_units_Z   24
loop_
 _symmetry_equiv_pos_site_id
 _symmetry_equiv_pos_as_xyz
  1  'x, y, z'
loop_
 _atom_site_type_symbol
 _atom_site_label
 _atom_site_symmetry_multiplicity
 _atom_site_fract_x
 _atom_site_fract_y
 _atom_site_fract_z
 _atom_site_occupancy
  H  H0  1  0.00920393  0.03323702  0.67808015  1
  H  H1  1  -0.00005847  0.36347517  0.68210067  1
  H  H2  1  0.00415018  0.69885800  0.67922854  1
  H  H3  1  0.49490284  0.03291395  0.68033528  1
  H  H4  1  0.49931410  0.36584414  0.67687621  1
  H  H5  1  0.50059057  0.69934117  0.67774901  1
  H  H6  1  -0.00570438  0.30403551  0.18088025  1
  H  H7  1  0.00421336  0.63405468  0.18053702  1
  H  H8  1  -0.00525203  0.96919188  0.17845969  1
  H  H9  1  0.50629033  0.30334888  0.18293686  1
  H  H10  1  0.50204624  0.63522417  0.17906138  1
  H  H11  1  0.50443115  0.96723582  0.18178785  1
  H  H12  1  -0.00776702  0.03060564  0.81835805  1
  H  H13  1  -0.00120025  0.36606923  0.82370934  1
  H  H14  1  0.00525020  0.69847747  0.82080987  1
  H  H15  1  0.50788705  0.03229988  0.81835434  1
  H  H16  1  0.50218332  0.36628366  0.82096126  1
  H  H17  1  0.50451450  0.69825806  0.81908499  1
  H  H18  1  0.00160796  0.29937281  0.32075116  1
  H  H19  1  0.00272560  0.63646762  0.32165981  1
  H  H20  1  -0.00629996  0.96932100  0.32310995  1
  H  H21  1  0.50202053  0.30139906  0.31914712  1
  H  H22  1  0.49757789  0.63597280  0.31827889  1
  H  H23  1  0.50223658  0.96921787  0.31898979  1
  H  H24  1  0.25282091  0.19928637  0.67612764  1
  H  H25  1  0.25923695  0.53280995  0.68030285  1
  H  H26  1  0.24812203  0.86469889  0.67926251  1
  H  H27  1  0.74178534  0.19788837  0.68138307  1
  H  H28  1  0.74614426  0.53083573  0.68111782  1
  H  H29  1  0.75294195  0.86549926  0.67899238  1
  H  H30  1  0.25169391  0.13310236  0.18089928  1
  H  H31  1  0.25021070  0.46675122  0.17621144  1
  H  H32  1  0.24623408  0.80267090  0.18089977  1
  H  H33  1  0.74666104  0.13353095  0.18268773  1
  H  H34  1  0.74734744  0.46881075  0.18108000  1
  H  H35  1  0.74742311  0.80075838  0.18112075  1
  H  H36  1  0.26168038  0.19967941  0.81794417  1
  H  H37  1  0.24418224  0.53281559  0.82072180  1
  H  H38  1  0.25622961  0.86528116  0.81911908  1
  H  H39  1  0.74665150  0.19941769  0.81523214  1
  H  H40  1  0.75185841  0.53146607  0.81846670  1
  H  H41  1  0.74606290  0.86402046  0.82011251  1
  H  H42  1  0.25178211  0.13380761  0.32434704  1
  H  H43  1  0.23879639  0.46682194  0.31969388  1
  H  H44  1  0.23725013  0.79879901  0.32477998  1
  H  H45  1  0.75274753  0.13506325  0.31978738  1
  H  H46  1  0.76082478  0.46768830  0.31999533  1
  H  H47  1  0.75619909  0.80049433  0.32203037  1
  H  H48  1  0.12076803  0.05916437  0.59808668  1
  H  H49  1  0.12478696  0.38621898  0.61052577  1
  H  H50  1  0.12615357  0.72171422  0.60695631  1
  H  H51  1  0.62028156  0.05185002  0.61219569  1
  H  H52  1  0.62497189  0.38781584  0.60960011  1
  H  H53  1  0.62298147  0.72629478  0.60667807  1
  H  H54  1  0.37633534  0.28125572  0.11624158  1
  H  H55  1  0.36914901  0.61254980  0.11663927  1
  H  H56  1  0.37060334  0.94882374  0.12160925  1
  H  H57  1  0.88009976  0.27759285  0.10188972  1
  H  H58  1  0.86876691  0.61483046  0.11900139  1
  H  H59  1  0.87519346  0.94409661  0.10342701  1
  H  H60  1  0.37130243  0.05147280  0.87848500  1
  H  H61  1  0.37004704  0.38794415  0.88391372  1
  H  H62  1  0.37319172  0.72029578  0.88417825  1
  H  H63  1  0.87366066  0.05501611  0.89598708  1
  H  H64  1  0.87504156  0.38820016  0.89221927  1
  H  H65  1  0.86898957  0.71702250  0.88022167  1
  H  H66  1  0.12136038  0.27670344  0.39604684  1
  H  H67  1  0.12765063  0.61392853  0.39278198  1
  H  H68  1  0.13180674  0.95282646  0.38056828  1
  H  H69  1  0.61975198  0.27905405  0.39559240  1
  H  H70  1  0.62918055  0.61585623  0.38442123  1
  H  H71  1  0.62559164  0.94344950  0.39191866  1
  H  H72  1  0.37658465  0.21964847  0.60650569  1
  H  H73  1  0.36772872  0.55799871  0.59606456  1
  H  H74  1  0.36556545  0.88912138  0.60247110  1
  H  H75  1  0.87808616  0.21732803  0.62126201  1
  H  H76  1  0.87350526  0.55517883  0.61380574  1
  H  H77  1  0.86798303  0.88962755  0.60012372  1
  H  H78  1  0.12850147  0.11237807  0.10931531  1
  H  H79  1  0.12679470  0.44620486  0.10746057  1
  H  H80  1  0.13206708  0.77581226  0.10200557  1
  H  H81  1  0.62961546  0.11075695  0.10563794  1
  H  H82  1  0.63129034  0.44585479  0.10290868  1
  H  H83  1  0.63126441  0.77659390  0.10182986  1
  H  H84  1  0.12336103  0.21785347  0.87472778  1
  H  H85  1  0.13843495  0.55457787  0.90429022  1
  H  H86  1  0.12944344  0.88779428  0.88825135  1
  H  H87  1  0.62462633  0.22131618  0.88686940  1
  H  H88  1  0.63305507  0.55613481  0.89508210  1
  H  H89  1  0.63083018  0.88775356  0.90003914  1
  H  H90  1  0.37648947  0.11427917  0.39308721  1
  H  H91  1  0.37945919  0.44916834  0.37327733  1
  H  H92  1  0.37642819  0.78410285  0.37783644  1
  H  H93  1  0.87866458  0.11151073  0.39023095  1
  H  H94  1  0.86551395  0.44317833  0.40478833  1
  H  H95  1  0.87226282  0.77735558  0.39709745  1
  H  H96  1  0.37074552  0.27969013  0.38570242  1
  H  H97  1  0.38037557  0.61226235  0.39508145  1
  H  H98  1  0.37634131  0.94852564  0.38945343  1
  H  H99  1  0.87288223  0.27840207  0.38925933  1
  H  H100  1  0.87842119  0.61371435  0.39162449  1
  H  H101  1  0.88580910  0.93880078  0.40454756  1
  H  H102  1  0.12179520  0.05239884  0.88610586  1
  H  H103  1  0.12371319  0.38706474  0.89141346  1
  H  H104  1  0.11585206  0.72662600  0.90133444  1
  H  H105  1  0.61863886  0.05637959  0.89946403  1
  H  H106  1  0.61909005  0.39072284  0.89814358  1
  H  H107  1  0.62134322  0.72259902  0.89551958  1
  H  H108  1  0.12797107  0.28445891  0.11994313  1
  H  H109  1  0.11743919  0.60833186  0.10314013  1
  H  H110  1  0.12355483  0.94673579  0.11071736  1
  H  H111  1  0.62593239  0.27840519  0.10957334  1
  H  H112  1  0.61780932  0.61166884  0.10149227  1
  H  H113  1  0.61900298  0.94395560  0.10452302  1
  H  H114  1  0.37066244  0.05454795  0.60906552  1
  H  H115  1  0.37650349  0.38594653  0.60596205  1
  H  H116  1  0.37452959  0.71817419  0.60748055  1
  H  H117  1  0.87345023  0.05105021  0.61775067  1
  H  H118  1  0.87518004  0.38809458  0.61347883  1
  H  H119  1  0.87680454  0.71968256  0.61327866  1
  H  H120  1  0.12753201  0.11428109  0.39385549  1
  H  H121  1  0.13383673  0.44229912  0.40459533  1
  H  H122  1  0.13168528  0.77486642  0.40688875  1
  H  H123  1  0.63005798  0.11217514  0.39248460  1
  H  H124  1  0.62029814  0.44996918  0.37389085  1
  H  H125  1  0.62422800  0.78184816  0.38341735  1
  H  H126  1  0.36829912  0.22681175  0.90314942  1
  H  H127  1  0.38460641  0.54965391  0.87387849  1
  H  H128  1  0.37817864  0.88777888  0.89153883  1
  H  H129  1  0.87407002  0.22022684  0.88200492  1
  H  H130  1  0.88158081  0.55230793  0.88731019  1
  H  H131  1  0.87835789  0.88654023  0.88314275  1
  H  H132  1  0.37830259  0.11165347  0.11094848  1
  H  H133  1  0.37513956  0.44648926  0.10813136  1
  H  H134  1  0.38028287  0.78197890  0.12043109  1
  H  H135  1  0.87852092  0.11385913  0.11641522  1
  H  H136  1  0.88001070  0.44703523  0.11703193  1
  H  H137  1  0.87894717  0.77993142  0.11513324  1
  H  H138  1  0.12760584  0.21831208  0.60799520  1
  H  H139  1  0.12220875  0.55288148  0.62293948  1
  H  H140  1  0.11738859  0.88450813  0.61452538  1
  H  H141  1  0.63044595  0.22276086  0.60134148  1
  H  H142  1  0.62448930  0.55434150  0.60619883  1
  H  H143  1  0.61971797  0.88548815  0.61668939  1
  H  H144  1  0.20926221  0.57845616  1.01092435  1
  H  H145  1  0.69407317  0.41905990  -0.00443372  1
  H  H146  1  0.69005976  0.08448912  -0.00230628  1
  H  H147  1  0.19605201  0.75662713  -0.00229576  1
  H  H148  1  0.89792026  0.75358576  0.98488460  1
  H  H149  1  0.91738501  0.24933716  0.49445651  1
  H  H150  1  0.94547606  0.26244160  -0.00329906  1
  H  H151  1  0.83248431  0.23933899  0.99712285  1
  H  H152  1  0.33389171  0.08186526  0.00611396  1
  H  H153  1  0.80306610  0.91190280  0.49576601  1
  H  H154  1  0.91583669  0.74901992  0.50054321  1
  H  H155  1  0.55602097  0.41900632  1.00183691  1
  H  H156  1  0.09873340  0.25397036  0.00784402  1
  H  H157  1  0.39778872  0.58304415  0.00810631  1
  H  H158  1  0.41399390  0.75242364  0.50462670  1
  H  H159  1  0.55942723  0.91628376  -0.00423739  1
  H  H160  1  0.55050519  0.08217707  1.00543216  1
  H  H161  1  0.29055824  0.25551429  1.00137489  1
  H  H162  1  0.67486908  0.24024823  1.00074973  1
  H  H163  1  0.07393833  0.40446330  0.50311438  1
  H  H164  1  0.20707601  0.41400377  0.50837897  1
  H  H165  1  0.35056521  0.75212968  0.00819863  1
  H  H166  1  0.05590952  0.57778292  -0.00408556  1
  H  H167  1  0.90027273  0.58349505  0.01261062  1
  H  H168  1  0.17572459  0.08309110  -0.00036948  1
  H  H169  1  0.08036090  0.58630262  0.49732879  1
  H  H170  1  0.44087500  0.58270219  0.50192436  1
  H  H171  1  0.55806238  0.58365894  -0.00634404  1
  H  H172  1  0.04478354  0.74189365  1.00408284  1
  H  H173  1  0.69826613  0.91057912  1.00268636  1
  H  H174  1  0.79257912  0.41791563  0.50960371  1
  H  H175  1  0.36328608  0.41928222  0.48196171  1
  H  H176  1  0.57745907  0.08055527  0.49962154  1
  H  H177  1  0.69802304  0.24905168  0.49487727  1
  H  H178  1  0.82994276  0.58600242  0.50442992  1
  H  H179  1  0.55973326  0.25276373  0.50412733  1
  H  H180  1  0.42383784  0.92063600  0.49877443  1
  H  H181  1  0.56928567  0.25812252  -0.00283942  1
  H  H182  1  0.41989885  0.26211760  0.00765947  1
  H  H183  1  0.57589355  0.74593137  0.50239546  1
  H  H184  1  0.29307520  0.58700899  0.49710867  1
  H  H185  1  0.07794429  0.92121973  0.00469458  1
  H  H186  1  0.83118983  0.08484676  0.49472209  1
  H  H187  1  0.39706333  0.91947012  0.00843917  1
  H  H188  1  0.11008832  0.91625932  0.48664421  1
  H  H189  1  0.92128086  0.41538554  0.50189771  1
  H  H190  1  0.63548802  0.42116319  0.48350581  1
  H  H191  1  0.96039082  0.92480055  0.50602828  1
  Pb  Pb192  1  0.24760190  0.04549317  0.75134959  1
  Pb  Pb193  1  0.24715612  0.38046961  0.74535127  1
  Pb  Pb194  1  0.25244318  0.71543647  0.75636804  1
  Pb  Pb195  1  0.74867101  0.04799192  0.75152910  1
  Pb  Pb196  1  0.75002551  0.37912878  0.75076388  1
  Pb  Pb197  1  0.74798803  0.71223886  0.74779791  1
  Pb  Pb198  1  0.25100077  0.28714099  0.24641538  1
  Pb  Pb199  1  0.25530750  0.61781828  0.25457240  1
  Pb  Pb200  1  0.25144267  0.95446952  0.25041997  1
  Pb  Pb201  1  0.75560277  0.28501987  0.24887318  1
  Pb  Pb202  1  0.75024566  0.62162487  0.25099556  1
  Pb  Pb203  1  0.75686570  0.95085251  0.25042329  1
  Pb  Pb204  1  0.00015029  0.21218157  0.75177455  1
  Pb  Pb205  1  0.00068297  0.54870968  0.75320405  1
  Pb  Pb206  1  -0.00262784  0.87973602  0.74596420  1
  Pb  Pb207  1  0.49533953  0.21546582  0.75265343  1
  Pb  Pb208  1  0.50058057  0.54571016  0.74647865  1
  Pb  Pb209  1  0.50264257  0.88158324  0.75247723  1
  Pb  Pb210  1  0.00529579  0.11971471  0.25134904  1
  Pb  Pb211  1  0.00095852  0.45463941  0.26062321  1
  Pb  Pb212  1  0.00647719  0.78388282  0.24932544  1
  Pb  Pb213  1  0.50424128  0.11865343  0.24862199  1
  Pb  Pb214  1  0.50562319  0.45206596  0.24014632  1
  Pb  Pb215  1  0.50167585  0.78784256  0.25012492  1
  C  C216  1  0.00077500  0.04769748  0.63082315  1
  C  C217  1  0.00059477  0.37845539  0.63423810  1
  C  C218  1  0.00178532  0.71376152  0.63158873  1
  C  C219  1  0.49581600  0.04682476  0.63234308  1
  C  C220  1  0.50028449  0.38010053  0.62900634  1
  C  C221  1  0.49935866  0.71456431  0.62989604  1
  C  C222  1  0.00049826  0.28945240  0.13306456  1
  C  C223  1  -0.00387706  0.61920971  0.13298579  1
  C  C224  1  -0.00184312  0.95355555  0.13109857  1
  C  C225  1  0.50225903  0.28794958  0.13532658  1
  C  C226  1  0.49573250  0.61973277  0.13150757  1
  C  C227  1  0.49759962  0.95308096  0.13394936  1
  C  C228  1  -0.00427929  0.04559121  0.86602595  1
  C  C229  1  -0.00087491  0.38076591  0.87155546  1
  C  C230  1  -0.00355615  0.71336254  0.86829327  1
  C  C231  1  0.49884260  0.04695746  0.86579824  1
  C  C232  1  0.49736737  0.38104066  0.86853612  1
  C  C233  1  0.49915611  0.71319813  0.86642346  1
  C  C234  1  -0.00180184  0.28482749  0.36861182  1
  C  C235  1  0.00346433  0.62108612  0.36918385  1
  C  C236  1  0.00396751  0.95385337  0.37021746  1
  C  C237  1  0.49725501  0.28689432  0.36691382  1
  C  C238  1  0.50254315  0.62121252  0.36593505  1
  C  C239  1  0.50161527  0.95369637  0.36654888  1
  C  C240  1  0.25230158  0.21284575  0.62772393  1
  C  C241  1  0.25003623  0.54745999  0.63295928  1
  C  C242  1  0.24372012  0.87906534  0.63155609  1
  C  C243  1  0.75050494  0.21261429  0.63398510  1
  C  C244  1  0.74781531  0.54667347  0.63368874  1
  C  C245  1  0.74709059  0.87903251  0.63112210  1
  C  C246  1  0.25328043  0.11841902  0.13291889  1
  C  C247  1  0.25081945  0.45270925  0.12821175  1
  C  C248  1  0.25267056  0.78795682  0.13315154  1
  C  C249  1  0.75182587  0.11905371  0.13493617  1
  C  C250  1  0.75303360  0.45383038  0.13352763  1
  C  C251  1  0.75262389  0.78674527  0.13317391  1
  C  C252  1  0.25139806  0.21401917  0.86529568  1
  C  C253  1  0.25571424  0.54586238  0.86825838  1
  C  C254  1  0.25437733  0.88021325  0.86658458  1
  C  C255  1  0.74845859  0.21356398  0.86332960  1
  C  C256  1  0.75560784  0.54620143  0.86627310  1
  C  C257  1  0.75141001  0.87891731  0.86766472  1
  C  C258  1  0.25195573  0.12047052  0.37279433  1
  C  C259  1  0.25133681  0.45263906  0.36693330  1
  C  C260  1  0.24896980  0.78571449  0.37228717  1
  C  C261  1  0.75419305  0.11952240  0.36731354  1
  C  C262  1  0.74825574  0.45308937  0.36713345  1
  C  C263  1  0.75055227  0.78647587  0.36983975  1
  C  C264  1  0.28996847  0.90775906  0.96022492  1
  C  C265  1  0.46136360  0.40561448  0.53519137  1
  C  C266  1  0.78862380  0.57426158  0.54217498  1
  C  C267  1  0.71098445  0.23449313  0.95919906  1
  C  C268  1  0.72685954  0.42808265  0.03822880  1
  C  C269  1  0.95804622  0.73958631  0.53813607  1
  C  C270  1  0.21135552  0.42688578  0.03570444  1
  C  C271  1  0.44503221  0.40924044  0.95873015  1
  C  C272  1  0.79294650  0.23391245  0.95743963  1
  C  C273  1  0.95950713  0.40754879  0.96354311  1
  C  C274  1  0.69914866  0.76067357  0.45962376  1
  C  C275  1  0.72406042  0.09435288  0.03962154  1
  C  C276  1  0.02348635  0.07708592  0.53567316  1
  C  C277  1  0.51961023  0.07219209  0.96211245  1
  C  C278  1  0.29247060  0.42693092  0.03599759  1
  C  C279  1  0.46325059  0.92951980  0.45972659  1
  C  C280  1  0.44381278  0.92886213  0.04348839  1
  C  C281  1  0.96131680  0.59352528  0.46280294  1
  C  C282  1  0.30631425  0.76129982  0.04417229  1
  C  C283  1  0.54325530  0.40625643  0.53635145  1
  C  C284  1  0.23942055  0.56961674  0.96715774  1
  C  C285  1  0.52830900  0.74196764  0.96079631  1
  C  C286  1  0.45547535  0.07209470  0.53866309  1
  C  C287  1  0.47485258  0.59387066  0.46039307  1
  C  C288  1  0.29127438  0.23645888  0.53489567  1
  C  C289  1  0.23469085  0.42530851  0.46418423  1
  C  C290  1  0.31948763  0.56776709  0.95504217  1
  C  C291  1  0.72914919  0.23875532  0.53804441  1
  C  C292  1  0.23107134  0.76022439  0.46878661  1
  C  C293  1  0.52457463  0.59340030  0.03580036  1
  C  C294  1  0.21414740  0.09311564  0.03901048  1
  C  C295  1  0.02367879  0.59077973  0.03773430  1
  C  C296  1  0.76497272  0.42736054  0.46494269  1
  C  C297  1  0.19727658  0.90310468  0.54000780  1
  C  C298  1  0.04007604  0.40723788  0.96334483  1
  C  C299  1  0.52562854  0.92738301  0.03734055  1
  C  C300  1  0.53729324  0.26183960  0.04082264  1
  C  C301  1  0.53704667  0.07143529  0.53797744  1
  C  C302  1  0.69329884  0.90465955  0.54069769  1
  C  C303  1  0.03967440  0.74037371  0.53748704  1
  C  C304  1  0.05454808  0.26358869  0.04386952  1
  C  C305  1  0.95888834  0.40602863  0.54188550  1
  C  C306  1  0.21099391  0.23610451  0.53542724  1
  C  C307  1  0.21226543  0.09700291  0.46555963  1
  C  C308  1  0.52593369  0.26223939  0.46204341  1
  C  C309  1  0.31157635  0.76398444  0.45923742  1
  C  C310  1  0.78041929  0.75920897  0.46460922  1
  C  C311  1  0.29253222  0.09698971  0.46538355  1
  N  N312  1  0.01936137  0.74676626  0.96083148  1
  N  N313  1  0.53575137  0.74765622  0.53965524  1
  N  N314  1  0.72426527  0.76178171  0.03699413  1
  N  N315  1  0.72368543  0.57305346  0.96125974  1
  N  N316  1  0.04057754  0.59396068  0.46179780  1
  N  N317  1  0.72735214  0.90567907  0.96127978  1
  N  N318  1  0.96458763  0.07354974  0.96087225  1
  N  N319  1  0.03868640  0.40568033  0.54198720  1
  N  N320  1  0.94135382  0.73512074  0.95622874  1
  N  N321  1  0.95692346  0.26063093  0.45955662  1
  N  N322  1  0.71362078  0.09384783  0.46105749  1
  N  N323  1  0.80510666  0.90523705  0.95707546  1
  N  N324  1  0.68688494  0.42904486  0.45301724  1
  N  N325  1  0.79212231  0.09348502  0.45860336  1
  N  N326  1  0.80803649  0.23751964  0.54470190  1
  N  N327  1  0.18934632  0.57301367  0.54612995  1
  N  N328  1  0.70937150  0.57337082  0.53903606  1
  N  N329  1  0.94607771  0.07399093  0.54055885  1
  N  N330  1  0.80024060  0.57146877  0.95862301  1
  N  N331  1  0.55392518  0.59501881  0.45697455  1
  N  N332  1  0.97515387  0.26120049  0.03838241  1
  N  N333  1  0.94458319  0.59413068  0.04426070  1
  N  N334  1  0.06243524  0.93173816  0.45670204  1
  N  N335  1  0.03501782  0.25984610  0.46343911  1
  N  N336  1  0.52390822  0.40920222  0.96256892  1
  N  N337  1  0.54239976  0.92789624  0.46095188  1
  N  N338  1  0.80060780  0.76369642  0.04116810  1
  N  N339  1  0.18905686  0.23682327  0.95210806  1
  N  N340  1  0.45787653  0.26090949  0.04489331  1
  N  N341  1  0.44528515  0.59328092  0.04223420  1
  N  N342  1  0.29388094  0.09372218  0.04051732  1
  N  N343  1  0.96117185  0.92602720  0.03705844  1
  N  N344  1  0.98504399  0.91863349  0.46268217  1
  N  N345  1  0.26674364  0.57489010  0.53836779  1
  N  N346  1  0.44080378  0.07088935  0.95525411  1
  N  N347  1  0.26613727  0.23945131  0.96073434  1
  N  N348  1  0.04113178  0.07256927  0.95777645  1
  N  N349  1  0.45805571  0.73404653  0.53667037  1
  N  N350  1  0.77189830  0.90530753  0.53622753  1
  N  N351  1  0.44694355  0.26187637  0.45854097  1
  N  N352  1  0.21193845  0.90766702  0.96047601  1
  N  N353  1  0.80309122  0.09524608  0.04312101  1
  N  N354  1  0.03921464  0.92629848  0.04121935  1
  N  N355  1  0.80583358  0.42720599  0.04308673  1
  N  N356  1  0.45085203  0.74057769  0.95827949  1
  N  N357  1  0.22696702  0.75886595  0.03894222  1
  N  N358  1  0.31286860  0.42747433  0.45231435  1
  N  N359  1  0.27475484  0.90588093  0.53497678  1
  N  N360  1  0.05922289  0.06096350  0.58951069  1
  N  N361  1  0.06405650  0.38516350  0.59808915  1
  N  N362  1  0.06593103  0.72496247  0.59392961  1
  N  N363  1  0.56100669  0.05574659  0.59751964  1
  N  N364  1  0.56576127  0.39073504  0.59434202  1
  N  N365  1  0.56223801  0.72614093  0.59430408  1
  N  N366  1  0.43645670  0.28033696  0.10217712  1
  N  N367  1  0.42820418  0.60955949  0.10108537  1
  N  N368  1  0.42823222  0.94464361  0.10378921  1
  N  N369  1  0.94178173  0.28064246  0.09277211  1
  N  N370  1  0.92778730  0.61122597  0.10303745  1
  N  N371  1  0.93608157  0.94183261  0.09387933  1
  N  N372  1  0.42983984  0.05543581  0.89485918  1
  N  N373  1  0.42847353  0.39215697  0.90039892  1
  N  N374  1  0.43246453  0.72234754  0.89820303  1
  N  N375  1  0.93515372  0.05693274  0.90415791  1
  N  N376  1  0.93398247  0.39168271  0.90752462  1
  N  N377  1  0.92714916  0.72363243  0.89633975  1
  N  N378  1  0.06013478  0.27487800  0.40640559  1
  N  N379  1  0.06716368  0.61145611  0.40424379  1
  N  N380  1  0.07426348  0.94459427  0.39716315  1
  N  N381  1  0.55869259  0.27729895  0.40605948  1
  N  N382  1  0.56936871  0.61196846  0.39805093  1
  N  N383  1  0.56471564  0.94303454  0.40252131  1
  N  N384  1  0.31739491  0.22258906  0.59135757  1
  N  N385  1  0.30531266  0.55846862  0.59053812  1
  N  N386  1  0.30371218  0.89006671  0.59324403  1
  N  N387  1  0.81939067  0.22133921  0.60486749  1
  N  N388  1  0.81369262  0.55799175  0.59994836  1
  N  N389  1  0.80633336  0.88745836  0.59119822  1
  N  N390  1  0.18878504  0.10872966  0.09627072  1
  N  N391  1  0.18601518  0.44246977  0.09191879  1
  N  N392  1  0.19391268  0.77875842  0.09292514  1
  N  N393  1  0.69086053  0.10860253  0.09567419  1
  N  N394  1  0.69277137  0.44381459  0.09354556  1
  N  N395  1  0.69320081  0.77611135  0.09379834  1
  N  N396  1  0.18052202  0.22035709  0.89303859  1
  N  N397  1  0.20035766  0.55578205  0.91162795  1
  N  N398  1  0.19004105  0.89050842  0.90064130  1
  N  N399  1  0.68442500  0.22209595  0.90025159  1
  N  N400  1  0.69485152  0.55762924  0.90415781  1
  N  N401  1  0.69272723  0.88760369  0.90801694  1
  N  N402  1  0.31753424  0.11109247  0.40863724  1
  N  N403  1  0.32234857  0.44417179  0.39257410  1
  N  N404  1  0.32125735  0.77927225  0.39959908  1
  N  N405  1  0.81794535  0.10907146  0.40209359  1
  N  N406  1  0.80369700  0.44198638  0.41153506  1
  N  N407  1  0.81162342  0.77489716  0.40948808  1
  N  N408  1  0.43080915  0.27725125  0.39929896  1
  N  N409  1  0.44161301  0.60988414  0.40492037  1
  N  N410  1  0.43657177  0.94474830  0.40203566  1
  N  N411  1  0.93294617  0.27543748  0.40222934  1
  N  N412  1  0.93838544  0.60991000  0.40540793  1
  N  N413  1  0.94810401  0.94232172  0.41225549  1
  N  N414  1  0.06158369  0.05525856  0.89903341  1
  N  N415  1  0.06459350  0.39119787  0.90707750  1
  N  N416  1  0.05388598  0.72302193  0.90971058  1
  N  N417  1  0.55666389  0.05791145  0.90760719  1
  N  N418  1  0.55731652  0.39079530  0.90750146  1
  N  N419  1  0.56022759  0.72521662  0.90575655  1
  N  N420  1  0.07018894  0.27959259  0.10284066  1
  N  N421  1  0.05611837  0.60687212  0.09262233  1
  N  N422  1  0.06337816  0.94413934  0.09764951  1
  N  N423  1  0.56536205  0.27664805  0.09741420  1
  N  N424  1  0.55638356  0.60936920  0.09125063  1
  N  N425  1  0.55779747  0.94258423  0.09401920  1
  N  N426  1  0.43085679  0.05735520  0.59567764  1
  N  N427  1  0.43621249  0.38961753  0.59233044  1
  N  N428  1  0.43485918  0.72301317  0.59507150  1
  N  N429  1  0.93207508  0.05562015  0.60142604  1
  N  N430  1  0.93510913  0.39086602  0.59948744  1
  N  N431  1  0.93569735  0.72311549  0.59793080  1
  N  N432  1  0.18676522  0.11109412  0.40902145  1
  N  N433  1  0.19597924  0.44106429  0.41126326  1
  N  N434  1  0.19308066  0.77340050  0.41605126  1
  N  N435  1  0.69094711  0.10957937  0.40372005  1
  N  N436  1  0.67736620  0.44435571  0.39291742  1
  N  N437  1  0.68193798  0.77733924  0.40145720  1
  N  N438  1  0.30580777  0.22676697  0.90788799  1
  N  N439  1  0.32879013  0.55359645  0.89489904  1
  N  N440  1  0.31804166  0.89113114  0.90358769  1
  N  N441  1  0.81486330  0.22120418  0.89760774  1
  N  N442  1  0.82135296  0.55459106  0.89978319  1
  N  N443  1  0.81947303  0.89017501  0.89797195  1
  N  N444  1  0.31777812  0.10842045  0.09871120  1
  N  N445  1  0.31640275  0.44257731  0.09271260  1
  N  N446  1  0.32236447  0.77770792  0.10302680  1
  N  N447  1  0.81856483  0.11032023  0.10262157  1
  N  N448  1  0.82027314  0.44328635  0.10243150  1
  N  N449  1  0.81958355  0.77903412  0.10085495  1
  N  N450  1  0.18652278  0.22199439  0.59210544  1
  N  N451  1  0.17974900  0.55653817  0.60514620  1
  N  N452  1  0.17597690  0.88732304  0.59888394  1
  N  N453  1  0.69241066  0.22392238  0.59252082  1
  N  N454  1  0.68563505  0.55631170  0.59651057  1
  N  N455  1  0.67757228  0.88913858  0.59961984  1
  Cl  Cl456  1  0.24538655  0.05179015  0.62098191  1
  Cl  Cl457  1  0.24802856  0.38893293  0.60903820  1
  Cl  Cl458  1  0.25257506  0.71596292  0.62382517  1
  Cl  Cl459  1  0.74875425  0.04964116  0.61882371  1
  Cl  Cl460  1  0.75201459  0.38806276  0.61482326  1
  Cl  Cl461  1  0.74616382  0.72284074  0.61596328  1
  Cl  Cl462  1  0.25549867  0.27679849  0.10512498  1
  Cl  Cl463  1  0.24156332  0.61269355  0.11971443  1
  Cl  Cl464  1  0.24481363  0.94861443  0.11841557  1
  Cl  Cl465  1  0.75379204  0.27680364  0.11391718  1
  Cl  Cl466  1  0.74337362  0.61366306  0.11952020  1
  Cl  Cl467  1  0.74469908  0.94285507  0.11250301  1
  Cl  Cl468  1  0.24635503  0.05499759  0.88811599  1
  Cl  Cl469  1  0.24743435  0.38280338  0.87510807  1
  Cl  Cl470  1  0.23780331  0.72948523  0.89622891  1
  Cl  Cl471  1  0.74348244  0.05375675  0.88732037  1
  Cl  Cl472  1  0.74140377  0.38832883  0.88408366  1
  Cl  Cl473  1  0.74514686  0.71886416  0.88012085  1
  Cl  Cl474  1  0.24393657  0.28264589  0.37780555  1
  Cl  Cl475  1  0.25587203  0.61032967  0.39450871  1
  Cl  Cl476  1  0.25316026  0.95092170  0.38166512  1
  Cl  Cl477  1  0.74721389  0.27936174  0.38563778  1
  Cl  Cl478  1  0.75645599  0.61494341  0.38378162  1
  Cl  Cl479  1  0.76348586  0.93939095  0.39390905  1
  Cl  Cl480  1  0.00193631  0.21876037  0.62025178  1
  Cl  Cl481  1  -0.00193835  0.55381601  0.61815147  1
  Cl  Cl482  1  -0.00944967  0.89417843  0.60580099  1
  Cl  Cl483  1  0.50765310  0.22100803  0.61955389  1
  Cl  Cl484  1  0.49036302  0.55689653  0.61188223  1
  Cl  Cl485  1  0.49012898  0.88603915  0.61938588  1
  Cl  Cl486  1  0.00427056  0.11776070  0.12068613  1
  Cl  Cl487  1  0.00310415  0.45082315  0.12875128  1
  Cl  Cl488  1  0.00914437  0.77129503  0.10448661  1
  Cl  Cl489  1  0.50400493  0.11321054  0.11201061  1
  Cl  Cl490  1  0.50853650  0.44401927  0.10344572  1
  Cl  Cl491  1  0.50842859  0.77914038  0.11894972  1
  Cl  Cl492  1  -0.00333205  0.22873453  0.88794115  1
  Cl  Cl493  1  0.00979721  0.55661228  0.89019382  1
  Cl  Cl494  1  0.00560478  0.88423232  0.87927082  1
  Cl  Cl495  1  0.49188421  0.22824533  0.89548989  1
  Cl  Cl496  1  0.51248246  0.55265043  0.88338546  1
  Cl  Cl497  1  0.50779113  0.88716630  0.88811106  1
  Cl  Cl498  1  -0.00019463  0.11214705  0.38513796  1
  Cl  Cl499  1  0.00299630  0.44272143  0.39946764  1
  Cl  Cl500  1  0.00069316  0.77908065  0.38196365  1
  Cl  Cl501  1  0.50629633  0.11439363  0.38052149  1
  Cl  Cl502  1  0.49925448  0.45061187  0.37188842  1
  Cl  Cl503  1  0.50119748  0.77724150  0.38509985  1
  Cl  Cl504  1  0.36206001  0.14487015  0.75118998  1
  Cl  Cl505  1  0.36248321  0.47842154  0.75362424  1
  Cl  Cl506  1  0.35761769  0.80910261  0.75159815  1
  Cl  Cl507  1  0.86294671  0.14433127  0.74630340  1
  Cl  Cl508  1  0.86187555  0.47763820  0.74745192  1
  Cl  Cl509  1  0.86219284  0.81143354  0.75403176  1
  Cl  Cl510  1  0.13902465  0.18749994  0.24935360  1
  Cl  Cl511  1  0.13927364  0.51992364  0.25311833  1
  Cl  Cl512  1  0.13972671  0.85342085  0.25050098  1
  Cl  Cl513  1  0.63769056  0.18815491  0.25040563  1
  Cl  Cl514  1  0.63699978  0.52133898  0.25420254  1
  Cl  Cl515  1  0.63649845  0.85576352  0.25469801  1
  Cl  Cl516  1  0.13761221  0.14684654  0.75361555  1
  Cl  Cl517  1  0.13879508  0.47865942  0.74357310  1
  Cl  Cl518  1  0.13544442  0.81094329  0.75038540  1
  Cl  Cl519  1  0.64085052  0.14473215  0.75333047  1
  Cl  Cl520  1  0.63750886  0.47874439  0.74678254  1
  Cl  Cl521  1  0.63623640  0.81241257  0.74626402  1
  Cl  Cl522  1  0.36179814  0.18932301  0.24775119  1
  Cl  Cl523  1  0.35939541  0.52361382  0.24939062  1
  Cl  Cl524  1  0.36374139  0.85463362  0.24888408  1
  Cl  Cl525  1  0.86012377  0.19009992  0.24965736  1
  Cl  Cl526  1  0.86114625  0.52020070  0.25068363  1
  Cl  Cl527  1  0.86014735  0.85669673  0.24862754  1
  Cl  Cl528  1  0.11135300  0.31265222  0.75129098  1
  Cl  Cl529  1  0.10692429  0.64409436  0.74791143  1
  Cl  Cl530  1  0.11210943  0.97778162  0.75213147  1
  Cl  Cl531  1  0.61243134  0.31209110  0.75155622  1
  Cl  Cl532  1  0.61059752  0.64569916  0.74692255  1
  Cl  Cl533  1  0.60869912  0.97781894  0.74862749  1
  Cl  Cl534  1  0.38706693  0.02194422  0.24495098  1
  Cl  Cl535  1  0.38625967  0.35606264  0.24947495  1
  Cl  Cl536  1  0.38713145  0.68852481  0.24578301  1
  Cl  Cl537  1  0.88843641  0.02126174  0.24940126  1
  Cl  Cl538  1  0.88775858  0.35484119  0.25408972  1
  Cl  Cl539  1  0.88828745  0.68740790  0.24609253  1
  Cl  Cl540  1  0.38979757  0.31087434  0.75107429  1
  Cl  Cl541  1  0.38740013  0.64556896  0.75484979  1
  Cl  Cl542  1  0.38481583  0.97844522  0.75538624  1
  Cl  Cl543  1  0.88663845  0.31141720  0.75071864  1
  Cl  Cl544  1  0.88780901  0.64479408  0.75278037  1
  Cl  Cl545  1  0.88808904  0.97729336  0.74650287  1
  Cl  Cl546  1  0.11125192  0.02001906  0.25136749  1
  Cl  Cl547  1  0.11120774  0.35344945  0.24962926  1
  Cl  Cl548  1  0.10719311  0.68807795  0.24766242  1
  Cl  Cl549  1  0.60921576  0.02227562  0.25040856  1
  Cl  Cl550  1  0.60767784  0.35605593  0.24965838  1
  Cl  Cl551  1  0.61041469  0.68648301  0.25336242  1
