# generated using pymatgen
data_H8PbC4(N3Cl2)2
_symmetry_space_group_name_H-M   'P 1'
_cell_length_a   16.62200512
_cell_length_b   22.50140888
_cell_length_c   21.58884044
_cell_angle_alpha   90.00034686
_cell_angle_beta   89.99173752
_cell_angle_gamma   90.00057072
_symmetry_Int_Tables_number   1
_chemical_formula_structural   H8PbC4(N3Cl2)2
_chemical_formula_sum   'H192 Pb24 C96 N144 Cl96'
_cell_volume   8074.62635813
_cell_formula_units_Z   24
loop_
 _symmetry_equiv_pos_site_id
 _symmetry_equiv_pos_as_xyz
  1  'x, y, z'
loop_
 _atom_site_type_symbol
 _atom_site_label
 _atom_site_symmetry_multiplicity
 _atom_site_fract_x
 _atom_site_fract_y
 _atom_site_fract_z
 _atom_site_occupancy
  H  H0  1  -0.00508703  0.03218771  0.68238221  1
  H  H1  1  -0.00397958  0.36497125  0.68177810  1
  H  H2  1  -0.00393589  0.69892914  0.68116696  1
  H  H3  1  0.50147768  0.03212912  0.67906904  1
  H  H4  1  0.50177556  0.36585439  0.67830446  1
  H  H5  1  0.50051460  0.70026602  0.67805007  1
  H  H6  1  0.00797483  0.30007760  0.17894446  1
  H  H7  1  -0.00193293  0.63540249  0.17939271  1
  H  H8  1  -0.00427072  0.96960804  0.18266418  1
  H  H9  1  0.49728776  0.30036815  0.17685092  1
  H  H10  1  0.50192553  0.63445399  0.18096798  1
  H  H11  1  0.50556314  0.96748278  0.18383482  1
  H  H12  1  -0.00339543  0.03242379  0.81817813  1
  H  H13  1  -0.00145088  0.36551420  0.81620852  1
  H  H14  1  -0.00358209  0.69889776  0.82245713  1
  H  H15  1  0.50487087  0.03253356  0.81894343  1
  H  H16  1  0.49805305  0.36428509  0.81846984  1
  H  H17  1  0.50413220  0.69706654  0.82013500  1
  H  H18  1  -0.00724725  0.30100322  0.31705034  1
  H  H19  1  0.00720253  0.63367350  0.32002789  1
  H  H20  1  0.00626513  0.96726096  0.32030510  1
  H  H21  1  0.50841500  0.30111595  0.31877135  1
  H  H22  1  0.48963345  0.63401104  0.32203604  1
  H  H23  1  0.49909385  0.96879835  0.32144546  1
  H  H24  1  0.25033890  0.19740119  0.68269526  1
  H  H25  1  0.24741541  0.53269347  0.67960033  1
  H  H26  1  0.24657233  0.86532691  0.68158933  1
  H  H27  1  0.75045525  0.19899348  0.68415893  1
  H  H28  1  0.75036008  0.53203455  0.67764709  1
  H  H29  1  0.74948566  0.86495106  0.67898966  1
  H  H30  1  0.24983944  0.13611771  0.18131086  1
  H  H31  1  0.24067358  0.46828333  0.17936686  1
  H  H32  1  0.25725214  0.80040151  0.17811133  1
  H  H33  1  0.74064883  0.13679577  0.18106824  1
  H  H34  1  0.75820691  0.46685604  0.18325595  1
  H  H35  1  0.74042622  0.80035996  0.18089009  1
  H  H36  1  0.24963267  0.19856610  0.82097537  1
  H  H37  1  0.25058486  0.53338084  0.81968056  1
  H  H38  1  0.24042733  0.86365565  0.81895901  1
  H  H39  1  0.74662739  0.19940941  0.82304213  1
  H  H40  1  0.75482529  0.53185406  0.81972453  1
  H  H41  1  0.75207335  0.86640957  0.81528057  1
  H  H42  1  0.25490351  0.13374132  0.31964861  1
  H  H43  1  0.24524820  0.46657764  0.31968344  1
  H  H44  1  0.24615605  0.80221687  0.32169292  1
  H  H45  1  0.75030575  0.13336415  0.31857146  1
  H  H46  1  0.75703243  0.46763001  0.32206620  1
  H  H47  1  0.75042922  0.80287384  0.31971036  1
  H  H48  1  0.12392296  0.05290731  0.61266363  1
  H  H49  1  0.12454356  0.38731494  0.61287538  1
  H  H50  1  0.12279645  0.71964886  0.61165242  1
  H  H51  1  0.62463752  0.05310566  0.60686374  1
  H  H52  1  0.62335191  0.39057234  0.60622412  1
  H  H53  1  0.62356724  0.72008689  0.60761102  1
  H  H54  1  0.37514117  0.27932235  0.10596808  1
  H  H55  1  0.37703344  0.61272680  0.10862202  1
  H  H56  1  0.37160335  0.94858252  0.12397784  1
  H  H57  1  0.87303298  0.28043795  0.11768710  1
  H  H58  1  0.88178011  0.60973031  0.10174472  1
  H  H59  1  0.87466107  0.94439114  0.10910224  1
  H  H60  1  0.37056760  0.05190730  0.87970429  1
  H  H61  1  0.37411284  0.38655496  0.89020946  1
  H  H62  1  0.37139324  0.71775911  0.88357160  1
  H  H63  1  0.87516443  0.05567482  0.88994690  1
  H  H64  1  0.87497562  0.38537658  0.88695472  1
  H  H65  1  0.87739044  0.71928277  0.89886646  1
  H  H66  1  0.12754553  0.28267517  0.37550261  1
  H  H67  1  0.11800998  0.60923950  0.40082924  1
  H  H68  1  0.11256477  0.94424563  0.40311334  1
  H  H69  1  0.62073034  0.27607435  0.39962844  1
  H  H70  1  0.62472355  0.61444410  0.38272475  1
  H  H71  1  0.61769343  0.94580313  0.39420586  1
  H  H72  1  0.37437721  0.21998971  0.60904278  1
  H  H73  1  0.37904759  0.55256874  0.61469627  1
  H  H74  1  0.38063920  0.88329590  0.62136875  1
  H  H75  1  0.87498479  0.21937369  0.61433060  1
  H  H76  1  0.87699283  0.55425917  0.60997233  1
  H  H77  1  0.88032945  0.88721451  0.61384515  1
  H  H78  1  0.12655420  0.11366920  0.11011145  1
  H  H79  1  0.13127016  0.44293527  0.09640608  1
  H  H80  1  0.12295418  0.77924802  0.11930321  1
  H  H81  1  0.63070904  0.11127834  0.09782574  1
  H  H82  1  0.62357480  0.44787126  0.12461079  1
  H  H83  1  0.63098066  0.77478669  0.09709722  1
  H  H84  1  0.12637979  0.22134701  0.89250730  1
  H  H85  1  0.12367794  0.55519972  0.88984244  1
  H  H86  1  0.13040550  0.89037158  0.90175844  1
  H  H87  1  0.62797712  0.22371640  0.89748243  1
  H  H88  1  0.62112245  0.55259165  0.88231520  1
  H  H89  1  0.62607658  0.88615395  0.88378334  1
  H  H90  1  0.37641549  0.11140207  0.39235003  1
  H  H91  1  0.37821952  0.44966930  0.38254533  1
  H  H92  1  0.37768387  0.78440805  0.38668595  1
  H  H93  1  0.87454283  0.11163059  0.39178287  1
  H  H94  1  0.87314955  0.44358757  0.39871021  1
  H  H95  1  0.86941747  0.77766805  0.39485751  1
  H  H96  1  0.37266461  0.28255560  0.37754535  1
  H  H97  1  0.37748106  0.60989545  0.40260856  1
  H  H98  1  0.36939862  0.94909066  0.38551774  1
  H  H99  1  0.87969125  0.27975678  0.39637460  1
  H  H100  1  0.87035017  0.61328495  0.37860102  1
  H  H101  1  0.86649815  0.95015817  0.37338415  1
  H  H102  1  0.12440557  0.05328613  0.88431105  1
  H  H103  1  0.12473824  0.38599560  0.88412894  1
  H  H104  1  0.12518622  0.72167974  0.88742155  1
  H  H105  1  0.61922085  0.05844685  0.89818163  1
  H  H106  1  0.62306904  0.38558467  0.89015312  1
  H  H107  1  0.61925818  0.72231162  0.90004916  1
  H  H108  1  0.12084116  0.27676355  0.09875910  1
  H  H109  1  0.13036151  0.61316780  0.11743401  1
  H  H110  1  0.12443685  0.94661872  0.11650691  1
  H  H111  1  0.62395395  0.27928323  0.11074447  1
  H  H112  1  0.62568083  0.61144386  0.10719265  1
  H  H113  1  0.61976701  0.94505074  0.10591117  1
  H  H114  1  0.37555342  0.05362885  0.60805100  1
  H  H115  1  0.37427799  0.38861808  0.61073202  1
  H  H116  1  0.37505265  0.71894051  0.60929573  1
  H  H117  1  0.87532686  0.05483173  0.60586180  1
  H  H118  1  0.87621719  0.38951099  0.60573208  1
  H  H119  1  0.87436509  0.72188855  0.60660576  1
  H  H120  1  0.12736124  0.11432716  0.38543767  1
  H  H121  1  0.12961140  0.44417306  0.39530179  1
  H  H122  1  0.13001362  0.77384498  0.39748889  1
  H  H123  1  0.62555699  0.11107468  0.39103371  1
  H  H124  1  0.62479077  0.44815813  0.38565040  1
  H  H125  1  0.62130092  0.78096415  0.38700887  1
  H  H126  1  0.37546299  0.22109196  0.89135434  1
  H  H127  1  0.37253647  0.55500604  0.89243106  1
  H  H128  1  0.37656268  0.88354071  0.87858603  1
  H  H129  1  0.87682211  0.22063575  0.88835261  1
  H  H130  1  0.86870731  0.55788818  0.90003727  1
  H  H131  1  0.87586334  0.88688430  0.88564401  1
  H  H132  1  0.37534092  0.11430251  0.10986540  1
  H  H133  1  0.37811836  0.44840266  0.12291526  1
  H  H134  1  0.36939987  0.77475177  0.09679170  1
  H  H135  1  0.87695307  0.11607313  0.12176137  1
  H  H136  1  0.87155847  0.44521007  0.10417446  1
  H  H137  1  0.87689607  0.78101306  0.12233499  1
  H  H138  1  0.12584364  0.22054024  0.61009667  1
  H  H139  1  0.12999523  0.55655156  0.60252519  1
  H  H140  1  0.13250853  0.88885795  0.60432770  1
  H  H141  1  0.62540025  0.21866287  0.61495048  1
  H  H142  1  0.62792652  0.55567248  0.60523470  1
  H  H143  1  0.63092068  0.88838088  0.60384322  1
  H  H144  1  0.93161106  0.75129629  0.50339560  1
  H  H145  1  0.34384771  0.74733123  0.48861119  1
  H  H146  1  0.41535700  0.41870886  0.50549850  1
  H  H147  1  0.35758517  0.91480012  0.50948338  1
  H  H148  1  0.79973611  0.58158861  1.00234969  1
  H  H149  1  0.80933871  0.42216743  -0.00530340  1
  H  H150  1  0.93521542  0.75765960  0.99585360  1
  H  H151  1  0.64905866  0.42018148  0.01101916  1
  H  H152  1  0.70376598  0.08635282  -0.00253832  1
  H  H153  1  0.67031341  0.23967543  0.50096730  1
  H  H154  1  0.83745216  0.24953401  0.99496587  1
  H  H155  1  0.19160093  0.75923004  0.50110256  1
  H  H156  1  0.20371415  0.41824612  -0.00500305  1
  H  H157  1  0.94214567  0.25727447  0.50585572  1
  H  H158  1  0.39867315  0.91931770  0.01113061  1
  H  H159  1  0.05218676  0.58223921  0.50742889  1
  H  H160  1  0.20294198  0.91460507  1.00233989  1
  H  H161  1  0.19212479  0.58047250  0.49755747  1
  H  H162  1  0.94566442  0.58375769  -0.00207897  1
  H  H163  1  0.40021685  0.08297545  0.99155592  1
  H  H164  1  0.08230568  0.41050918  0.99721898  1
  H  H165  1  0.92290141  0.40697408  1.00044747  1
  H  H166  1  0.84769134  0.91731583  0.50660869  1
  H  H167  1  0.67038115  0.90698409  0.99815818  1
  H  H168  1  0.55169334  0.74629789  1.00225063  1
  H  H169  1  0.89566702  0.58618497  0.48721352  1
  H  H170  1  0.39902262  0.25079349  0.48949092  1
  H  H171  1  0.55349535  0.25261638  0.50222787  1
  H  H172  1  0.08242796  0.92244007  0.00322358  1
  H  H173  1  0.04236706  0.92005477  0.51008179  1
  H  H174  1  0.19222092  0.91772007  0.49613977  1
  H  H175  1  0.18593706  0.41506928  0.50421788  1
  H  H176  1  0.67805458  0.58466362  0.50165034  1
  H  H177  1  0.70480909  0.74923732  -0.00281130  1
  H  H178  1  0.08825952  0.74256432  0.99555588  1
  H  H179  1  0.92211872  0.08421437  0.99920621  1
  H  H180  1  0.55564673  0.08641325  1.00023346  1
  H  H181  1  0.08747530  0.08372491  0.99553778  1
  H  H182  1  0.65957221  0.41984501  0.49277541  1
  H  H183  1  0.42057417  0.41492258  0.99881348  1
  H  H184  1  0.66221633  0.75118446  0.49114162  1
  H  H185  1  0.68494909  0.91942435  0.49662811  1
  H  H186  1  0.10227366  0.25414878  0.48907086  1
  H  H187  1  0.93293746  0.93463044  0.00149135  1
  H  H188  1  0.82773532  0.90334223  1.00036613  1
  H  H189  1  0.16619047  0.08590090  0.49867464  1
  H  H190  1  0.82904228  0.24010820  0.50049943  1
  H  H191  1  0.55862852  0.92238087  -0.00425485  1
  Pb  Pb192  1  0.24982152  0.04468950  0.74705565  1
  Pb  Pb193  1  0.24973044  0.37935801  0.75335262  1
  Pb  Pb194  1  0.25407786  0.71323006  0.74388397  1
  Pb  Pb195  1  0.74764368  0.04927116  0.75552439  1
  Pb  Pb196  1  0.74920131  0.37960367  0.74673213  1
  Pb  Pb197  1  0.74805699  0.71327925  0.75205593  1
  Pb  Pb198  1  0.24775655  0.28709695  0.24430890  1
  Pb  Pb199  1  0.25108506  0.61739115  0.25733182  1
  Pb  Pb200  1  0.24509146  0.95312426  0.25038812  1
  Pb  Pb201  1  0.75178263  0.28675485  0.25261291  1
  Pb  Pb202  1  0.74393782  0.61853888  0.24555530  1
  Pb  Pb203  1  0.74604368  0.95201536  0.24718851  1
  Pb  Pb204  1  0.00126274  0.21236173  0.75009571  1
  Pb  Pb205  1  0.00100672  0.54874457  0.75172773  1
  Pb  Pb206  1  0.00052907  0.87991700  0.75398283  1
  Pb  Pb207  1  0.49725717  0.21310957  0.74534209  1
  Pb  Pb208  1  0.50053008  0.54472072  0.74721513  1
  Pb  Pb209  1  0.50252896  0.88037568  0.74941158  1
  Pb  Pb210  1  -0.00049724  0.12125914  0.24983955  1
  Pb  Pb211  1  -0.00075802  0.45464779  0.24577471  1
  Pb  Pb212  1  -0.00238052  0.78382913  0.25329776  1
  Pb  Pb213  1  0.49942624  0.12128559  0.24360595  1
  Pb  Pb214  1  0.49886900  0.45077795  0.25396879  1
  Pb  Pb215  1  0.49488893  0.78580795  0.24248203  1
  C  C216  1  -0.00182148  0.04630163  0.63439196  1
  C  C217  1  -0.00104915  0.38008142  0.63410874  1
  C  C218  1  -0.00252508  0.71386721  0.63342786  1
  C  C219  1  0.50027195  0.04622160  0.63119837  1
  C  C220  1  0.49938242  0.38123653  0.63078392  1
  C  C221  1  0.49972599  0.71343530  0.62984518  1
  C  C222  1  0.00024205  0.28609283  0.13147094  1
  C  C223  1  0.00302197  0.62027622  0.13198850  1
  C  C224  1  -0.00229042  0.95406750  0.13499775  1
  C  C225  1  0.49882035  0.28594543  0.12894749  1
  C  C226  1  0.50184095  0.62009633  0.13307037  1
  C  C227  1  0.49860483  0.95329272  0.13603000  1
  C  C228  1  -0.00121933  0.04735361  0.86601546  1
  C  C229  1  -0.00058960  0.37969165  0.86428183  1
  C  C230  1  -0.00047804  0.71415043  0.87020899  1
  C  C231  1  0.49833494  0.04743405  0.86665615  1
  C  C232  1  0.49849538  0.37858498  0.86643598  1
  C  C233  1  0.49878157  0.71184722  0.86769584  1
  C  C234  1  0.00032212  0.28729747  0.36493431  1
  C  C235  1  -0.00210765  0.61898251  0.36750270  1
  C  C236  1  -0.00478260  0.95391087  0.36777241  1
  C  C237  1  0.50091645  0.28690403  0.36662425  1
  C  C238  1  0.49759306  0.61988154  0.36947940  1
  C  C239  1  0.49523938  0.95446989  0.36913287  1
  C  C240  1  0.25027615  0.21205090  0.63478741  1
  C  C241  1  0.25180922  0.54650845  0.63171906  1
  C  C242  1  0.25358551  0.87955699  0.63379214  1
  C  C243  1  0.75027751  0.21289059  0.63598684  1
  C  C244  1  0.75136119  0.54746648  0.63008297  1
  C  C245  1  0.75413241  0.88042351  0.63139290  1
  C  C246  1  0.25103173  0.12126500  0.13380278  1
  C  C247  1  0.24964737  0.45383333  0.13193662  1
  C  C248  1  0.25013221  0.78540378  0.13088598  1
  C  C249  1  0.74924156  0.12175527  0.13379666  1
  C  C250  1  0.75078477  0.45311426  0.13534316  1
  C  C251  1  0.74917308  0.78579757  0.13342029  1
  C  C252  1  0.25070743  0.21357486  0.86851931  1
  C  C253  1  0.24845853  0.54754535  0.86748822  1
  C  C254  1  0.24883673  0.87872849  0.86628694  1
  C  C255  1  0.75093667  0.21429569  0.87064080  1
  C  C256  1  0.74855674  0.54672171  0.86731010  1
  C  C257  1  0.75144068  0.88061647  0.86335684  1
  C  C258  1  0.25229110  0.11976920  0.36760032  1
  C  C259  1  0.25079375  0.45318934  0.36766357  1
  C  C260  1  0.25114191  0.78706143  0.36939558  1
  C  C261  1  0.75012739  0.11912347  0.36662105  1
  C  C262  1  0.75120336  0.45300783  0.36964648  1
  C  C263  1  0.74689888  0.78701368  0.36705764  1
  C  C264  1  0.05600872  0.59165251  0.04225777  1
  C  C265  1  0.44451411  0.92941586  0.04576101  1
  C  C266  1  0.97434569  0.26404108  0.46255034  1
  C  C267  1  0.78246011  0.42497234  0.46554062  1
  C  C268  1  0.72164157  0.90831247  0.53688815  1
  C  C269  1  0.70882492  0.23379691  0.54115982  1
  C  C270  1  0.53635728  0.07127369  0.53747632  1
  C  C271  1  0.52605465  0.92936061  0.03885490  1
  C  C272  1  0.19785436  0.75701831  0.04255259  1
  C  C273  1  0.05583318  0.26401569  0.45490701  1
  C  C274  1  0.44457735  0.07315790  0.95590629  1
  C  C275  1  0.21350344  0.09327279  0.04078112  1
  C  C276  1  0.96045019  0.40120746  0.95967589  1
  C  C277  1  0.02427574  0.25861611  0.03580089  1
  C  C278  1  0.22645134  0.90633023  0.53735752  1
  C  C279  1  0.20812469  0.09539883  0.46132202  1
  C  C280  1  0.54226272  0.26032465  0.03748745  1
  C  C281  1  0.45730311  0.73653249  0.53652537  1
  C  C282  1  0.22211187  0.42680628  0.46414761  1
  C  C283  1  0.79082545  0.23408993  0.54088267  1
  C  C284  1  0.04241533  0.40195289  0.95834377  1
  C  C285  1  0.69539840  0.43008080  0.04519539  1
  C  C286  1  0.79105283  0.90102914  0.95877260  1
  C  C287  1  0.28354209  0.57424580  0.96093687  1
  C  C288  1  0.01191116  0.92940932  0.46648212  1
  C  C289  1  0.46163771  0.40442853  0.95975878  1
  C  C290  1  0.96168297  0.07330697  0.96086959  1
  C  C291  1  0.77687653  0.42980919  0.03770477  1
  C  C292  1  0.28967295  0.09474661  0.46211579  1
  C  C293  1  0.46157063  0.26015509  0.03603931  1
  C  C294  1  0.44454043  0.26010801  0.45450786  1
  C  C295  1  0.21456597  0.24108152  0.96137839  1
  C  C296  1  0.47431804  0.59331820  0.46545064  1
  C  C297  1  0.30321484  0.57220369  0.54041444  1
  C  C298  1  0.53750577  0.41039869  0.53670044  1
  C  C299  1  0.53922223  0.73731106  0.53589223  1
  C  C300  1  0.30347521  0.42955416  0.45818791  1
  C  C301  1  0.71622439  0.24346108  0.96538299  1
  C  C302  1  0.02162476  0.59236817  0.46408338  1
  C  C303  1  0.31050628  0.42783853  0.04418147  1
  C  C304  1  0.04372753  0.92793333  0.04353898  1
  C  C305  1  0.79664992  0.57448591  0.53716406  1
  C  C306  1  0.70898146  0.90158023  0.95792186  1
  C  C307  1  0.52804957  0.92785475  0.46326500  1
  C  C308  1  0.44730606  0.92890066  0.46012449  1
  C  C309  1  0.93168212  0.93158241  0.45444170  1
  C  C310  1  0.30816717  0.90463950  0.54377703  1
  C  C311  1  0.04391871  0.07295298  0.95894153  1
  N  N312  1  0.54102656  0.40421537  0.96027599  1
  N  N313  1  0.73054615  0.09299804  0.03991542  1
  N  N314  1  0.04578510  0.74352090  0.95915726  1
  N  N315  1  0.96529810  0.07141555  0.53897391  1
  N  N316  1  0.52244782  0.73909755  0.96115940  1
  N  N317  1  0.71714682  0.57506668  0.53696435  1
  N  N318  1  0.52371896  0.25688471  0.46083221  1
  N  N319  1  0.28799495  0.23869748  0.54092414  1
  N  N320  1  0.22204686  0.75177626  0.46046401  1
  N  N321  1  0.04166200  0.07028720  0.54124514  1
  N  N322  1  0.22436475  0.57270217  0.53718299  1
  N  N323  1  0.96371676  0.92614558  0.04162047  1
  N  N324  1  0.96540674  0.73806413  0.54049209  1
  N  N325  1  0.55167335  0.59449155  0.46025274  1
  N  N326  1  0.96576372  0.40619050  0.53913266  1
  N  N327  1  0.80113502  0.90740864  0.54123682  1
  N  N328  1  0.80919332  0.76381715  0.04506887  1
  N  N329  1  0.70421745  0.76124978  0.45713760  1
  N  N330  1  0.78788089  0.09513402  0.46116963  1
  N  N331  1  0.30736384  0.90382191  0.95408583  1
  N  N332  1  0.45828667  0.40906241  0.53948930  1
  N  N333  1  0.27491844  0.75603327  0.03394342  1
  N  N334  1  0.52383076  0.07477675  0.96128601  1
  N  N335  1  0.45911347  0.07209082  0.53681817  1
  N  N336  1  0.04361821  0.73825071  0.54089416  1
  N  N337  1  0.79518791  0.24134110  0.96122547  1
  N  N338  1  0.53920676  0.59435986  0.03892173  1
  N  N339  1  0.94694850  0.26043293  0.04064079  1
  N  N340  1  0.21180379  0.23860688  0.54110748  1
  N  N341  1  0.23001234  0.90686174  0.96049008  1
  N  N342  1  0.96768857  0.73125651  0.96612145  1
  N  N343  1  0.97730546  0.59171046  0.03790347  1
  N  N344  1  0.78260465  0.75984990  0.46143925  1
  N  N345  1  0.04231917  0.40562586  0.54133766  1
  N  N346  1  0.23201023  0.42615862  0.03639981  1
  N  N347  1  0.70364132  0.42722342  0.45976430  1
  N  N348  1  0.73153975  0.76152326  0.03813592  1
  N  N349  1  0.29185009  0.24130304  0.96221861  1
  N  N350  1  0.29989681  0.76615541  0.45985045  1
  N  N351  1  0.77125671  0.57355392  0.96111833  1
  N  N352  1  0.44480838  0.73763248  0.95703705  1
  N  N353  1  0.29138103  0.09324133  0.03979629  1
  N  N354  1  0.80801382  0.09543604  0.04653304  1
  N  N355  1  0.71171991  0.09494860  0.46093720  1
  N  N356  1  0.94271349  0.59359745  0.45524436  1
  N  N357  1  0.20613615  0.57378165  0.96159330  1
  N  N358  1  0.46288273  0.59425909  0.03935408  1
  N  N359  1  0.69352899  0.57211469  0.95656853  1
  N  N360  1  0.06331051  0.05486458  0.60036123  1
  N  N361  1  0.06407580  0.38958080  0.60024006  1
  N  N362  1  0.06277184  0.72247733  0.59897031  1
  N  N363  1  0.56456627  0.05605811  0.59434567  1
  N  N364  1  0.56301209  0.39312256  0.59336786  1
  N  N365  1  0.56401296  0.72307336  0.59327481  1
  N  N366  1  0.43467069  0.27548344  0.09181405  1
  N  N367  1  0.43812369  0.61030907  0.09757256  1
  N  N368  1  0.42908073  0.94434954  0.10614778  1
  N  N369  1  0.93194118  0.27792137  0.10155801  1
  N  N370  1  0.94341400  0.61085011  0.09264123  1
  N  N371  1  0.93567629  0.94648598  0.09750687  1
  N  N372  1  0.42862171  0.05644844  0.89712228  1
  N  N373  1  0.43446050  0.38889581  0.90240527  1
  N  N374  1  0.43046990  0.72165157  0.89837601  1
  N  N375  1  0.93510252  0.05730866  0.90277756  1
  N  N376  1  0.93487961  0.38790237  0.90067768  1
  N  N377  1  0.93822893  0.72489732  0.90769222  1
  N  N378  1  0.07025550  0.27842644  0.39422092  1
  N  N379  1  0.05622492  0.60787109  0.40960903  1
  N  N380  1  0.05067026  0.94339851  0.41090671  1
  N  N381  1  0.55858392  0.27626243  0.40735072  1
  N  N382  1  0.56601866  0.61155365  0.39910657  1
  N  N383  1  0.55731053  0.94330395  0.40753596  1
  N  N384  1  0.31331446  0.22206361  0.59875593  1
  N  N385  1  0.32034802  0.55655088  0.59903643  1
  N  N386  1  0.32300042  0.88791677  0.60381153  1
  N  N387  1  0.81528262  0.22151051  0.60021334  1
  N  N388  1  0.81776698  0.55765744  0.59512470  1
  N  N389  1  0.82057223  0.89008769  0.59944877  1
  N  N390  1  0.18678939  0.11004366  0.09751893  1
  N  N391  1  0.19342520  0.44376193  0.09003944  1
  N  N392  1  0.18035448  0.77489113  0.10138035  1
  N  N393  1  0.69309000  0.11151251  0.09179641  1
  N  N394  1  0.68087487  0.44446132  0.10582069  1
  N  N395  1  0.69332344  0.77487230  0.09132914  1
  N  N396  1  0.18645437  0.22448143  0.90494345  1
  N  N397  1  0.18401722  0.55695064  0.90190826  1
  N  N398  1  0.19256607  0.88965326  0.90802436  1
  N  N399  1  0.68853921  0.22662601  0.90938359  1
  N  N400  1  0.68001964  0.55654762  0.89756866  1
  N  N401  1  0.68571890  0.88922097  0.89831984  1
  N  N402  1  0.31618726  0.10912961  0.40560142  1
  N  N403  1  0.32005995  0.44531433  0.39961698  1
  N  N404  1  0.31834253  0.77770938  0.40073592  1
  N  N405  1  0.81335600  0.10999986  0.40272820  1
  N  N406  1  0.81223371  0.44090363  0.40973496  1
  N  N407  1  0.80830476  0.77582162  0.40484513  1
  N  N408  1  0.43038143  0.27753832  0.39576211  1
  N  N409  1  0.43875279  0.60833661  0.41100076  1
  N  N410  1  0.42755637  0.94513637  0.40221258  1
  N  N411  1  0.94086564  0.27824504  0.40604038  1
  N  N412  1  0.92866866  0.61054083  0.39598605  1
  N  N413  1  0.92232302  0.94609941  0.39451996  1
  N  N414  1  0.06517546  0.05683816  0.89958683  1
  N  N415  1  0.06528114  0.38876796  0.89875425  1
  N  N416  1  0.06578454  0.72306982  0.90280125  1
  N  N417  1  0.55703249  0.05827084  0.90645626  1
  N  N418  1  0.56229089  0.38776199  0.90187608  1
  N  N419  1  0.55744226  0.72209170  0.90766827  1
  N  N420  1  0.05913729  0.27424619  0.09021337  1
  N  N421  1  0.07217625  0.60893969  0.10050598  1
  N  N422  1  0.06470544  0.94284251  0.10170408  1
  N  N423  1  0.56515750  0.27588341  0.09429608  1
  N  N424  1  0.56485693  0.61013483  0.09698097  1
  N  N425  1  0.55867642  0.94389082  0.09560371  1
  N  N426  1  0.43626665  0.05594335  0.59643848  1
  N  N427  1  0.43434074  0.39072510  0.59717623  1
  N  N428  1  0.43419015  0.72232589  0.59438634  1
  N  N429  1  0.93686763  0.05658010  0.59650276  1
  N  N430  1  0.93758785  0.39055736  0.59644152  1
  N  N431  1  0.93562253  0.72480568  0.59666767  1
  N  N432  1  0.18606811  0.11097995  0.40124160  1
  N  N433  1  0.19037328  0.44200249  0.40660966  1
  N  N434  1  0.19091250  0.77597222  0.40786961  1
  N  N435  1  0.68664122  0.10948849  0.40233745  1
  N  N436  1  0.68391587  0.44463443  0.40073764  1
  N  N437  1  0.68137467  0.77733821  0.40022980  1
  N  N438  1  0.31476477  0.22389524  0.90309889  1
  N  N439  1  0.31226105  0.55822551  0.90454558  1
  N  N440  1  0.31850953  0.88790434  0.89507332  1
  N  N441  1  0.81723176  0.22302209  0.90295083  1
  N  N442  1  0.80659346  0.55664521  0.90779236  1
  N  N443  1  0.81625069  0.88845258  0.89955344  1
  N  N444  1  0.31477100  0.11109301  0.09898958  1
  N  N445  1  0.32124229  0.44421045  0.10355466  1
  N  N446  1  0.30760984  0.77434377  0.09029801  1
  N  N447  1  0.81886416  0.11125947  0.10552655  1
  N  N448  1  0.81035173  0.44392840  0.09442902  1
  N  N449  1  0.81915203  0.77816279  0.10476287  1
  N  N450  1  0.18690417  0.22226726  0.59912285  1
  N  N451  1  0.19147668  0.55540263  0.59283805  1
  N  N452  1  0.19362426  0.89058643  0.59387045  1
  N  N453  1  0.68491168  0.22097453  0.60060497  1
  N  N454  1  0.68897765  0.55835453  0.59423840  1
  N  N455  1  0.69208411  0.89150326  0.59277506  1
  Cl  Cl456  1  0.24838965  0.05385400  0.61369132  1
  Cl  Cl457  1  0.24919722  0.38891349  0.61974630  1
  Cl  Cl458  1  0.24682087  0.72084299  0.60642214  1
  Cl  Cl459  1  0.75149254  0.05009326  0.62389640  1
  Cl  Cl460  1  0.74835753  0.39149405  0.61111609  1
  Cl  Cl461  1  0.75138473  0.71888713  0.61828430  1
  Cl  Cl462  1  0.24452777  0.28398542  0.11354567  1
  Cl  Cl463  1  0.25473210  0.61538427  0.12599421  1
  Cl  Cl464  1  0.24330553  0.94408966  0.11190219  1
  Cl  Cl465  1  0.74952425  0.27697557  0.11891906  1
  Cl  Cl466  1  0.75803766  0.60957385  0.10673772  1
  Cl  Cl467  1  0.74930238  0.94470043  0.11202862  1
  Cl  Cl468  1  0.24736932  0.04901682  0.87775541  1
  Cl  Cl469  1  0.24805521  0.39021787  0.89037704  1
  Cl  Cl470  1  0.24693660  0.71696606  0.87488731  1
  Cl  Cl471  1  0.74119394  0.06011645  0.89457412  1
  Cl  Cl472  1  0.74876300  0.38483212  0.88092911  1
  Cl  Cl473  1  0.74443885  0.72281202  0.89542864  1
  Cl  Cl474  1  0.25166490  0.28299469  0.37528573  1
  Cl  Cl475  1  0.24403693  0.60978192  0.39605178  1
  Cl  Cl476  1  0.23853717  0.94455270  0.38251546  1
  Cl  Cl477  1  0.74770576  0.28066708  0.38828786  1
  Cl  Cl478  1  0.74812270  0.61154430  0.38221921  1
  Cl  Cl479  1  0.74073655  0.94354046  0.38169599  1
  Cl  Cl480  1  0.00170215  0.22137393  0.61543929  1
  Cl  Cl481  1  0.00519625  0.55843211  0.61268667  1
  Cl  Cl482  1  0.00561369  0.88520732  0.61967900  1
  Cl  Cl483  1  0.49976813  0.22484818  0.60594690  1
  Cl  Cl484  1  0.50441554  0.55107504  0.61368839  1
  Cl  Cl485  1  0.50862247  0.88248032  0.62210762  1
  Cl  Cl486  1  0.00350337  0.11410412  0.11428888  1
  Cl  Cl487  1  0.00358181  0.44581097  0.10923344  1
  Cl  Cl488  1  -0.00003879  0.77756257  0.11291500  1
  Cl  Cl489  1  0.50873770  0.10979480  0.10190457  1
  Cl  Cl490  1  0.49908579  0.44595807  0.12344844  1
  Cl  Cl491  1  0.50803988  0.77414304  0.10492423  1
  Cl  Cl492  1  0.00095632  0.22062221  0.88149352  1
  Cl  Cl493  1  -0.00972265  0.56145584  0.89370891  1
  Cl  Cl494  1  0.00576147  0.89030733  0.89519978  1
  Cl  Cl495  1  0.50257324  0.21719921  0.87688895  1
  Cl  Cl496  1  0.49669388  0.55044997  0.87735523  1
  Cl  Cl497  1  0.50197783  0.88598023  0.88436433  1
  Cl  Cl498  1  -0.00263701  0.11398916  0.37732529  1
  Cl  Cl499  1  -0.00108704  0.44981418  0.37732009  1
  Cl  Cl500  1  -0.00220968  0.77665416  0.38879789  1
  Cl  Cl501  1  0.50256000  0.11504485  0.37544014  1
  Cl  Cl502  1  0.50198354  0.44593600  0.38922529  1
  Cl  Cl503  1  0.49929148  0.78387853  0.37596319  1
  Cl  Cl504  1  0.36445575  0.14394290  0.75134481  1
  Cl  Cl505  1  0.36289158  0.47834142  0.74670382  1
  Cl  Cl506  1  0.36066235  0.81047542  0.75072124  1
  Cl  Cl507  1  0.86300028  0.14397332  0.75401795  1
  Cl  Cl508  1  0.86214327  0.47897020  0.74896386  1
  Cl  Cl509  1  0.86501976  0.81133299  0.75110110  1
  Cl  Cl510  1  0.13756047  0.18928672  0.25190143  1
  Cl  Cl511  1  0.13875298  0.52336400  0.24998075  1
  Cl  Cl512  1  0.13925446  0.85514836  0.24697348  1
  Cl  Cl513  1  0.63708920  0.18775028  0.24944043  1
  Cl  Cl514  1  0.64016226  0.52355775  0.25201601  1
  Cl  Cl515  1  0.64307517  0.85551925  0.24790484  1
  Cl  Cl516  1  0.13681316  0.14399444  0.75137877  1
  Cl  Cl517  1  0.13609404  0.47880156  0.75323275  1
  Cl  Cl518  1  0.13769427  0.81143917  0.74963920  1
  Cl  Cl519  1  0.63997612  0.14340227  0.75041482  1
  Cl  Cl520  1  0.63802930  0.47862157  0.75088227  1
  Cl  Cl521  1  0.64207989  0.81131378  0.75158975  1
  Cl  Cl522  1  0.36358165  0.18929222  0.24865451  1
  Cl  Cl523  1  0.36170056  0.52278012  0.25193847  1
  Cl  Cl524  1  0.36168690  0.85459645  0.24924905  1
  Cl  Cl525  1  0.86273751  0.18973577  0.24624392  1
  Cl  Cl526  1  0.86304570  0.52118245  0.25082249  1
  Cl  Cl527  1  0.86425068  0.85534768  0.24806316  1
  Cl  Cl528  1  0.11360631  0.31199415  0.74952845  1
  Cl  Cl529  1  0.10696519  0.64388445  0.75003037  1
  Cl  Cl530  1  0.11407764  0.97801335  0.74976028  1
  Cl  Cl531  1  0.61263472  0.31190752  0.74659341  1
  Cl  Cl532  1  0.61341295  0.64469675  0.74913583  1
  Cl  Cl533  1  0.61104954  0.97741632  0.75303712  1
  Cl  Cl534  1  0.38628437  0.02189127  0.24739744  1
  Cl  Cl535  1  0.38898815  0.35724770  0.25229801  1
  Cl  Cl536  1  0.39045425  0.69023422  0.25251081  1
  Cl  Cl537  1  0.88792462  0.02210488  0.24910014  1
  Cl  Cl538  1  0.88624268  0.35508870  0.24568418  1
  Cl  Cl539  1  0.89029220  0.69056737  0.25136507  1
  Cl  Cl540  1  0.38747705  0.31065053  0.74703078  1
  Cl  Cl541  1  0.38838781  0.64545388  0.74795006  1
  Cl  Cl542  1  0.38788464  0.97650433  0.75093975  1
  Cl  Cl543  1  0.88615871  0.31093592  0.74961327  1
  Cl  Cl544  1  0.88832378  0.64483782  0.75148098  1
  Cl  Cl545  1  0.88979879  0.97640996  0.75468816  1
  Cl  Cl546  1  0.11114669  0.02095766  0.24789906  1
  Cl  Cl547  1  0.11376892  0.35513630  0.25161604  1
  Cl  Cl548  1  0.10959075  0.68882922  0.25082341  1
  Cl  Cl549  1  0.61158386  0.02073804  0.24798232  1
  Cl  Cl550  1  0.61028129  0.35603722  0.24852230  1
  Cl  Cl551  1  0.61456376  0.68851951  0.25259825  1
