# generated using pymatgen
data_H8PbC4(N3Cl2)2
_symmetry_space_group_name_H-M   'P 1'
_cell_length_a   16.63551758
_cell_length_b   22.51992240
_cell_length_c   21.59695328
_cell_angle_alpha   90.00178605
_cell_angle_beta   89.99000984
_cell_angle_gamma   89.99429586
_symmetry_Int_Tables_number   1
_chemical_formula_structural   H8PbC4(N3Cl2)2
_chemical_formula_sum   'H192 Pb24 C96 N144 Cl96'
_cell_volume   8090.87863978
_cell_formula_units_Z   24
loop_
 _symmetry_equiv_pos_site_id
 _symmetry_equiv_pos_as_xyz
  1  'x, y, z'
loop_
 _atom_site_type_symbol
 _atom_site_label
 _atom_site_symmetry_multiplicity
 _atom_site_fract_x
 _atom_site_fract_y
 _atom_site_fract_z
 _atom_site_occupancy
  H  H0  1  0.00357550  0.02842897  0.67845473  1
  H  H1  1  0.00254721  0.36005214  0.67642763  1
  H  H2  1  -0.00520265  0.68672966  0.67646966  1
  H  H3  1  0.50240857  0.02637241  0.67576224  1
  H  H4  1  0.50148849  0.36335984  0.67529255  1
  H  H5  1  0.50001141  0.69735478  0.68489553  1
  H  H6  1  0.00257929  0.30148639  0.17960835  1
  H  H7  1  0.00732817  0.64399127  0.17400268  1
  H  H8  1  -0.01140304  0.96968514  0.18055991  1
  H  H9  1  0.49503375  0.30561797  0.17554279  1
  H  H10  1  0.47937039  0.64085680  0.17472164  1
  H  H11  1  0.51065521  0.97477421  0.17852798  1
  H  H12  1  -0.01362731  0.02943751  0.82103194  1
  H  H13  1  -0.00157492  0.36078424  0.82710108  1
  H  H14  1  -0.00546254  0.69801738  0.82532313  1
  H  H15  1  0.51733734  0.02985644  0.82108328  1
  H  H16  1  0.50259088  0.36292104  0.83197666  1
  H  H17  1  0.49601470  0.69549966  0.82304552  1
  H  H18  1  0.00031266  0.30543451  0.32112485  1
  H  H19  1  -0.01300558  0.62768575  0.32213393  1
  H  H20  1  -0.00130519  0.97985796  0.32298657  1
  H  H21  1  0.50372480  0.31236935  0.32568294  1
  H  H22  1  0.51752781  0.63289015  0.32563358  1
  H  H23  1  0.50545348  0.96929977  0.31856081  1
  H  H24  1  0.25552715  0.19401063  0.67661104  1
  H  H25  1  0.23990179  0.52273748  0.67097507  1
  H  H26  1  0.24786015  0.87300485  0.68596537  1
  H  H27  1  0.73355826  0.19814935  0.67947917  1
  H  H28  1  0.75525225  0.52719395  0.68287312  1
  H  H29  1  0.74666534  0.86437232  0.68154028  1
  H  H30  1  0.26060891  0.14179208  0.17395047  1
  H  H31  1  0.26396436  0.46551622  0.17668845  1
  H  H32  1  0.26352408  0.80311219  0.17643762  1
  H  H33  1  0.74614493  0.13749609  0.18219388  1
  H  H34  1  0.73628517  0.47422461  0.17492654  1
  H  H35  1  0.74534111  0.80377622  0.17691449  1
  H  H36  1  0.24944371  0.19372659  0.82368407  1
  H  H37  1  0.23165076  0.52558914  0.82393949  1
  H  H38  1  0.24950984  0.85800124  0.82112208  1
  H  H39  1  0.75872778  0.19904464  0.82099141  1
  H  H40  1  0.77143667  0.52984379  0.82624051  1
  H  H41  1  0.74800748  0.86100990  0.81880612  1
  H  H42  1  0.26465180  0.14230946  0.32446938  1
  H  H43  1  0.25091343  0.46868642  0.32872818  1
  H  H44  1  0.25415927  0.80006861  0.31888297  1
  H  H45  1  0.73740298  0.13522024  0.32289329  1
  H  H46  1  0.75017447  0.46829097  0.31955118  1
  H  H47  1  0.74981682  0.78755711  0.31422505  1
  H  H48  1  0.12114590  0.05759115  0.60379400  1
  H  H49  1  0.12394920  0.38791379  0.60246077  1
  H  H50  1  0.12646211  0.71524812  0.61710476  1
  H  H51  1  0.61708959  0.05848468  0.60044385  1
  H  H52  1  0.62492814  0.39041790  0.60595454  1
  H  H53  1  0.62494050  0.71716280  0.61515179  1
  H  H54  1  0.38444056  0.27693704  0.09332539  1
  H  H55  1  0.37173936  0.60834615  0.09224630  1
  H  H56  1  0.38116616  0.94771960  0.11355266  1
  H  H57  1  0.88538363  0.27969325  0.10551728  1
  H  H58  1  0.86828064  0.61720872  0.12318390  1
  H  H59  1  0.88367515  0.94212720  0.09797372  1
  H  H60  1  0.37924615  0.05237469  0.87791580  1
  H  H61  1  0.37815098  0.38506197  0.89952051  1
  H  H62  1  0.36251361  0.71829356  0.88324509  1
  H  H63  1  0.88411774  0.05745871  0.90632682  1
  H  H64  1  0.88292584  0.39224999  0.90149117  1
  H  H65  1  0.86107989  0.71697947  0.88450079  1
  H  H66  1  0.12426548  0.28378223  0.39149104  1
  H  H67  1  0.12660876  0.61553944  0.37943235  1
  H  H68  1  0.12312244  0.94738878  0.38959477  1
  H  H69  1  0.61491445  0.27833210  0.40394252  1
  H  H70  1  0.61931292  0.60639188  0.41276018  1
  H  H71  1  0.62240550  0.93861030  0.39134572  1
  H  H72  1  0.37615541  0.22347704  0.60283070  1
  H  H73  1  0.37401400  0.54701273  0.61028434  1
  H  H74  1  0.37490809  0.88622213  0.61693293  1
  H  H75  1  0.87612615  0.21650790  0.62902507  1
  H  H76  1  0.86900495  0.55311663  0.60393873  1
  H  H77  1  0.87440438  0.88811990  0.61310155  1
  H  H78  1  0.12712163  0.11840973  0.11264475  1
  H  H79  1  0.12145750  0.44903331  0.12725360  1
  H  H80  1  0.13471950  0.78137419  0.11344118  1
  H  H81  1  0.62134391  0.11243134  0.11383654  1
  H  H82  1  0.62236154  0.44428060  0.09609966  1
  H  H83  1  0.64056244  0.77595217  0.09425566  1
  H  H84  1  0.12156585  0.22016962  0.89083807  1
  H  H85  1  0.13196884  0.56135807  0.91010297  1
  H  H86  1  0.11714393  0.88254099  0.88306747  1
  H  H87  1  0.61803747  0.22016967  0.87386544  1
  H  H88  1  0.63122404  0.54401958  0.87584764  1
  H  H89  1  0.61601762  0.88316993  0.88111344  1
  H  H90  1  0.38135534  0.11079869  0.40019018  1
  H  H91  1  0.37504060  0.44451608  0.39587630  1
  H  H92  1  0.37121773  0.77576484  0.39437786  1
  H  H93  1  0.88039543  0.12073253  0.36944475  1
  H  H94  1  0.87445710  0.44495947  0.39234436  1
  H  H95  1  0.87256678  0.77953426  0.39052427  1
  H  H96  1  0.36811989  0.28434366  0.38027978  1
  H  H97  1  0.37576310  0.61386291  0.37624222  1
  H  H98  1  0.37628943  0.95643528  0.38787519  1
  H  H99  1  0.87561643  0.28198314  0.38829424  1
  H  H100  1  0.88188530  0.60807197  0.40996433  1
  H  H101  1  0.87529708  0.94582310  0.38855674  1
  H  H102  1  0.12837956  0.04731288  0.86949880  1
  H  H103  1  0.13105622  0.38186733  0.88936136  1
  H  H104  1  0.10903532  0.72560978  0.90123305  1
  H  H105  1  0.62556830  0.05339557  0.90466944  1
  H  H106  1  0.62680474  0.38934300  0.89860708  1
  H  H107  1  0.61070713  0.72174922  0.89749656  1
  H  H108  1  0.13398363  0.27990369  0.11608231  1
  H  H109  1  0.11351656  0.61035274  0.09176636  1
  H  H110  1  0.12864753  0.95373030  0.12891966  1
  H  H111  1  0.63117954  0.28427610  0.11534127  1
  H  H112  1  0.61664888  0.61724503  0.11902021  1
  H  H113  1  0.62924189  0.94388829  0.10350507  1
  H  H114  1  0.36946351  0.05602094  0.61821439  1
  H  H115  1  0.37604392  0.38793655  0.60525819  1
  H  H116  1  0.37566243  0.71694248  0.61494009  1
  H  H117  1  0.87268403  0.05494518  0.61588785  1
  H  H118  1  0.87534432  0.38635020  0.60797079  1
  H  H119  1  0.87924381  0.72290434  0.60388696  1
  H  H120  1  0.13354735  0.11709595  0.38592657  1
  H  H121  1  0.12616157  0.44695412  0.39622766  1
  H  H122  1  0.12451240  0.78098449  0.38494828  1
  H  H123  1  0.63780200  0.10773993  0.40891787  1
  H  H124  1  0.62536738  0.44446030  0.39140686  1
  H  H125  1  0.62448011  0.77860197  0.38593034  1
  H  H126  1  0.36993575  0.22221032  0.89487005  1
  H  H127  1  0.37442887  0.54781437  0.87294886  1
  H  H128  1  0.36645848  0.88469256  0.89440834  1
  H  H129  1  0.86413544  0.22713802  0.90370942  1
  H  H130  1  0.87412732  0.56091553  0.91048274  1
  H  H131  1  0.86504055  0.88515375  0.89312493  1
  H  H132  1  0.37455105  0.10925952  0.09815601  1
  H  H133  1  0.36412111  0.43924562  0.08725517  1
  H  H134  1  0.38350187  0.77734319  0.10278823  1
  H  H135  1  0.87127410  0.11483352  0.11098837  1
  H  H136  1  0.87000180  0.45003712  0.11241709  1
  H  H137  1  0.88599476  0.78363557  0.12672810  1
  H  H138  1  0.12800110  0.22063831  0.60874842  1
  H  H139  1  0.12726094  0.55518627  0.59326758  1
  H  H140  1  0.12596714  0.89119861  0.61329398  1
  H  H141  1  0.63427050  0.22823049  0.59067532  1
  H  H142  1  0.62100875  0.54931308  0.62043458  1
  H  H143  1  0.62601953  0.89411118  0.61142761  1
  H  H144  1  0.17099735  0.75096311  0.00022727  1
  H  H145  1  0.11612510  0.91932157  0.01516118  1
  H  H146  1  0.82557796  0.89549582  0.50387215  1
  H  H147  1  0.94113565  0.24970118  -0.00512720  1
  H  H148  1  0.71346786  0.74783589  -0.01081257  1
  H  H149  1  0.64282489  0.57798559  -0.00984933  1
  H  H150  1  0.96012643  0.57814566  0.50704293  1
  H  H151  1  0.91748998  0.25293450  0.50050241  1
  H  H152  1  0.43398814  0.95996074  0.49466212  1
  H  H153  1  0.67708289  0.92992613  0.50449841  1
  H  H154  1  0.07304728  0.71891885  0.50801960  1
  H  H155  1  0.17192600  0.77961778  0.49338011  1
  H  H156  1  0.55070544  0.08919275  0.49777123  1
  H  H157  1  0.93627265  0.94182050  0.49597027  1
  H  H158  1  0.83211302  0.42135560  0.00644683  1
  H  H159  1  0.66795025  0.08329157  0.00255582  1
  H  H160  1  0.55152138  0.75303289  1.00693112  1
  H  H161  1  0.71473958  0.08196004  0.51183311  1
  H  H162  1  0.63847008  0.24969710  0.98300390  1
  H  H163  1  0.33428741  0.89649973  0.50155847  1
  H  H164  1  0.71789008  0.25223177  0.49414490  1
  H  H165  1  0.81379848  0.74707627  0.48997114  1
  H  H166  1  0.82131534  0.07879640  0.00852964  1
  H  H167  1  0.55191307  0.88725558  0.47914296  1
  H  H168  1  0.79190115  0.25730086  1.00754090  1
  H  H169  1  0.44357005  0.58042160  -0.00551360  1
  H  H170  1  0.55196994  0.07865461  1.00970102  1
  H  H171  1  0.17432500  0.90469488  0.49929666  1
  H  H172  1  0.80423631  0.57955536  0.49777679  1
  H  H173  1  0.33963757  0.57658880  0.50395022  1
  H  H174  1  0.80825089  0.91402133  1.00335622  1
  H  H175  1  0.94685048  0.73792376  0.50093096  1
  H  H176  1  0.69082349  0.72822830  0.47836784  1
  H  H177  1  0.54474740  0.24782537  0.50415028  1
  H  H178  1  0.87293208  0.09260261  0.48439693  1
  H  H179  1  0.03781041  0.58216731  -0.00708750  1
  H  H180  1  0.30340863  0.72331876  0.48257456  1
  H  H181  1  0.95563386  0.91152689  -0.00608100  1
  H  H182  1  0.31134810  0.91696728  1.00321208  1
  H  H183  1  0.11759935  0.07797409  -0.01688601  1
  H  H184  1  0.88312407  0.75136179  0.00646477  1
  H  H185  1  0.95963036  0.08650153  1.00885406  1
  H  H186  1  0.42075803  0.74532239  0.50357446  1
  H  H187  1  0.06337942  0.09242599  0.49905992  1
  H  H188  1  0.09866565  0.41602063  0.99631938  1
  H  H189  1  0.58050116  0.74899504  0.50486646  1
  H  H190  1  0.06339548  0.93983497  0.49579376  1
  H  H191  1  0.21658661  0.58903106  1.00560774  1
  Pb  Pb192  1  0.24910426  0.04767869  0.74536922  1
  Pb  Pb193  1  0.24728929  0.38015468  0.74769210  1
  Pb  Pb194  1  0.24612498  0.71454662  0.74516915  1
  Pb  Pb195  1  0.74380585  0.05142014  0.75968247  1
  Pb  Pb196  1  0.74985343  0.38179876  0.75446851  1
  Pb  Pb197  1  0.74787985  0.71315102  0.74101505  1
  Pb  Pb198  1  0.25274002  0.28756371  0.24196494  1
  Pb  Pb199  1  0.24485571  0.61499798  0.24026230  1
  Pb  Pb200  1  0.25038248  0.95314267  0.25633166  1
  Pb  Pb201  1  0.74609558  0.28302748  0.25556943  1
  Pb  Pb202  1  0.74997615  0.61843187  0.26397329  1
  Pb  Pb203  1  0.74839057  0.94845443  0.25095579  1
  Pb  Pb204  1  -0.00019957  0.21422944  0.75576615  1
  Pb  Pb205  1  0.00007733  0.54741669  0.75315888  1
  Pb  Pb206  1  -0.00500238  0.88434188  0.74439773  1
  Pb  Pb207  1  0.49499871  0.21794409  0.74044604  1
  Pb  Pb208  1  0.49726473  0.54632955  0.75136020  1
  Pb  Pb209  1  0.49774083  0.88077566  0.74244512  1
  Pb  Pb210  1  0.00330339  0.12044852  0.24839756  1
  Pb  Pb211  1  -0.00513460  0.44970894  0.24733246  1
  Pb  Pb212  1  0.00218996  0.78367883  0.26159895  1
  Pb  Pb213  1  0.49643711  0.11730322  0.25739804  1
  Pb  Pb214  1  0.50003894  0.45232102  0.24160543  1
  Pb  Pb215  1  0.49636178  0.78251336  0.25117700  1
  C  C216  1  -0.00102911  0.04694288  0.63223139  1
  C  C217  1  0.00060856  0.37708946  0.62944469  1
  C  C218  1  0.00034781  0.70736083  0.63126438  1
  C  C219  1  0.49655534  0.04558454  0.63013118  1
  C  C220  1  0.50058965  0.38015398  0.62843769  1
  C  C221  1  0.50034212  0.71099295  0.63663531  1
  C  C222  1  0.00714245  0.28718878  0.13190085  1
  C  C223  1  -0.00335084  0.62557344  0.12843789  1
  C  C224  1  0.00103269  0.95481301  0.13356288  1
  C  C225  1  0.50370729  0.29015769  0.12831891  1
  C  C226  1  0.48878502  0.62292697  0.12859989  1
  C  C227  1  0.50725076  0.95615439  0.13222721  1
  C  C228  1  0.00024311  0.04451218  0.86767115  1
  C  C229  1  0.00462234  0.37819571  0.87365797  1
  C  C230  1  -0.01208050  0.71321495  0.87269986  1
  C  C231  1  0.50727950  0.04498267  0.86813820  1
  C  C232  1  0.50260075  0.37940263  0.87935765  1
  C  C233  1  0.48984109  0.71131923  0.87017907  1
  C  C234  1  -0.00052023  0.29041730  0.36874025  1
  C  C235  1  -0.00181947  0.61534370  0.36994851  1
  C  C236  1  -0.00090662  0.95935788  0.36841619  1
  C  C237  1  0.49593260  0.29294910  0.37107350  1
  C  C238  1  0.50396050  0.61741062  0.37179274  1
  C  C239  1  0.50088672  0.95495104  0.36643658  1
  C  C240  1  0.25351216  0.21166077  0.62992611  1
  C  C241  1  0.24740653  0.54069332  0.62476860  1
  C  C242  1  0.24965395  0.88284315  0.63677761  1
  C  C243  1  0.74766035  0.21308811  0.63290789  1
  C  C244  1  0.74824134  0.54262717  0.63561450  1
  C  C245  1  0.74996044  0.88041973  0.63417257  1
  C  C246  1  0.25383351  0.12398369  0.12783364  1
  C  C247  1  0.24982473  0.45168763  0.12992448  1
  C  C248  1  0.26009127  0.78764059  0.12902568  1
  C  C249  1  0.74678215  0.12129553  0.13476641  1
  C  C250  1  0.74325660  0.45701317  0.12836799  1
  C  C251  1  0.75744658  0.78848593  0.13010804  1
  C  C252  1  0.24661742  0.21123055  0.87025788  1
  C  C253  1  0.24569220  0.54360610  0.86919787  1
  C  C254  1  0.24495776  0.87489623  0.86799050  1
  C  C255  1  0.74607871  0.21423803  0.86787518  1
  C  C256  1  0.75794794  0.54486708  0.87270010  1
  C  C257  1  0.74331956  0.87667051  0.86609974  1
  C  C258  1  0.26028684  0.12390681  0.37052823  1
  C  C259  1  0.25071367  0.45323629  0.37649359  1
  C  C260  1  0.24956171  0.78564754  0.36681162  1
  C  C261  1  0.75278476  0.12104310  0.36946121  1
  C  C262  1  0.75005141  0.45318351  0.36725166  1
  C  C263  1  0.74920714  0.78128914  0.36404501  1
  C  C264  1  0.06505470  0.92877739  0.04780422  1
  C  C265  1  0.51582153  0.58581264  0.46752089  1
  C  C266  1  0.76419239  0.24474634  0.96372608  1
  C  C267  1  0.69338947  0.56985710  0.95895501  1
  C  C268  1  0.97406058  0.41225311  0.96760812  1
  C  C269  1  0.46237073  0.40863596  0.97019666  1
  C  C270  1  0.21415517  0.76047979  0.03681176  1
  C  C271  1  0.44258256  0.08358900  0.54475930  1
  C  C272  1  0.27983593  0.24395238  0.96196707  1
  C  C273  1  0.05723706  0.26095931  0.04168638  1
  C  C274  1  0.74198666  0.76006358  0.03273845  1
  C  C275  1  0.71258295  0.91118889  0.54187289  1
  C  C276  1  0.95849150  0.26320707  0.46261727  1
  C  C277  1  0.52449415  0.07086901  0.96472016  1
  C  C278  1  0.77206744  0.56954008  0.54045261  1
  C  C279  1  0.53700963  0.41330142  0.53773464  1
  C  C280  1  0.29034582  0.42453289  0.46743271  1
  C  C281  1  0.82216015  0.76305221  0.04501036  1
  C  C282  1  0.21026478  0.42553685  0.46759102  1
  C  C283  1  0.29598790  0.75924101  0.03455478  1
  C  C284  1  0.54162651  0.73608144  0.54284153  1
  C  C285  1  0.77322066  0.90419370  0.96212210  1
  C  C286  1  0.98442505  0.92498846  0.03687418  1
  C  C287  1  0.43804001  0.25578552  0.45515181  1
  C  C288  1  0.03994186  0.26394119  0.46195790  1
  C  C289  1  0.29395665  0.89501358  0.54102832  1
  C  C290  1  0.70525709  0.09424114  0.04220180  1
  C  C291  1  0.74181744  0.09394525  0.46760672  1
  C  C292  1  0.18613163  0.42779659  0.04513840  1
  C  C293  1  0.93531656  0.73958072  0.96231598  1
  C  C294  1  0.69216240  0.90361079  0.95601941  1
  C  C295  1  0.06699710  0.06945469  0.95223943  1
  C  C296  1  0.27939307  0.08844719  0.03557116  1
  C  C297  1  0.21187841  0.89798539  0.53981905  1
  C  C298  1  0.27497577  0.90502880  0.96333327  1
  C  C299  1  0.82162692  0.09904801  0.45381456  1
  C  C300  1  0.01631694  0.74278942  0.96702469  1
  C  C301  1  0.51734566  0.74095981  0.96577381  1
  C  C302  1  0.45956154  0.73509101  0.54248382  1
  C  C303  1  0.43584897  0.73927224  0.95927616  1
  C  C304  1  0.02781326  0.07937132  0.53957188  1
  C  C305  1  0.98690723  0.07333494  0.96519760  1
  C  C306  1  0.97609572  0.26059176  0.03588002  1
  C  C307  1  0.77354461  0.57543444  0.96926345  1
  C  C308  1  0.19397994  0.90329175  0.95735763  1
  C  C309  1  0.93381017  0.59072587  0.04520816  1
  C  C310  1  0.21296224  0.09014189  0.45830604  1
  C  C311  1  0.54256376  0.41006933  0.96980069  1
  N  N312  1  0.43972471  0.58849041  0.45693441  1
  N  N313  1  0.29007506  0.08715367  0.46359797  1
  N  N314  1  0.21145656  0.24355916  0.53899934  1
  N  N315  1  0.23786176  0.58043284  0.96096506  1
  N  N316  1  0.28736866  0.24432195  0.53720999  1
  N  N317  1  0.53822850  0.92228121  0.03957055  1
  N  N318  1  0.69322650  0.56944328  0.54612140  1
  N  N319  1  0.79085208  0.42708581  0.04127210  1
  N  N320  1  0.05289604  0.74346538  0.54528069  1
  N  N321  1  0.03488746  0.40817253  0.53643839  1
  N  N322  1  0.45303804  0.93324130  0.45878105  1
  N  N323  1  0.70410953  0.76930919  0.45961822  1
  N  N324  1  0.71334071  0.42548989  0.03448496  1
  N  N325  1  0.06117807  0.59820428  0.45797933  1
  N  N326  1  0.46203485  0.92323581  0.04274877  1
  N  N327  1  0.71149089  0.42524300  0.46024769  1
  N  N328  1  0.54886636  0.59329353  0.04313898  1
  N  N329  1  0.68609994  0.24243873  0.95229936  1
  N  N330  1  0.28319484  0.76175500  0.46200281  1
  N  N331  1  0.52106161  0.08215704  0.53897649  1
  N  N332  1  0.78476483  0.09592591  0.04215470  1
  N  N333  1  0.01170381  0.58982612  0.03569653  1
  N  N334  1  0.47164556  0.58937792  0.03595723  1
  N  N335  1  0.26156132  0.42447114  0.03106857  1
  N  N336  1  0.21897989  0.57355163  0.53089884  1
  N  N337  1  0.79233838  0.90614871  0.54217884  1
  N  N338  1  0.31429023  0.57573166  0.94973446  1
  N  N339  1  0.73986990  0.24335754  0.53842672  1
  N  N340  1  0.48150025  0.25962353  0.03315784  1
  N  N341  1  0.78772436  0.42543142  0.46052828  1
  N  N342  1  0.29651181  0.57054699  0.53808815  1
  N  N343  1  0.55716636  0.26232932  0.04007826  1
  N  N344  1  0.98409330  0.59521839  0.46662920  1
  N  N345  1  0.95715762  0.92080893  0.45661538  1
  N  N346  1  0.96984002  0.75086233  0.54333491  1
  N  N347  1  0.53642757  0.92779559  0.46055789  1
  N  N348  1  0.04102453  0.92022123  0.45617003  1
  N  N349  1  0.94889013  0.07825338  0.54320625  1
  N  N350  1  0.81612818  0.23893447  0.54983438  1
  N  N351  1  0.78723438  0.77824166  0.46160291  1
  N  N352  1  0.05264576  0.40815635  0.96220863  1
  N  N353  1  0.44646935  0.07228787  0.95530893  1
  N  N354  1  0.95885843  0.40774537  0.53802308  1
  N  N355  1  0.51632460  0.25566530  0.46247205  1
  N  N356  1  0.20242498  0.09136380  0.03946620  1
  N  N357  1  0.45982450  0.41206736  0.53608093  1
  N  N358  1  0.20263128  0.24360918  0.96158235  1
  N  N359  1  0.20005313  0.75902706  0.45678620  1
  N  N360  1  0.05985023  0.06020095  0.59399132  1
  N  N361  1  0.06247239  0.38898240  0.59281280  1
  N  N362  1  0.06785718  0.71723763  0.60110574  1
  N  N363  1  0.55555254  0.05686669  0.59073603  1
  N  N364  1  0.56500837  0.39382197  0.59318140  1
  N  N365  1  0.56559309  0.72110529  0.60169031  1
  N  N366  1  0.44698776  0.27709478  0.08737901  1
  N  N367  1  0.43354171  0.60927072  0.08685412  1
  N  N368  1  0.44139986  0.94387702  0.10023045  1
  N  N369  1  0.94578689  0.27731976  0.09332335  1
  N  N370  1  0.92429209  0.61193942  0.10298346  1
  N  N371  1  0.94559389  0.94141325  0.09065422  1
  N  N372  1  0.43756483  0.05590368  0.89536561  1
  N  N373  1  0.43711648  0.39015190  0.91500657  1
  N  N374  1  0.42009966  0.72168459  0.90122182  1
  N  N375  1  0.94635851  0.05749047  0.91191939  1
  N  N376  1  0.94414709  0.39418587  0.91242039  1
  N  N377  1  0.91860937  0.72131205  0.90296617  1
  N  N378  1  0.06434581  0.28020448  0.40549930  1
  N  N379  1  0.06934725  0.61116182  0.39780079  1
  N  N380  1  0.06297453  0.94786571  0.40266112  1
  N  N381  1  0.55298182  0.28041923  0.41161563  1
  N  N382  1  0.55754689  0.60354772  0.41667342  1
  N  N383  1  0.56111770  0.93550120  0.40080918  1
  N  N384  1  0.31520959  0.22453880  0.59351202  1
  N  N385  1  0.31510869  0.54968251  0.59435465  1
  N  N386  1  0.31595685  0.88599585  0.60148897  1
  N  N387  1  0.82040902  0.22181018  0.60904185  1
  N  N388  1  0.80750375  0.55383603  0.59508625  1
  N  N389  1  0.81473597  0.88410603  0.59896976  1
  N  N390  1  0.18604005  0.11367383  0.09787865  1
  N  N391  1  0.17626444  0.44407771  0.10551587  1
  N  N392  1  0.19319322  0.77808792  0.09653756  1
  N  N393  1  0.68122603  0.11091068  0.09937142  1
  N  N394  1  0.68410137  0.44294715  0.08927121  1
  N  N395  1  0.70244550  0.77633887  0.08690650  1
  N  N396  1  0.18162938  0.22280030  0.90329952  1
  N  N397  1  0.19450985  0.55859401  0.91340459  1
  N  N398  1  0.17583262  0.88563524  0.89961731  1
  N  N399  1  0.67511080  0.22228847  0.89379227  1
  N  N400  1  0.68544765  0.55091153  0.89797468  1
  N  N401  1  0.67443722  0.88721739  0.89808766  1
  N  N402  1  0.31983909  0.10863436  0.40774583  1
  N  N403  1  0.31612196  0.44127912  0.41191254  1
  N  N404  1  0.31004197  0.76971985  0.40272035  1
  N  N405  1  0.82686065  0.11535079  0.39298304  1
  N  N406  1  0.81323803  0.44259407  0.40291271  1
  N  N407  1  0.81173819  0.77800517  0.40149375  1
  N  N408  1  0.42525120  0.27813345  0.39837647  1
  N  N409  1  0.43232164  0.60809128  0.39595735  1
  N  N410  1  0.43598267  0.95594143  0.40164706  1
  N  N411  1  0.93442923  0.27954714  0.40310081  1
  N  N412  1  0.94396449  0.60342237  0.41302701  1
  N  N413  1  0.93496932  0.94746938  0.40237794  1
  N  N414  1  0.07365715  0.05186130  0.89187670  1
  N  N415  1  0.07192073  0.38690734  0.90453570  1
  N  N416  1  0.04790909  0.72663615  0.91240982  1
  N  N417  1  0.56380172  0.05489597  0.91137525  1
  N  N418  1  0.56803302  0.39261956  0.91422649  1
  N  N419  1  0.54992054  0.72316804  0.90925445  1
  N  N420  1  0.07558573  0.27687988  0.09948231  1
  N  N421  1  0.05149453  0.61343142  0.08584417  1
  N  N422  1  0.07354428  0.94709955  0.10797183  1
  N  N423  1  0.57253822  0.28124401  0.09906707  1
  N  N424  1  0.55901655  0.61242510  0.10122948  1
  N  N425  1  0.56776701  0.94268898  0.09484582  1
  N  N426  1  0.42720631  0.06142169  0.60132639  1
  N  N427  1  0.43677211  0.39096821  0.59380953  1
  N  N428  1  0.43535979  0.71966622  0.60113658  1
  N  N429  1  0.93214861  0.05829375  0.60127139  1
  N  N430  1  0.93595193  0.38870280  0.59578471  1
  N  N431  1  0.94065211  0.72223291  0.59389718  1
  N  N432  1  0.19206617  0.11217185  0.40196271  1
  N  N433  1  0.18501213  0.44281522  0.41208294  1
  N  N434  1  0.18313827  0.78328959  0.40041239  1
  N  N435  1  0.70014859  0.10769953  0.41442450  1
  N  N436  1  0.68649700  0.44261734  0.40257788  1
  N  N437  1  0.68432659  0.77420987  0.39844749  1
  N  N438  1  0.30966384  0.22456277  0.90705803  1
  N  N439  1  0.31824893  0.55447290  0.89209363  1
  N  N440  1  0.30576890  0.88705335  0.90602479  1
  N  N441  1  0.80188748  0.22748890  0.91126216  1
  N  N442  1  0.81242281  0.56050034  0.91710475  1
  N  N443  1  0.80434307  0.88745239  0.90468118  1
  N  N444  1  0.31340031  0.10814073  0.08869529  1
  N  N445  1  0.30142471  0.43971860  0.08516598  1
  N  N446  1  0.32309854  0.77560109  0.09068181  1
  N  N447  1  0.81035734  0.11000191  0.10004128  1
  N  N448  1  0.81061077  0.44757882  0.09762580  1
  N  N449  1  0.83043082  0.78021632  0.10498371  1
  N  N450  1  0.18867928  0.22311977  0.59635191  1
  N  N451  1  0.18878054  0.55575627  0.58560703  1
  N  N452  1  0.18570138  0.89008599  0.59965312  1
  N  N453  1  0.69664657  0.22518826  0.58770602  1
  N  N454  1  0.68027833  0.55267155  0.60535685  1
  N  N455  1  0.68645941  0.89603511  0.59878496  1
  Cl  Cl456  1  0.24290045  0.05351078  0.61463555  1
  Cl  Cl457  1  0.24805411  0.39182770  0.61252379  1
  Cl  Cl458  1  0.25021900  0.71978164  0.60744061  1
  Cl  Cl459  1  0.73911530  0.05643875  0.62254291  1
  Cl  Cl460  1  0.75084140  0.38530455  0.62319388  1
  Cl  Cl461  1  0.75642845  0.72207352  0.59978613  1
  Cl  Cl462  1  0.26283309  0.27499471  0.10945855  1
  Cl  Cl463  1  0.23975501  0.60647543  0.09757563  1
  Cl  Cl464  1  0.25981865  0.94965419  0.12491536  1
  Cl  Cl465  1  0.75843928  0.27751890  0.11844909  1
  Cl  Cl466  1  0.74154783  0.61806395  0.13326183  1
  Cl  Cl467  1  0.75739545  0.94510874  0.11601452  1
  Cl  Cl468  1  0.25578522  0.05213170  0.87401741  1
  Cl  Cl469  1  0.25357012  0.38110419  0.87784069  1
  Cl  Cl470  1  0.23241490  0.72342020  0.87706086  1
  Cl  Cl471  1  0.75775391  0.05834871  0.90029525  1
  Cl  Cl472  1  0.76126151  0.38923555  0.88955058  1
  Cl  Cl473  1  0.73447839  0.72208310  0.87320482  1
  Cl  Cl474  1  0.24516769  0.28604819  0.37195546  1
  Cl  Cl475  1  0.25138956  0.61957910  0.37251319  1
  Cl  Cl476  1  0.24889078  0.94265310  0.39181527  1
  Cl  Cl477  1  0.73632047  0.27149011  0.39749522  1
  Cl  Cl478  1  0.75637198  0.62213208  0.40237954  1
  Cl  Cl479  1  0.74783310  0.93805007  0.39154534  1
  Cl  Cl480  1  0.00602550  0.21886060  0.62351326  1
  Cl  Cl481  1  -0.00434794  0.55994593  0.60925684  1
  Cl  Cl482  1  -0.00152947  0.90203730  0.60438918  1
  Cl  Cl483  1  0.51147667  0.22746054  0.59967309  1
  Cl  Cl484  1  0.49607025  0.55095238  0.61966377  1
  Cl  Cl485  1  0.50204877  0.89718926  0.60629250  1
  Cl  Cl486  1  -0.00507856  0.11578631  0.11438000  1
  Cl  Cl487  1  -0.00752436  0.44794735  0.11117920  1
  Cl  Cl488  1  0.01194583  0.77945207  0.13487463  1
  Cl  Cl489  1  0.49880292  0.10851309  0.12286472  1
  Cl  Cl490  1  0.49403513  0.44282408  0.10290369  1
  Cl  Cl491  1  0.51316396  0.77357721  0.11742967  1
  Cl  Cl492  1  -0.01239987  0.22609670  0.88943939  1
  Cl  Cl493  1  0.00952887  0.56106505  0.89786449  1
  Cl  Cl494  1  -0.00978335  0.88593661  0.87633584  1
  Cl  Cl495  1  0.49334663  0.22037544  0.87167553  1
  Cl  Cl496  1  0.49811951  0.55606496  0.88635865  1
  Cl  Cl497  1  0.49150188  0.88177366  0.87037759  1
  Cl  Cl498  1  0.01264322  0.11120794  0.38091139  1
  Cl  Cl499  1  -0.00261249  0.44901196  0.37787721  1
  Cl  Cl500  1  -0.00493065  0.76645760  0.40014747  1
  Cl  Cl501  1  0.51485433  0.10787742  0.39957284  1
  Cl  Cl502  1  0.50315766  0.44513930  0.37377550  1
  Cl  Cl503  1  0.49745564  0.78348985  0.39007979  1
  Cl  Cl504  1  0.36158603  0.14753198  0.74309680  1
  Cl  Cl505  1  0.35807087  0.48248701  0.75252774  1
  Cl  Cl506  1  0.36118360  0.81296850  0.74094663  1
  Cl  Cl507  1  0.86035999  0.14841090  0.74493257  1
  Cl  Cl508  1  0.86181299  0.48325251  0.75415831  1
  Cl  Cl509  1  0.86138931  0.81333307  0.73932942  1
  Cl  Cl510  1  0.13929845  0.18774874  0.24134691  1
  Cl  Cl511  1  0.14294474  0.52002149  0.24675976  1
  Cl  Cl512  1  0.13588807  0.85450769  0.26123448  1
  Cl  Cl513  1  0.64658950  0.18482789  0.25189649  1
  Cl  Cl514  1  0.64041007  0.51761482  0.24955898  1
  Cl  Cl515  1  0.64806022  0.84961030  0.25373789  1
  Cl  Cl516  1  0.13961247  0.14885513  0.75708675  1
  Cl  Cl517  1  0.13845521  0.48340532  0.74700709  1
  Cl  Cl518  1  0.13590798  0.81535615  0.73954605  1
  Cl  Cl519  1  0.64132859  0.14688144  0.75730999  1
  Cl  Cl520  1  0.63759652  0.48253941  0.75589894  1
  Cl  Cl521  1  0.63858611  0.81518403  0.74288707  1
  Cl  Cl522  1  0.36033437  0.18295027  0.24990943  1
  Cl  Cl523  1  0.36070593  0.51709762  0.24935813  1
  Cl  Cl524  1  0.35824910  0.84946429  0.25144695  1
  Cl  Cl525  1  0.86545006  0.18649049  0.25850223  1
  Cl  Cl526  1  0.86086711  0.51878842  0.24353871  1
  Cl  Cl527  1  0.86978438  0.85447572  0.26149464  1
  Cl  Cl528  1  0.10575686  0.31845561  0.75531051  1
  Cl  Cl529  1  0.10725232  0.64952881  0.74635178  1
  Cl  Cl530  1  0.11237943  0.98033060  0.75422988  1
  Cl  Cl531  1  0.61445650  0.31305652  0.75445634  1
  Cl  Cl532  1  0.61003885  0.64699256  0.74382552  1
  Cl  Cl533  1  0.60987683  0.98131487  0.74889183  1
  Cl  Cl534  1  0.39449206  0.01914772  0.25908375  1
  Cl  Cl535  1  0.39584481  0.34765000  0.25087738  1
  Cl  Cl536  1  0.39261591  0.68582595  0.25202899  1
  Cl  Cl537  1  0.89242725  0.02042147  0.25339787  1
  Cl  Cl538  1  0.89565596  0.35124461  0.24821176  1
  Cl  Cl539  1  0.88825231  0.68582452  0.25123263  1
  Cl  Cl540  1  0.39717274  0.31570001  0.74348972  1
  Cl  Cl541  1  0.38602224  0.64798415  0.75525718  1
  Cl  Cl542  1  0.38665572  0.98116419  0.74099553  1
  Cl  Cl543  1  0.88653876  0.31401012  0.74998337  1
  Cl  Cl544  1  0.88831463  0.64825716  0.74990907  1
  Cl  Cl545  1  0.89175972  0.98266405  0.74210375  1
  Cl  Cl546  1  0.11450089  0.01955917  0.24551303  1
  Cl  Cl547  1  0.11446724  0.35408316  0.24033927  1
  Cl  Cl548  1  0.11339813  0.68417060  0.26009573  1
  Cl  Cl549  1  0.61309417  0.01846699  0.25304116  1
  Cl  Cl550  1  0.61560152  0.35218115  0.24372326  1
  Cl  Cl551  1  0.61245759  0.68470589  0.25777809  1
