# generated using pymatgen
data_H8PbC4(N3Cl2)2
_symmetry_space_group_name_H-M   'P 1'
_cell_length_a   16.62807782
_cell_length_b   22.51129639
_cell_length_c   21.59490249
_cell_angle_alpha   90.00139381
_cell_angle_beta   90.01808808
_cell_angle_gamma   90.00315937
_symmetry_Int_Tables_number   1
_chemical_formula_structural   H8PbC4(N3Cl2)2
_chemical_formula_sum   'H192 Pb24 C96 N144 Cl96'
_cell_volume   8083.39459063
_cell_formula_units_Z   24
loop_
 _symmetry_equiv_pos_site_id
 _symmetry_equiv_pos_as_xyz
  1  'x, y, z'
loop_
 _atom_site_type_symbol
 _atom_site_label
 _atom_site_symmetry_multiplicity
 _atom_site_fract_x
 _atom_site_fract_y
 _atom_site_fract_z
 _atom_site_occupancy
  H  H0  1  0.00624146  0.03039987  0.68167733  1
  H  H1  1  0.01216124  0.36531499  0.68111364  1
  H  H2  1  -0.00067616  0.69387474  0.67728715  1
  H  H3  1  0.48952736  0.02944287  0.67968042  1
  H  H4  1  0.49265929  0.35461862  0.67632921  1
  H  H5  1  0.50209947  0.69416131  0.68191272  1
  H  H6  1  0.00677646  0.30455967  0.17749522  1
  H  H7  1  -0.00022371  0.63483384  0.18151044  1
  H  H8  1  0.00265246  0.96999128  0.18072261  1
  H  H9  1  0.49924509  0.30402187  0.17745989  1
  H  H10  1  0.49599964  0.63661923  0.17888480  1
  H  H11  1  0.50788367  0.96862914  0.17746011  1
  H  H12  1  -0.01046825  0.02934374  0.82263579  1
  H  H13  1  -0.00671949  0.36464959  0.82313460  1
  H  H14  1  0.00741049  0.69446290  0.81997370  1
  H  H15  1  0.50589379  0.03351661  0.81505783  1
  H  H16  1  0.50164447  0.36418424  0.82083195  1
  H  H17  1  0.49501129  0.69640500  0.81826205  1
  H  H18  1  -0.00415004  0.30180166  0.32201988  1
  H  H19  1  0.00385060  0.64095030  0.32295824  1
  H  H20  1  -0.01768979  0.96754768  0.31715892  1
  H  H21  1  0.49448364  0.30020877  0.31816723  1
  H  H22  1  0.49587445  0.63953251  0.31872007  1
  H  H23  1  0.51175109  0.96761161  0.31883914  1
  H  H24  1  0.24947860  0.19691997  0.68242275  1
  H  H25  1  0.24388750  0.53196307  0.67886111  1
  H  H26  1  0.24374596  0.86379708  0.67942709  1
  H  H27  1  0.75519816  0.19630824  0.67852086  1
  H  H28  1  0.76492519  0.53264636  0.67480901  1
  H  H29  1  0.75257277  0.86570928  0.68352652  1
  H  H30  1  0.25658610  0.13209799  0.18160010  1
  H  H31  1  0.25578194  0.47138453  0.17790571  1
  H  H32  1  0.23736070  0.80129802  0.18017490  1
  H  H33  1  0.74381704  0.13493667  0.18084424  1
  H  H34  1  0.74446297  0.47175333  0.17654760  1
  H  H35  1  0.75283010  0.80359574  0.18269662  1
  H  H36  1  0.24286732  0.19878439  0.82213363  1
  H  H37  1  0.25555977  0.52988691  0.81883333  1
  H  H38  1  0.24879629  0.86269868  0.82162538  1
  H  H39  1  0.75790930  0.19946612  0.82035894  1
  H  H40  1  0.75432055  0.52905430  0.82092614  1
  H  H41  1  0.74648676  0.86172864  0.82500901  1
  H  H42  1  0.23767096  0.13819890  0.31997711  1
  H  H43  1  0.25725137  0.46998665  0.31869241  1
  H  H44  1  0.24641955  0.80308984  0.32068746  1
  H  H45  1  0.75933237  0.13639564  0.32528073  1
  H  H46  1  0.73710673  0.47200219  0.32296625  1
  H  H47  1  0.75417730  0.80141647  0.32002443  1
  H  H48  1  0.11939847  0.05578109  0.60207891  1
  H  H49  1  0.11637624  0.39059160  0.59721655  1
  H  H50  1  0.12453467  0.72090359  0.60706078  1
  H  H51  1  0.62429051  0.05372101  0.62013204  1
  H  H52  1  0.61985665  0.38793563  0.61381176  1
  H  H53  1  0.62429609  0.71879253  0.60772128  1
  H  H54  1  0.36692352  0.28051162  0.11450976  1
  H  H55  1  0.37992165  0.61008782  0.10158803  1
  H  H56  1  0.37178682  0.94923781  0.11805527  1
  H  H57  1  0.86812407  0.28565614  0.12245506  1
  H  H58  1  0.87706181  0.61093544  0.10836709  1
  H  H59  1  0.86890096  0.94665882  0.11687246  1
  H  H60  1  0.37882551  0.05369095  0.88188030  1
  H  H61  1  0.38522576  0.38936791  0.89489221  1
  H  H62  1  0.37357147  0.71956937  0.89008268  1
  H  H63  1  0.88354362  0.05844616  0.90757936  1
  H  H64  1  0.88243669  0.39150791  0.90328735  1
  H  H65  1  0.87082104  0.71674512  0.87547647  1
  H  H66  1  0.12110094  0.28097370  0.38979391  1
  H  H67  1  0.12744959  0.61400968  0.39527634  1
  H  H68  1  0.12290311  0.94882727  0.37228436  1
  H  H69  1  0.62078818  0.27975340  0.38859920  1
  H  H70  1  0.62797412  0.61587905  0.38388066  1
  H  H71  1  0.61748306  0.94373412  0.40264892  1
  H  H72  1  0.37564388  0.22162480  0.61188856  1
  H  H73  1  0.36836004  0.55681484  0.60708672  1
  H  H74  1  0.37857363  0.88420979  0.61926791  1
  H  H75  1  0.87981451  0.21991537  0.60914554  1
  H  H76  1  0.86637327  0.55878844  0.58891037  1
  H  H77  1  0.87724847  0.88543020  0.61365692  1
  H  H78  1  0.12019900  0.11578464  0.12331933  1
  H  H79  1  0.11918219  0.44771101  0.11993920  1
  H  H80  1  0.13269683  0.77346955  0.09395754  1
  H  H81  1  0.62147713  0.11562259  0.10754888  1
  H  H82  1  0.61983201  0.44525201  0.10780675  1
  H  H83  1  0.62885313  0.78026348  0.10989896  1
  H  H84  1  0.14075696  0.22393254  0.90760961  1
  H  H85  1  0.12462512  0.55271250  0.88473958  1
  H  H86  1  0.13022701  0.88913799  0.89509581  1
  H  H87  1  0.63221858  0.22195924  0.88869241  1
  H  H88  1  0.62231773  0.55008317  0.88494572  1
  H  H89  1  0.63084481  0.89040262  0.90037272  1
  H  H90  1  0.37570881  0.11633782  0.37588240  1
  H  H91  1  0.37710631  0.44283019  0.39395156  1
  H  H92  1  0.37281190  0.78163230  0.38711150  1
  H  H93  1  0.87287293  0.11142987  0.40440990  1
  H  H94  1  0.87691154  0.45067936  0.37424071  1
  H  H95  1  0.87739299  0.77952279  0.39121073  1
  H  H96  1  0.37205189  0.27823456  0.39202698  1
  H  H97  1  0.37977723  0.61225435  0.39702175  1
  H  H98  1  0.37230524  0.95047786  0.37027464  1
  H  H99  1  0.87168781  0.27937232  0.39286520  1
  H  H100  1  0.87892646  0.61417120  0.39382358  1
  H  H101  1  0.87714594  0.94318912  0.40218670  1
  H  H102  1  0.12842983  0.05072464  0.87738831  1
  H  H103  1  0.12952847  0.38572855  0.88200465  1
  H  H104  1  0.11782145  0.72510450  0.90056011  1
  H  H105  1  0.62824946  0.05122948  0.88780725  1
  H  H106  1  0.63422927  0.38435009  0.88372246  1
  H  H107  1  0.62261900  0.71913378  0.88383543  1
  H  H108  1  0.11395018  0.27447512  0.09503739  1
  H  H109  1  0.12631607  0.61147846  0.11311176  1
  H  H110  1  0.11659193  0.94540807  0.10036508  1
  H  H111  1  0.61559773  0.27892879  0.10064090  1
  H  H112  1  0.62794530  0.61332120  0.11658456  1
  H  H113  1  0.61822052  0.94139254  0.09688679  1
  H  H114  1  0.37689941  0.05634450  0.59998225  1
  H  H115  1  0.37186303  0.38837887  0.60706837  1
  H  H116  1  0.37581183  0.72086245  0.61249263  1
  H  H117  1  0.87153504  0.05432500  0.62054797  1
  H  H118  1  0.87127033  0.38167849  0.62901936  1
  H  H119  1  0.87604938  0.71878413  0.60390249  1
  H  H120  1  0.13042980  0.11101413  0.40462204  1
  H  H121  1  0.12833778  0.44651010  0.38302120  1
  H  H122  1  0.12366404  0.77936442  0.39164554  1
  H  H123  1  0.62531177  0.11448458  0.38533124  1
  H  H124  1  0.63226648  0.44113882  0.40744412  1
  H  H125  1  0.62810331  0.78008785  0.38649662  1
  H  H126  1  0.38517595  0.21670881  0.87110692  1
  H  H127  1  0.37292859  0.55498168  0.89726540  1
  H  H128  1  0.37963661  0.88662716  0.88658467  1
  H  H129  1  0.88125668  0.22201522  0.88944509  1
  H  H130  1  0.87085503  0.55447875  0.89870581  1
  H  H131  1  0.87894985  0.88540899  0.88698890  1
  H  H132  1  0.36734017  0.11109378  0.10110037  1
  H  H133  1  0.36690099  0.44643225  0.09830328  1
  H  H134  1  0.37683022  0.78305341  0.12491472  1
  H  H135  1  0.86959799  0.11115093  0.11186761  1
  H  H136  1  0.86875595  0.44443325  0.10662034  1
  H  H137  1  0.87707104  0.77801201  0.11028474  1
  H  H138  1  0.12719195  0.22191356  0.60897626  1
  H  H139  1  0.11923862  0.55376863  0.60759189  1
  H  H140  1  0.12989302  0.88740864  0.60187370  1
  H  H141  1  0.63072088  0.22031560  0.61096461  1
  H  H142  1  0.62337963  0.54945732  0.62729187  1
  H  H143  1  0.62745684  0.88550149  0.61423609  1
  H  H144  1  0.21632743  0.24988731  1.01171852  1
  H  H145  1  0.43934452  0.39648851  0.50092612  1
  H  H146  1  0.83839245  0.25201907  1.00057524  1
  H  H147  1  0.18465831  0.92253551  1.00242257  1
  H  H148  1  0.96150655  0.08527420  1.00603762  1
  H  H149  1  0.16703216  0.41970643  0.49584670  1
  H  H150  1  0.42017200  0.07428027  0.99668236  1
  H  H151  1  0.58420221  0.74814918  0.99555102  1
  H  H152  1  0.65771339  0.08520688  0.49335767  1
  H  H153  1  0.44062756  0.08408790  0.49549386  1
  H  H154  1  0.20711390  0.08556906  0.50398958  1
  H  H155  1  0.31302823  0.58900675  0.50376508  1
  H  H156  1  0.04217057  0.41619196  0.49114448  1
  H  H157  1  0.04927082  0.74708035  1.00252012  1
  H  H158  1  0.55734725  0.25118581  -0.00690655  1
  H  H159  1  0.38525957  0.91967431  0.48542935  1
  H  H160  1  0.33187650  0.75173212  0.49958053  1
  H  H161  1  0.63416277  0.58174338  0.51207849  1
  H  H162  1  0.68190354  0.11757598  0.00169927  1
  H  H163  1  0.54528930  0.91742482  0.50817820  1
  H  H164  1  0.34155142  0.91480290  0.99269756  1
  H  H165  1  0.65769293  0.58062602  0.99532339  1
  H  H166  1  0.83249107  0.90799395  0.50080819  1
  H  H167  1  0.70792271  0.42207305  0.50766012  1
  H  H168  1  0.95366658  0.91640105  0.50576212  1
  H  H169  1  0.42721964  0.24790888  0.49493071  1
  H  H170  1  0.67215144  0.90762510  0.50065210  1
  H  H171  1  0.05377103  0.08489205  0.49681957  1
  H  H172  1  0.18881441  0.91521222  0.49372222  1
  H  H173  1  0.57948539  0.06364342  1.00135761  1
  H  H174  1  0.67455177  0.24981589  0.49896010  1
  H  H175  1  0.30166190  0.08788760  -0.00821114  1
  H  H176  1  0.81389572  0.06588407  0.01571312  1
  H  H177  1  0.42133698  0.74615450  1.00017045  1
  H  H178  1  0.21127638  0.74890766  -0.00461522  1
  H  H179  1  0.44254449  0.41992008  1.00488959  1
  H  H180  1  0.86143017  0.41747488  0.48860975  1
  H  H181  1  0.14642077  0.42152870  0.01172507  1
  H  H182  1  0.07798207  0.25099466  0.50210015  1
  H  H183  1  0.56706968  0.40164378  0.50600332  1
  H  H184  1  0.66952427  0.74927510  0.49881615  1
  H  H185  1  0.04070303  0.24769572  -0.00514629  1
  H  H186  1  0.08007279  0.58143298  0.00368384  1
  H  H187  1  0.31908825  0.43359476  0.50075832  1
  H  H188  1  0.30051710  0.42029774  -0.00959969  1
  H  H189  1  0.89512958  0.74923111  0.98785964  1
  H  H190  1  0.84285925  0.91609540  0.99375991  1
  H  H191  1  0.39499375  0.25087984  0.00475539  1
  Pb  Pb192  1  0.25081869  0.04547456  0.74040938  1
  Pb  Pb193  1  0.25084226  0.38410443  0.74561766  1
  Pb  Pb194  1  0.24866761  0.71417514  0.75464265  1
  Pb  Pb195  1  0.75401478  0.04844757  0.75836400  1
  Pb  Pb196  1  0.74883883  0.38025065  0.74728269  1
  Pb  Pb197  1  0.75013608  0.71195732  0.74524235  1
  Pb  Pb198  1  0.24372031  0.28472092  0.24856551  1
  Pb  Pb199  1  0.25025853  0.62014070  0.25564172  1
  Pb  Pb200  1  0.24833938  0.95474186  0.24087170  1
  Pb  Pb201  1  0.74737042  0.28803672  0.24918600  1
  Pb  Pb202  1  0.75097537  0.62005413  0.24956261  1
  Pb  Pb203  1  0.74480551  0.95104647  0.25293322  1
  Pb  Pb204  1  0.00593966  0.21610779  0.75713683  1
  Pb  Pb205  1  -0.00459405  0.54680809  0.74909373  1
  Pb  Pb206  1  0.00086959  0.87952618  0.74808801  1
  Pb  Pb207  1  0.50184720  0.21220998  0.74635415  1
  Pb  Pb208  1  0.49837921  0.54671420  0.75256929  1
  Pb  Pb209  1  0.50331264  0.87985558  0.75355866  1
  Pb  Pb210  1  -0.00732550  0.11892793  0.25500566  1
  Pb  Pb211  1  -0.00108830  0.45459172  0.24669829  1
  Pb  Pb212  1  0.00154247  0.78666180  0.24113017  1
  Pb  Pb213  1  0.49949747  0.12068885  0.24454342  1
  Pb  Pb214  1  0.49686035  0.45149091  0.25334080  1
  Pb  Pb215  1  0.49884122  0.78628848  0.24917724  1
  C  C216  1  -0.00116440  0.04603921  0.63449958  1
  C  C217  1  -0.00008824  0.37866325  0.63373316  1
  C  C218  1  0.00005661  0.71034284  0.63011224  1
  C  C219  1  0.49712954  0.04613216  0.63286234  1
  C  C220  1  0.49477457  0.37479647  0.63065255  1
  C  C221  1  0.50070142  0.71061232  0.63474139  1
  C  C222  1  -0.00343303  0.28873891  0.13071605  1
  C  C223  1  0.00106236  0.61923994  0.13398457  1
  C  C224  1  -0.00404284  0.95424164  0.13345692  1
  C  C225  1  0.49326197  0.28761678  0.13018699  1
  C  C226  1  0.50116542  0.62042666  0.13195986  1
  C  C227  1  0.49880830  0.95335745  0.13057430  1
  C  C228  1  0.00014839  0.04531009  0.86936297  1
  C  C229  1  0.00213166  0.38002026  0.87002397  1
  C  C230  1  -0.00118542  0.71075337  0.86694334  1
  C  C231  1  0.50437277  0.04683293  0.86338223  1
  C  C232  1  0.50676426  0.37916045  0.86835094  1
  C  C233  1  0.49708032  0.71183042  0.86589966  1
  C  C234  1  -0.00332916  0.28701633  0.36973228  1
  C  C235  1  0.00360659  0.62358152  0.36978089  1
  C  C236  1  -0.00562230  0.95328719  0.36428232  1
  C  C237  1  0.49548215  0.28507838  0.36585548  1
  C  C238  1  0.50116352  0.62293804  0.36570448  1
  C  C239  1  0.49999646  0.95373536  0.36620418  1
  C  C240  1  0.25087681  0.21286263  0.63501877  1
  C  C241  1  0.24424453  0.54776673  0.63146873  1
  C  C242  1  0.25030550  0.87836015  0.63181957  1
  C  C243  1  0.75469590  0.21183671  0.63109628  1
  C  C244  1  0.75040916  0.54709960  0.62830124  1
  C  C245  1  0.75245510  0.87923667  0.63520028  1
  C  C246  1  0.24809392  0.11955404  0.13361820  1
  C  C247  1  0.24670091  0.45541530  0.13086915  1
  C  C248  1  0.24870859  0.78703075  0.13297869  1
  C  C249  1  0.74495055  0.12032893  0.13285961  1
  C  C250  1  0.74451487  0.45419288  0.12999883  1
  C  C251  1  0.75319439  0.78826469  0.13507296  1
  C  C252  1  0.25651725  0.21288349  0.86913806  1
  C  C253  1  0.25115226  0.54563539  0.86625812  1
  C  C254  1  0.25347018  0.87914051  0.86886763  1
  C  C255  1  0.75761737  0.21424238  0.86807893  1
  C  C256  1  0.74906295  0.54443372  0.86831601  1
  C  C257  1  0.75250336  0.87878556  0.87171770  1
  C  C258  1  0.24759711  0.12296210  0.36696596  1
  C  C259  1  0.25503527  0.45471362  0.36640142  1
  C  C260  1  0.24818790  0.78784737  0.36824944  1
  C  C261  1  0.75207543  0.12092114  0.37247078  1
  C  C262  1  0.74859226  0.45639798  0.36986669  1
  C  C263  1  0.75265853  0.78689424  0.36781790  1
  C  C264  1  0.21990115  0.90972173  0.96214904  1
  C  C265  1  0.20918022  0.76049247  0.46164264  1
  C  C266  1  0.68467861  0.57270125  0.54297545  1
  C  C267  1  0.32470374  0.23642960  0.95418559  1
  C  C268  1  0.18976568  0.09800922  0.04454601  1
  C  C269  1  0.54216407  0.73741574  0.95861835  1
  C  C270  1  0.51697798  0.92765364  0.46409886  1
  C  C271  1  0.71458109  0.23937713  0.53721011  1
  C  C272  1  0.76471968  0.57547012  0.53097597  1
  C  C273  1  0.29071823  0.76128816  0.46176483  1
  C  C274  1  0.97995103  0.41068808  0.96477406  1
  C  C275  1  0.47395918  0.07366686  0.53752427  1
  C  C276  1  0.79315743  0.90044551  0.54021883  1
  C  C277  1  0.70664087  0.42152154  0.03937363  1
  C  C278  1  0.79621223  0.23879280  0.53801272  1
  C  C279  1  0.30499281  0.90339565  0.54250856  1
  C  C280  1  0.71123426  0.90038458  0.54030807  1
  C  C281  1  0.45999694  0.73679959  0.96084635  1
  C  C282  1  0.94096007  0.73985523  0.95329366  1
  C  C283  1  0.22421338  0.90488297  0.53464477  1
  C  C284  1  0.93448373  0.26109337  0.04445657  1
  C  C285  1  0.55848877  0.40526171  0.95853873  1
  C  C286  1  0.79668204  0.24115524  0.96253378  1
  C  C287  1  0.02201335  0.07372060  0.53938405  1
  C  C288  1  0.95600143  0.26079926  0.46320851  1
  C  C289  1  0.54893473  0.59149126  0.04241281  1
  C  C290  1  0.52022267  0.92249707  0.03563048  1
  C  C291  1  0.70266725  0.57114412  0.95855234  1
  C  C292  1  0.71526191  0.24050954  0.96092030  1
  C  C293  1  0.71037850  0.76032912  0.46129786  1
  C  C294  1  0.20739664  0.42907915  0.45756952  1
  C  C295  1  0.46029970  0.06597558  0.95793285  1
  C  C296  1  0.03765717  0.26088724  0.46383765  1
  C  C297  1  0.24461511  0.23910013  0.96753565  1
  C  C298  1  0.27027769  0.09656930  0.03505329  1
  C  C299  1  0.81213154  0.42787695  0.45425202  1
  C  C300  1  0.78053744  0.09177734  0.46848925  1
  C  C301  1  0.04016900  0.59229949  0.04194077  1
  C  C302  1  0.01443043  0.40456591  0.53513651  1
  C  C303  1  0.47720129  0.40746997  0.96417542  1
  C  C304  1  0.43630892  0.92937888  0.45265581  1
  C  C305  1  0.27096544  0.42868497  0.03449856  1
  C  C306  1  0.54218420  0.06330377  0.96011328  1
  C  C307  1  0.98025815  0.92703593  0.46100018  1
  C  C308  1  0.72110003  0.91123276  0.96600546  1
  C  C309  1  0.79191841  0.76075983  0.46146320  1
  C  C310  1  0.52278239  0.26082848  0.03483108  1
  C  C311  1  0.93495465  0.40094317  0.54774015  1
  N  N312  1  0.44337330  0.26106481  0.04040045  1
  N  N313  1  0.01270612  0.25694913  0.03638781  1
  N  N314  1  0.19232213  0.42754074  0.04393929  1
  N  N315  1  0.79118001  0.76083536  0.04152369  1
  N  N316  1  0.31236579  0.76043601  0.04786035  1
  N  N317  1  0.27872270  0.57407856  0.53986475  1
  N  N318  1  0.94632207  0.92743329  0.04306378  1
  N  N319  1  0.96085056  0.59256564  0.03982293  1
  N  N320  1  0.73368132  0.42519403  0.46443136  1
  N  N321  1  0.94320230  0.07342886  0.54543533  1
  N  N322  1  0.28709532  0.42861518  0.46056386  1
  N  N323  1  0.45744740  0.41514424  0.54246621  1
  N  N324  1  0.70582007  0.09644484  0.03970206  1
  N  N325  1  0.28065392  0.57448608  0.96107634  1
  N  N326  1  0.20073664  0.57386859  0.53886480  1
  N  N327  1  0.78773042  0.10001542  0.03996108  1
  N  N328  1  0.29160277  0.24008356  0.54205941  1
  N  N329  1  0.46216498  0.26313028  0.45923806  1
  N  N330  1  0.47169070  0.58999654  0.03636294  1
  N  N331  1  0.03942405  0.74093797  0.53804383  1
  N  N332  1  0.54051571  0.26297952  0.45922130  1
  N  N333  1  0.05833212  0.92867637  0.45083450  1
  N  N334  1  0.54035986  0.41687845  0.54613255  1
  N  N335  1  0.55299672  0.07286296  0.54340833  1
  N  N336  1  0.96477780  0.59156574  0.46145640  1
  N  N337  1  0.96328195  0.74028649  0.53715345  1
  N  N338  1  0.21456813  0.24015280  0.54101208  1
  N  N339  1  0.70204042  0.09340209  0.46114405  1
  N  N340  1  0.02268415  0.92714945  0.03755302  1
  N  N341  1  0.02000155  0.74299594  0.96066944  1
  N  N342  1  0.71472494  0.76105294  0.04165910  1
  N  N343  1  0.04102928  0.59142506  0.46181524  1
  N  N344  1  0.45973833  0.73963450  0.54258993  1
  N  N345  1  0.44319565  0.92541856  0.04137308  1
  N  N346  1  0.23194095  0.09275759  0.46074376  1
  N  N347  1  0.29939792  0.90867047  0.95803209  1
  N  N348  1  0.30930479  0.09522999  0.45257869  1
  N  N349  1  0.53644734  0.73903870  0.54108754  1
  N  N350  1  0.06303378  0.07225267  0.95484088  1
  N  N351  1  0.05705834  0.40806771  0.95904650  1
  N  N352  1  0.98599087  0.07518716  0.96335883  1
  N  N353  1  0.79984726  0.90852444  0.96044553  1
  N  N354  1  0.20423671  0.57387606  0.95705257  1
  N  N355  1  0.54856462  0.59298631  0.45524030  1
  N  N356  1  0.47252209  0.59171995  0.45979823  1
  N  N357  1  0.23538241  0.75657886  0.03898709  1
  N  N358  1  0.78168335  0.57336483  0.96357313  1
  N  N359  1  0.78384973  0.42103714  0.03771852  1
  N  N360  1  0.05779913  0.05709673  0.59366810  1
  N  N361  1  0.05449397  0.39007813  0.59010313  1
  N  N362  1  0.06384809  0.72252618  0.59563539  1
  N  N363  1  0.56551292  0.05582857  0.60342485  1
  N  N364  1  0.56015922  0.38775045  0.59875551  1
  N  N365  1  0.56295509  0.72104843  0.59803243  1
  N  N366  1  0.42601348  0.27746151  0.09935382  1
  N  N367  1  0.44171205  0.60862333  0.09336267  1
  N  N368  1  0.42978766  0.94483679  0.10185679  1
  N  N369  1  0.92440219  0.27964021  0.10323659  1
  N  N370  1  0.93830861  0.60912796  0.09752855  1
  N  N371  1  0.92856945  0.94373807  0.10273963  1
  N  N372  1  0.43811681  0.05600861  0.89754338  1
  N  N373  1  0.44586080  0.39077931  0.90683134  1
  N  N374  1  0.43347464  0.72115632  0.90287448  1
  N  N375  1  0.94589214  0.05746732  0.91231098  1
  N  N376  1  0.94401789  0.39341230  0.91146532  1
  N  N377  1  0.92778526  0.72155197  0.89471803  1
  N  N378  1  0.06183223  0.27729596  0.40441989  1
  N  N379  1  0.06659473  0.61125292  0.40508482  1
  N  N380  1  0.06520077  0.94475949  0.39068683  1
  N  N381  1  0.56041357  0.27725261  0.40100463  1
  N  N382  1  0.56797417  0.61205024  0.39713345  1
  N  N383  1  0.55565729  0.94297094  0.40987241  1
  N  N384  1  0.31492204  0.22318343  0.60023487  1
  N  N385  1  0.30707946  0.55999459  0.59632446  1
  N  N386  1  0.32060685  0.88765104  0.60133119  1
  N  N387  1  0.82014892  0.22252180  0.59475926  1
  N  N388  1  0.80439877  0.55997397  0.58237403  1
  N  N389  1  0.81750013  0.88750668  0.59960195  1
  N  N390  1  0.17688088  0.11178885  0.10398047  1
  N  N391  1  0.17766089  0.44470928  0.10303550  1
  N  N392  1  0.19503334  0.77566461  0.08934852  1
  N  N393  1  0.68213290  0.11800475  0.09538067  1
  N  N394  1  0.67953384  0.44138688  0.09499530  1
  N  N395  1  0.69001337  0.77798974  0.09916258  1
  N  N396  1  0.20313010  0.22428061  0.91352897  1
  N  N397  1  0.18468190  0.55651692  0.89811314  1
  N  N398  1  0.19099554  0.89204768  0.90663286  1
  N  N399  1  0.69194910  0.22445949  0.90391621  1
  N  N400  1  0.68127938  0.55407992  0.90010972  1
  N  N401  1  0.69159560  0.89309026  0.91108332  1
  N  N402  1  0.31820074  0.11220189  0.39362402  1
  N  N403  1  0.31647793  0.44813745  0.40476244  1
  N  N404  1  0.31379735  0.77821207  0.40233240  1
  N  N405  1  0.81188535  0.10868248  0.41365412  1
  N  N406  1  0.82123922  0.44567866  0.39513205  1
  N  N407  1  0.81723296  0.77662390  0.40507263  1
  N  N408  1  0.43324478  0.27387017  0.40204531  1
  N  N409  1  0.44172904  0.61024420  0.40433122  1
  N  N410  1  0.42762292  0.94543433  0.39180818  1
  N  N411  1  0.93169189  0.27634088  0.40629907  1
  N  N412  1  0.93998355  0.61152656  0.40456321  1
  N  N413  1  0.93929027  0.94212834  0.40827017  1
  N  N414  1  0.07136637  0.05500890  0.89577560  1
  N  N415  1  0.07112728  0.38885828  0.89874675  1
  N  N416  1  0.05566451  0.72163007  0.90829679  1
  N  N417  1  0.56839521  0.05222006  0.90074587  1
  N  N418  1  0.57572538  0.38833628  0.90056314  1
  N  N419  1  0.56352191  0.72205829  0.89939850  1
  N  N420  1  0.05178548  0.27546877  0.08911676  1
  N  N421  1  0.06645078  0.60846897  0.09947936  1
  N  N422  1  0.05455188  0.94372025  0.09331817  1
  N  N423  1  0.55407855  0.27679342  0.09039796  1
  N  N424  1  0.56940614  0.60950689  0.10048124  1
  N  N425  1  0.55655710  0.93958873  0.08898863  1
  N  N426  1  0.43843476  0.05776527  0.59198479  1
  N  N427  1  0.43242761  0.38678169  0.59476177  1
  N  N428  1  0.43645380  0.72231843  0.60052158  1
  N  N429  1  0.93068086  0.05637392  0.60465889  1
  N  N430  1  0.92627110  0.38557720  0.60735963  1
  N  N431  1  0.93722240  0.72116392  0.59406841  1
  N  N432  1  0.19274218  0.11218171  0.40996928  1
  N  N433  1  0.18747493  0.44354241  0.39902037  1
  N  N434  1  0.18370984  0.77647759  0.40532645  1
  N  N435  1  0.68388047  0.11156769  0.40197714  1
  N  N436  1  0.69432261  0.44614158  0.41342141  1
  N  N437  1  0.68710845  0.77685141  0.40183400  1
  N  N438  1  0.33075609  0.22067999  0.89389747  1
  N  N439  1  0.31101052  0.55696893  0.90506257  1
  N  N440  1  0.31981494  0.88856606  0.90099976  1
  N  N441  1  0.82193444  0.22445429  0.90337960  1
  N  N442  1  0.80905467  0.55621024  0.90699730  1
  N  N443  1  0.81985021  0.88820135  0.90245482  1
  N  N444  1  0.30605362  0.11007131  0.09196280  1
  N  N445  1  0.30531038  0.44491049  0.08877557  1
  N  N446  1  0.31999682  0.77769592  0.10689777  1
  N  N447  1  0.80890407  0.10508742  0.10020899  1
  N  N448  1  0.80783780  0.44176882  0.09544070  1
  N  N449  1  0.81643748  0.77784768  0.09943675  1
  N  N450  1  0.18847941  0.22370350  0.59851036  1
  N  N451  1  0.17972454  0.55669127  0.59600524  1
  N  N452  1  0.19109117  0.88908461  0.59186478  1
  N  N453  1  0.68994878  0.22274986  0.59638216  1
  N  N454  1  0.67740219  0.55505997  0.60436520  1
  N  N455  1  0.68720943  0.88747494  0.59969915  1
  Cl  Cl456  1  0.24510095  0.05943546  0.60262482  1
  Cl  Cl457  1  0.24780149  0.39631351  0.60444998  1
  Cl  Cl458  1  0.25142909  0.72172893  0.62102364  1
  Cl  Cl459  1  0.74758642  0.05741248  0.62595421  1
  Cl  Cl460  1  0.74004928  0.39545949  0.60955781  1
  Cl  Cl461  1  0.74940188  0.71976121  0.60949191  1
  Cl  Cl462  1  0.23877917  0.28001612  0.11204559  1
  Cl  Cl463  1  0.25400840  0.61390132  0.12408128  1
  Cl  Cl464  1  0.24058256  0.94569786  0.10502448  1
  Cl  Cl465  1  0.73920069  0.27865793  0.11650136  1
  Cl  Cl466  1  0.75239256  0.61031154  0.11827820  1
  Cl  Cl467  1  0.74425607  0.94855142  0.11421809  1
  Cl  Cl468  1  0.25515116  0.05142265  0.87317061  1
  Cl  Cl469  1  0.25854497  0.39009817  0.88052583  1
  Cl  Cl470  1  0.23949577  0.72955859  0.89587504  1
  Cl  Cl471  1  0.75992636  0.05707682  0.89908243  1
  Cl  Cl472  1  0.75915906  0.38583462  0.87703528  1
  Cl  Cl473  1  0.74616249  0.71869912  0.87304143  1
  Cl  Cl474  1  0.24977563  0.28444750  0.37982715  1
  Cl  Cl475  1  0.25825632  0.61165227  0.39400162  1
  Cl  Cl476  1  0.24646049  0.95077221  0.37038609  1
  Cl  Cl477  1  0.74528955  0.28074841  0.38346657  1
  Cl  Cl478  1  0.75474803  0.61424093  0.38437085  1
  Cl  Cl479  1  0.74812361  0.94563258  0.38829059  1
  Cl  Cl480  1  0.00546992  0.22035683  0.62373819  1
  Cl  Cl481  1  -0.00769627  0.55226597  0.61764694  1
  Cl  Cl482  1  0.00281089  0.89005128  0.61327936  1
  Cl  Cl483  1  0.49864350  0.22439205  0.61192773  1
  Cl  Cl484  1  0.48903791  0.55296271  0.62118290  1
  Cl  Cl485  1  0.50428286  0.88848816  0.61960857  1
  Cl  Cl486  1  -0.01109518  0.11345797  0.11055714  1
  Cl  Cl487  1  -0.00590094  0.44340941  0.11446040  1
  Cl  Cl488  1  0.00974232  0.77179223  0.10089905  1
  Cl  Cl489  1  0.49777620  0.11000173  0.10931735  1
  Cl  Cl490  1  0.49096122  0.44548931  0.12030278  1
  Cl  Cl491  1  0.50580916  0.78041582  0.11397007  1
  Cl  Cl492  1  0.01552874  0.22608860  0.89596413  1
  Cl  Cl493  1  -0.00074685  0.55206475  0.88418628  1
  Cl  Cl494  1  0.00386159  0.88452613  0.88000492  1
  Cl  Cl495  1  0.51224742  0.22296053  0.87918431  1
  Cl  Cl496  1  0.49614795  0.55100672  0.88423933  1
  Cl  Cl497  1  0.50455239  0.88814655  0.88522287  1
  Cl  Cl498  1  0.00614290  0.11181922  0.39010402  1
  Cl  Cl499  1  0.00533629  0.44414328  0.38007192  1
  Cl  Cl500  1  -0.00056637  0.78348496  0.37147778  1
  Cl  Cl501  1  0.50119175  0.11403834  0.37842743  1
  Cl  Cl502  1  0.50490486  0.43058486  0.40093557  1
  Cl  Cl503  1  0.50020745  0.78190560  0.37610648  1
  Cl  Cl504  1  0.36488353  0.14481411  0.75423571  1
  Cl  Cl505  1  0.36255914  0.47602282  0.74254513  1
  Cl  Cl506  1  0.36380849  0.81340809  0.75259117  1
  Cl  Cl507  1  0.85788063  0.14658373  0.74966859  1
  Cl  Cl508  1  0.85558050  0.48294421  0.74428072  1
  Cl  Cl509  1  0.86100532  0.81372478  0.75264752  1
  Cl  Cl510  1  0.14284879  0.18629253  0.24560544  1
  Cl  Cl511  1  0.14095596  0.51804962  0.24628798  1
  Cl  Cl512  1  0.14060113  0.85285124  0.24962416  1
  Cl  Cl513  1  0.63974701  0.18445275  0.25319927  1
  Cl  Cl514  1  0.63876513  0.51958083  0.25365262  1
  Cl  Cl515  1  0.64244390  0.85497622  0.25181078  1
  Cl  Cl516  1  0.14317692  0.14871213  0.75215782  1
  Cl  Cl517  1  0.14511512  0.47889883  0.75075412  1
  Cl  Cl518  1  0.14309402  0.81756060  0.75167104  1
  Cl  Cl519  1  0.63900461  0.14579501  0.75401280  1
  Cl  Cl520  1  0.63366642  0.47852570  0.74436810  1
  Cl  Cl521  1  0.64144570  0.81425896  0.75082757  1
  Cl  Cl522  1  0.36374822  0.18905402  0.25235369  1
  Cl  Cl523  1  0.36104833  0.51841548  0.25378146  1
  Cl  Cl524  1  0.36251381  0.85485689  0.24348992  1
  Cl  Cl525  1  0.85736338  0.18529823  0.24944365  1
  Cl  Cl526  1  0.86047388  0.51810156  0.25243517  1
  Cl  Cl527  1  0.86463041  0.85534852  0.24472681  1
  Cl  Cl528  1  0.10731374  0.31449175  0.75411227  1
  Cl  Cl529  1  0.11177080  0.64598916  0.75198085  1
  Cl  Cl530  1  0.10961847  0.98285760  0.75392906  1
  Cl  Cl531  1  0.61338039  0.31206464  0.74844054  1
  Cl  Cl532  1  0.60932402  0.64648081  0.74831144  1
  Cl  Cl533  1  0.61274085  0.98118375  0.74802557  1
  Cl  Cl534  1  0.38605633  0.02082750  0.24983935  1
  Cl  Cl535  1  0.39142138  0.35457133  0.25092774  1
  Cl  Cl536  1  0.39228050  0.68610690  0.24812877  1
  Cl  Cl537  1  0.89222342  0.02248705  0.24517175  1
  Cl  Cl538  1  0.88853090  0.35224859  0.24902076  1
  Cl  Cl539  1  0.89001327  0.68673340  0.24451682  1
  Cl  Cl540  1  0.39190998  0.31128334  0.74963436  1
  Cl  Cl541  1  0.38519010  0.64618164  0.75365359  1
  Cl  Cl542  1  0.38972518  0.97948757  0.74899086  1
  Cl  Cl543  1  0.88590736  0.31192560  0.74472773  1
  Cl  Cl544  1  0.89053213  0.64707097  0.75493201  1
  Cl  Cl545  1  0.88850792  0.98019281  0.74705449  1
  Cl  Cl546  1  0.11218626  0.02284518  0.24892932  1
  Cl  Cl547  1  0.10814954  0.35210122  0.24838372  1
  Cl  Cl548  1  0.11227229  0.68620577  0.25042787  1
  Cl  Cl549  1  0.60853615  0.01827350  0.24783445  1
  Cl  Cl550  1  0.60718420  0.35074528  0.25227488  1
  Cl  Cl551  1  0.61339444  0.68744014  0.24962968  1
