# generated using pymatgen
data_H8PbC4(N3Cl2)2
_symmetry_space_group_name_H-M   'P 1'
_cell_length_a   16.62989028
_cell_length_b   22.52687460
_cell_length_c   21.59853098
_cell_angle_alpha   90.00001751
_cell_angle_beta   90.01305421
_cell_angle_gamma   90.01536446
_symmetry_Int_Tables_number   1
_chemical_formula_structural   H8PbC4(N3Cl2)2
_chemical_formula_sum   'H192 Pb24 C96 N144 Cl96'
_cell_volume   8091.22936048
_cell_formula_units_Z   24
loop_
 _symmetry_equiv_pos_site_id
 _symmetry_equiv_pos_as_xyz
  1  'x, y, z'
loop_
 _atom_site_type_symbol
 _atom_site_label
 _atom_site_symmetry_multiplicity
 _atom_site_fract_x
 _atom_site_fract_y
 _atom_site_fract_z
 _atom_site_occupancy
  H  H0  1  -0.00051839  0.02520335  0.67371536  1
  H  H1  1  0.00364527  0.36268477  0.68132838  1
  H  H2  1  -0.01705749  0.69344596  0.67443760  1
  H  H3  1  0.49469731  0.02702508  0.67808037  1
  H  H4  1  0.48956880  0.36084359  0.67566414  1
  H  H5  1  0.52240814  0.69550750  0.67460018  1
  H  H6  1  -0.01274442  0.30694346  0.17333516  1
  H  H7  1  -0.01382384  0.63862224  0.17736297  1
  H  H8  1  -0.01606765  0.97406056  0.17810367  1
  H  H9  1  0.51848438  0.30626125  0.17645854  1
  H  H10  1  0.50650237  0.63441684  0.17956763  1
  H  H11  1  0.50715705  0.96744282  0.18338709  1
  H  H12  1  0.00013822  0.02451254  0.82652048  1
  H  H13  1  0.00358810  0.35647849  0.82622089  1
  H  H14  1  -0.00233581  0.69663268  0.81614038  1
  H  H15  1  0.50248246  0.03417388  0.82299077  1
  H  H16  1  0.50068093  0.36134425  0.82120102  1
  H  H17  1  0.48268002  0.69188107  0.82278903  1
  H  H18  1  0.01942699  0.30462164  0.32109938  1
  H  H19  1  -0.00212076  0.63609556  0.32052039  1
  H  H20  1  0.01561932  0.97199728  0.32333251  1
  H  H21  1  0.48146097  0.30014745  0.32312442  1
  H  H22  1  0.50139821  0.63882017  0.31998466  1
  H  H23  1  0.48558589  0.96976271  0.32299558  1
  H  H24  1  0.24287983  0.19664761  0.68549398  1
  H  H25  1  0.24195405  0.52739667  0.67441954  1
  H  H26  1  0.24109236  0.86043794  0.68281421  1
  H  H27  1  0.74934437  0.19701932  0.67243272  1
  H  H28  1  0.75458423  0.52656548  0.67500492  1
  H  H29  1  0.76779510  0.86442375  0.67598321  1
  H  H30  1  0.25039634  0.14468818  0.17203622  1
  H  H31  1  0.23998820  0.47321250  0.17581055  1
  H  H32  1  0.25470343  0.80945454  0.18051386  1
  H  H33  1  0.74725638  0.13559364  0.17641222  1
  H  H34  1  0.76109807  0.46996510  0.17232883  1
  H  H35  1  0.74912708  0.80029731  0.18133427  1
  H  H36  1  0.25972242  0.19463980  0.82763955  1
  H  H37  1  0.24170109  0.52672189  0.82848000  1
  H  H38  1  0.24349502  0.86347774  0.82141617  1
  H  H39  1  0.74264743  0.19430560  0.82400050  1
  H  H40  1  0.76373830  0.52241237  0.82253944  1
  H  H41  1  0.73619204  0.85536989  0.82195863  1
  H  H42  1  0.24051053  0.13445770  0.32271637  1
  H  H43  1  0.25651848  0.46819289  0.31711389  1
  H  H44  1  0.24592537  0.80112959  0.32489304  1
  H  H45  1  0.75426180  0.14006729  0.32134395  1
  H  H46  1  0.74750565  0.47332975  0.32634888  1
  H  H47  1  0.75984502  0.80702516  0.32464473  1
  H  H48  1  0.11278888  0.05655950  0.59672237  1
  H  H49  1  0.13275482  0.38781360  0.61468746  1
  H  H50  1  0.12512192  0.71498656  0.62470528  1
  H  H51  1  0.61244395  0.05567972  0.60293901  1
  H  H52  1  0.63244994  0.38503482  0.63091046  1
  H  H53  1  0.62045849  0.72586353  0.58686999  1
  H  H54  1  0.38060719  0.28219328  0.12120642  1
  H  H55  1  0.37755336  0.61060233  0.11544608  1
  H  H56  1  0.36705455  0.95320823  0.13082025  1
  H  H57  1  0.88476021  0.27619685  0.08717323  1
  H  H58  1  0.88529063  0.60599541  0.09242838  1
  H  H59  1  0.86748059  0.94338086  0.10237476  1
  H  H60  1  0.39435376  0.05926537  0.90438892  1
  H  H61  1  0.38557558  0.38910678  0.89872003  1
  H  H62  1  0.38723214  0.72445913  0.91274123  1
  H  H63  1  0.88973137  0.05919590  0.90535559  1
  H  H64  1  0.88234495  0.38625574  0.89652184  1
  H  H65  1  0.87714797  0.72144292  0.88870354  1
  H  H66  1  0.11622366  0.27497068  0.40902791  1
  H  H67  1  0.11183589  0.61250211  0.39740545  1
  H  H68  1  0.11513288  0.93867587  0.41082929  1
  H  H69  1  0.62801721  0.28533025  0.36863321  1
  H  H70  1  0.61543422  0.61071834  0.39894793  1
  H  H71  1  0.62492304  0.95021687  0.37607712  1
  H  H72  1  0.37101633  0.21898688  0.62024379  1
  H  H73  1  0.38207061  0.54672843  0.62102896  1
  H  H74  1  0.37846005  0.88285637  0.62505577  1
  H  H75  1  0.87008390  0.22384986  0.59978247  1
  H  H76  1  0.88146985  0.55598277  0.60901240  1
  H  H77  1  0.87169914  0.89013945  0.59175774  1
  H  H78  1  0.11546337  0.11225694  0.11939636  1
  H  H79  1  0.12235452  0.44032829  0.10229327  1
  H  H80  1  0.11634945  0.78592716  0.12803034  1
  H  H81  1  0.61125942  0.11801516  0.11891888  1
  H  H82  1  0.61965734  0.44983570  0.12185108  1
  H  H83  1  0.62151835  0.77948526  0.11666734  1
  H  H84  1  0.12267073  0.21939657  0.88353189  1
  H  H85  1  0.12271473  0.55820210  0.90051507  1
  H  H86  1  0.12671363  0.89377160  0.89524933  1
  H  H87  1  0.62385916  0.22438996  0.89694653  1
  H  H88  1  0.62325765  0.54488265  0.87237153  1
  H  H89  1  0.63466506  0.88898968  0.90790198  1
  H  H90  1  0.38314534  0.11710868  0.37408709  1
  H  H91  1  0.36135516  0.44076734  0.40075575  1
  H  H92  1  0.37618736  0.77886443  0.38886184  1
  H  H93  1  0.87975904  0.11021941  0.39016015  1
  H  H94  1  0.86280946  0.44811933  0.40393931  1
  H  H95  1  0.86928394  0.77438484  0.40408050  1
  H  H96  1  0.38676639  0.27315581  0.41294490  1
  H  H97  1  0.36807353  0.61556000  0.38378683  1
  H  H98  1  0.38053340  0.93798109  0.40772910  1
  H  H99  1  0.87405693  0.28624634  0.36705281  1
  H  H100  1  0.86369236  0.61621756  0.38075442  1
  H  H101  1  0.87268609  0.94934136  0.37179280  1
  H  H102  1  0.13543579  0.05219515  0.88341498  1
  H  H103  1  0.13086360  0.38834107  0.89057284  1
  H  H104  1  0.12555631  0.72177773  0.88384138  1
  H  H105  1  0.64086012  0.05285302  0.87641337  1
  H  H106  1  0.63385345  0.38274319  0.88336147  1
  H  H107  1  0.62753790  0.71421062  0.86795928  1
  H  H108  1  0.12859515  0.28462933  0.12438285  1
  H  H109  1  0.12882769  0.61512104  0.12873737  1
  H  H110  1  0.11578245  0.94901486  0.11530440  1
  H  H111  1  0.62713088  0.27680197  0.09480977  1
  H  H112  1  0.62539201  0.60958477  0.10376458  1
  H  H113  1  0.61255367  0.94272964  0.09905488  1
  H  H114  1  0.36389679  0.05120328  0.61473890  1
  H  H115  1  0.39049335  0.39536907  0.59025038  1
  H  H116  1  0.37789167  0.71528648  0.62836358  1
  H  H117  1  0.86548698  0.05278607  0.61628249  1
  H  H118  1  0.88419578  0.39209768  0.60908145  1
  H  H119  1  0.88112235  0.72503443  0.58888341  1
  H  H120  1  0.13821392  0.10605284  0.40776054  1
  H  H121  1  0.11634351  0.45410747  0.36928638  1
  H  H122  1  0.12721227  0.77709080  0.39770095  1
  H  H123  1  0.63080421  0.11341800  0.39087084  1
  H  H124  1  0.61556851  0.44652020  0.38798257  1
  H  H125  1  0.62270275  0.78290364  0.38089294  1
  H  H126  1  0.37018894  0.22639204  0.90599996  1
  H  H127  1  0.37037308  0.54693078  0.89472794  1
  H  H128  1  0.37476008  0.88614435  0.88621974  1
  H  H129  1  0.87246981  0.22084308  0.88819898  1
  H  H130  1  0.86791716  0.55801629  0.90523708  1
  H  H131  1  0.87727284  0.88183168  0.87099878  1
  H  H132  1  0.36172062  0.11199351  0.09383595  1
  H  H133  1  0.37049713  0.44578224  0.11198002  1
  H  H134  1  0.36196588  0.77444734  0.09896785  1
  H  H135  1  0.85884066  0.11176809  0.09695543  1
  H  H136  1  0.86362241  0.43460910  0.09016587  1
  H  H137  1  0.86968743  0.77816746  0.10844986  1
  H  H138  1  0.12164622  0.21883924  0.61261012  1
  H  H139  1  0.13736669  0.56145090  0.59262870  1
  H  H140  1  0.13162789  0.88602901  0.60014569  1
  H  H141  1  0.62153275  0.22179461  0.60639591  1
  H  H142  1  0.63303743  0.55762797  0.60566589  1
  H  H143  1  0.62648065  0.88063816  0.62455937  1
  H  H144  1  0.21475945  0.58028124  0.49237517  1
  H  H145  1  0.79466098  0.08704782  -0.01148828  1
  H  H146  1  0.14690749  0.25008213  0.99254994  1
  H  H147  1  0.68130448  0.07639279  0.49742616  1
  H  H148  1  0.92746277  0.91002038  -0.00145308  1
  H  H149  1  0.29178783  0.07854530  -0.00564357  1
  H  H150  1  0.54216014  0.91739667  -0.00553026  1
  H  H151  1  0.17126628  0.24832548  0.50347845  1
  H  H152  1  0.33234940  0.24807925  0.50803039  1
  H  H153  1  0.79214382  0.58433517  1.00354435  1
  H  H154  1  0.79717535  0.40890198  0.50157891  1
  H  H155  1  0.62273518  0.25471821  0.47838457  1
  H  H156  1  0.96159699  0.08818095  1.00539828  1
  H  H157  1  0.93041321  0.75297919  0.99634642  1
  H  H158  1  0.62987478  0.08685503  0.00124672  1
  H  H159  1  0.54064469  0.75582827  0.48779945  1
  H  H160  1  0.36108617  0.58590999  0.51585851  1
  H  H161  1  0.03502370  0.24684550  0.50922758  1
  H  H162  1  0.46351316  0.08850759  1.01011373  1
  H  H163  1  0.47517592  0.74904527  1.00737296  1
  H  H164  1  0.71690902  0.91749851  1.00402696  1
  H  H165  1  0.38271221  0.92564013  1.01604392  1
  H  H166  1  0.63904593  0.58398580  0.98231579  1
  H  H167  1  0.03050780  0.91148948  0.50617742  1
  H  H168  1  0.04559717  0.08637058  0.49459333  1
  H  H169  1  0.13645768  0.75333860  0.01550776  1
  H  H170  1  0.47337641  0.42085410  0.49237458  1
  H  H171  1  0.60671436  0.91739601  0.48932439  1
  H  H172  1  0.17584364  0.57613772  1.00431926  1
  H  H173  1  0.33075729  0.58760452  0.99453087  1
  H  H174  1  0.64825066  0.42505356  0.49829981  1
  H  H175  1  0.96419216  0.57223130  -0.00605341  1
  H  H176  1  0.32577631  0.41613726  0.00587080  1
  H  H177  1  0.38488100  0.74663144  0.51822927  1
  H  H178  1  0.29014817  0.41402840  0.50506377  1
  H  H179  1  0.88441358  0.25627057  0.47595578  1
  H  H180  1  0.65856666  0.75136971  1.00317556  1
  H  H181  1  0.36904270  0.08666195  0.48415408  1
  H  H182  1  0.20197812  0.91343154  0.49639672  1
  H  H183  1  0.17753681  0.74776268  0.50669243  1
  H  H184  1  0.79957865  0.91886833  0.48788973  1
  H  H185  1  0.05150224  0.58427136  0.50672827  1
  H  H186  1  0.30443315  0.25729415  1.01094952  1
  H  H187  1  0.29047787  0.75206280  -0.00126274  1
  H  H188  1  0.63587380  0.41521058  0.01252050  1
  H  H189  1  0.13119147  0.42380817  0.48324563  1
  H  H190  1  0.21438189  0.07750975  0.51038367  1
  H  H191  1  0.47089245  0.24612865  0.51283717  1
  Pb  Pb192  1  0.25400520  0.04800950  0.75360424  1
  Pb  Pb193  1  0.25737171  0.38183128  0.74966353  1
  Pb  Pb194  1  0.26182672  0.71716075  0.76337301  1
  Pb  Pb195  1  0.75887156  0.05090288  0.74745273  1
  Pb  Pb196  1  0.75939676  0.38264317  0.74699162  1
  Pb  Pb197  1  0.75478579  0.71428134  0.73590451  1
  Pb  Pb198  1  0.24744365  0.28504931  0.26318887  1
  Pb  Pb199  1  0.24331364  0.61591437  0.25438858  1
  Pb  Pb200  1  0.23913396  0.95015264  0.26105195  1
  Pb  Pb201  1  0.74310642  0.28317162  0.23579684  1
  Pb  Pb202  1  0.74404587  0.61769114  0.24050309  1
  Pb  Pb203  1  0.74582816  0.95134522  0.23567311  1
  Pb  Pb204  1  0.00499266  0.21433384  0.74473282  1
  Pb  Pb205  1  0.01025718  0.55097365  0.75114358  1
  Pb  Pb206  1  0.00535951  0.88070337  0.74081496  1
  Pb  Pb207  1  0.50426454  0.21512762  0.75421368  1
  Pb  Pb208  1  0.50360780  0.54652882  0.75077834  1
  Pb  Pb209  1  0.50931405  0.88460826  0.75849547  1
  Pb  Pb210  1  -0.00375918  0.11981220  0.25145280  1
  Pb  Pb211  1  -0.01174010  0.44837947  0.24574547  1
  Pb  Pb212  1  -0.00760247  0.78294413  0.25466745  1
  Pb  Pb213  1  0.49258559  0.11605676  0.24701047  1
  Pb  Pb214  1  0.49463370  0.45127552  0.25813512  1
  Pb  Pb215  1  0.49247610  0.78476694  0.24304678  1
  C  C216  1  -0.00712789  0.04321438  0.62755717  1
  C  C217  1  0.00732981  0.37987889  0.63474769  1
  C  C218  1  -0.00321591  0.71067523  0.62897670  1
  C  C219  1  0.49048890  0.04407946  0.63138685  1
  C  C220  1  0.50419092  0.37866857  0.63035361  1
  C  C221  1  0.50613315  0.71187483  0.62879243  1
  C  C222  1  0.00016290  0.28954302  0.12773672  1
  C  C223  1  0.00065106  0.62073547  0.13204343  1
  C  C224  1  -0.01099174  0.95599233  0.13170534  1
  C  C225  1  0.50837560  0.28912864  0.13035181  1
  C  C226  1  0.50343139  0.61867155  0.13246279  1
  C  C227  1  0.49501701  0.95399757  0.13598776  1
  C  C228  1  0.00821329  0.04386409  0.87211203  1
  C  C229  1  0.00584186  0.37625099  0.87174918  1
  C  C230  1  0.00055901  0.71290231  0.86339793  1
  C  C231  1  0.51280834  0.04842028  0.87030405  1
  C  C232  1  0.50656695  0.37683466  0.86837031  1
  C  C233  1  0.49901702  0.70884195  0.86810772  1
  C  C234  1  0.00247130  0.28860002  0.36680024  1
  C  C235  1  -0.00863902  0.62195704  0.36813553  1
  C  C236  1  0.00152955  0.95475187  0.36893090  1
  C  C237  1  0.49958086  0.28548410  0.36913162  1
  C  C238  1  0.49487603  0.62292947  0.36724348  1
  C  C239  1  0.49681431  0.95351901  0.36935874  1
  C  C240  1  0.24531355  0.21157411  0.63769783  1
  C  C241  1  0.25412577  0.54487972  0.62833678  1
  C  C242  1  0.25057621  0.87612065  0.63589283  1
  C  C243  1  0.74715905  0.21405019  0.62562249  1
  C  C244  1  0.75671222  0.54617604  0.62938125  1
  C  C245  1  0.75555548  0.87868571  0.62895351  1
  C  C246  1  0.24263465  0.12448374  0.12696025  1
  C  C247  1  0.24462226  0.45441401  0.12981759  1
  C  C248  1  0.24444617  0.79208011  0.13419288  1
  C  C249  1  0.73892226  0.12184195  0.12855661  1
  C  C250  1  0.74747267  0.45282105  0.12664251  1
  C  C251  1  0.74598925  0.78626773  0.13345994  1
  C  C252  1  0.25024604  0.21250104  0.87391429  1
  C  C253  1  0.24482077  0.54359506  0.87556670  1
  C  C254  1  0.24879215  0.88064280  0.86792864  1
  C  C255  1  0.74656128  0.21250772  0.87014455  1
  C  C256  1  0.75173478  0.54051576  0.86834899  1
  C  C257  1  0.74913115  0.87395014  0.86718723  1
  C  C258  1  0.25485645  0.11919731  0.36929379  1
  C  C259  1  0.24417908  0.45415531  0.36432151  1
  C  C260  1  0.24929483  0.78573391  0.37239498  1
  C  C261  1  0.75521899  0.12175146  0.36769446  1
  C  C262  1  0.74151572  0.45690732  0.37349291  1
  C  C263  1  0.75025456  0.78913845  0.37050260  1
  C  C264  1  0.29091181  0.23762756  0.54536650  1
  C  C265  1  0.70494460  0.24214558  0.53402034  1
  C  C266  1  0.69033385  0.90319922  0.54377765  1
  C  C267  1  0.93736568  0.07899533  0.54175211  1
  C  C268  1  0.27350744  0.24540673  0.96826865  1
  C  C269  1  0.93722983  0.59661985  0.45730136  1
  C  C270  1  0.70121209  0.76109555  0.04021092  1
  C  C271  1  0.21959003  0.91463235  0.96027760  1
  C  C272  1  0.72246010  0.58386561  0.53995553  1
  C  C273  1  0.18353493  0.76210132  0.04936410  1
  C  C274  1  0.44486297  0.07280342  0.54137525  1
  C  C275  1  0.71623288  0.24658793  0.96172680  1
  C  C276  1  0.76325793  0.41586996  0.03200048  1
  C  C277  1  0.77012109  0.75415077  0.46372085  1
  C  C278  1  0.20904090  0.23734622  0.54287520  1
  C  C279  1  0.18478949  0.08506015  0.04375758  1
  C  C280  1  0.97227467  0.41321694  0.96153016  1
  C  C281  1  0.51535162  0.74319742  0.53239359  1
  C  C282  1  0.97474488  0.41318435  0.54280940  1
  C  C283  1  0.57437152  0.07349574  0.95718284  1
  C  C284  1  0.96778621  0.74142792  0.95661269  1
  C  C285  1  0.68781866  0.57392018  0.95028012  1
  C  C286  1  0.76263886  0.09673498  0.03136687  1
  C  C287  1  0.98507472  0.74354010  0.53392238  1
  C  C288  1  0.43178587  0.93267475  0.04871829  1
  C  C289  1  0.21702445  0.75835322  0.46809602  1
  C  C290  1  0.96223155  0.92299735  0.03899340  1
  C  C291  1  0.01809554  0.59516966  0.46493019  1
  C  C292  1  0.01136558  0.25863882  0.46380731  1
  C  C293  1  0.29849072  0.75975406  0.46361788  1
  C  C294  1  0.49362869  0.07611841  0.96726132  1
  C  C295  1  0.77000504  0.90689394  0.53093145  1
  C  C296  1  0.55556554  0.92667002  0.45541530  1
  C  C297  1  0.71929383  0.08909675  0.45869685  1
  C  C298  1  0.78275036  0.76101519  0.03879432  1
  C  C299  1  0.55486248  0.40291200  0.95845821  1
  C  C300  1  0.18031983  0.43117518  0.45078274  1
  C  C301  1  0.23181629  0.90361081  0.54018459  1
  C  C302  1  0.24073868  0.08982337  0.46592346  1
  C  C303  1  0.57319659  0.41153137  0.54974668  1
  C  C304  1  0.52712818  0.25637257  0.03629993  1
  C  C305  1  0.49318302  0.25764486  0.46687803  1
  C  C306  1  0.68117766  0.09797102  0.03957980  1
  C  C307  1  0.99053411  0.58629394  0.03786735  1
  C  C308  1  0.26094102  0.42647081  0.46179058  1
  C  C309  1  0.51254248  0.92872911  0.03788121  1
  C  C310  1  0.45815379  0.59198869  0.04117630  1
  C  C311  1  0.06155932  0.26158363  0.04336704  1
  N  N312  1  0.04697643  0.74158968  0.95520967  1
  N  N313  1  0.00918936  0.92062232  0.46178426  1
  N  N314  1  0.57032725  0.73801058  0.94819506  1
  N  N315  1  0.56975635  0.26031263  0.45019725  1
  N  N316  1  0.52141021  0.59461683  0.46263962  1
  N  N317  1  0.06638445  0.07687148  0.95738368  1
  N  N318  1  0.79841473  0.08750512  0.45848707  1
  N  N319  1  0.31482922  0.56867303  0.54341311  1
  N  N320  1  0.04958226  0.41463324  0.96063668  1
  N  N321  1  0.20990593  0.42031546  0.03779537  1
  N  N322  1  0.04128239  0.92451677  0.04281298  1
  N  N323  1  0.06824153  0.58883207  0.04964392  1
  N  N324  1  0.69328549  0.75708290  0.45765137  1
  N  N325  1  0.31848405  0.09321950  0.45317662  1
  N  N326  1  0.49465317  0.74179999  0.96169326  1
  N  N327  1  0.78297146  0.24388249  0.53098872  1
  N  N328  1  0.19462966  0.24357412  0.95932615  1
  N  N329  1  0.26308463  0.08647288  0.03585501  1
  N  N330  1  0.98578328  0.25735564  0.03075717  1
  N  N331  1  0.06126174  0.74011789  0.54405051  1
  N  N332  1  0.79332991  0.24532442  0.96024930  1
  N  N333  1  0.47760200  0.40563889  0.96470252  1
  N  N334  1  0.49593588  0.41439648  0.53697077  1
  N  N335  1  0.93280722  0.92454195  0.45014639  1
  N  N336  1  0.28770232  0.42179088  0.04254949  1
  N  N337  1  0.79981283  0.58257149  0.53930113  1
  N  N338  1  0.76914658  0.43459261  0.46862701  1
  N  N339  1  0.47787744  0.92149942  0.46578913  1
  N  N340  1  0.23798796  0.58250745  0.53673143  1
  N  N341  1  0.76621203  0.57853178  0.96041701  1
  N  N342  1  0.93445601  0.26102243  0.44802714  1
  N  N343  1  0.45024655  0.25854019  0.04303192  1
  N  N344  1  0.01583436  0.07865859  0.53567479  1
  N  N345  1  0.52235967  0.07521202  0.53653024  1
  N  N346  1  0.53593794  0.59157830  0.03646648  1
  N  N347  1  0.68612961  0.42276510  0.04314287  1
  N  N348  1  0.29684148  0.91179049  0.95824430  1
  N  N349  1  0.28964556  0.56473187  0.96739877  1
  N  N350  1  0.26221747  0.75748998  0.04104356  1
  N  N351  1  0.31023940  0.90428490  0.54863704  1
  N  N352  1  0.98878845  0.07999465  0.96325331  1
  N  N353  1  0.81573508  0.90541325  0.94906319  1
  N  N354  1  0.05208406  0.41073546  0.54346736  1
  N  N355  1  0.69136259  0.42654337  0.46043553  1
  N  N356  1  0.73913330  0.90878936  0.95978158  1
  N  N357  1  0.44516274  0.59786400  0.45787940  1
  N  N358  1  0.43801955  0.74008776  0.54735160  1
  N  N359  1  0.21188117  0.58001119  0.96534416  1
  N  N360  1  0.05120821  0.05445437  0.58763473  1
  N  N361  1  0.07285919  0.38966471  0.60163834  1
  N  N362  1  0.06850742  0.71966712  0.60470641  1
  N  N363  1  0.55056967  0.05672461  0.59388529  1
  N  N364  1  0.57846607  0.39094038  0.60835308  1
  N  N365  1  0.55800449  0.72617200  0.58293011  1
  N  N366  1  0.43858073  0.27933786  0.10309844  1
  N  N367  1  0.43638210  0.60774975  0.09944040  1
  N  N368  1  0.42256095  0.94811197  0.10962079  1
  N  N369  1  0.94741104  0.27525698  0.08457797  1
  N  N370  1  0.94775279  0.60566312  0.08783459  1
  N  N371  1  0.92855211  0.94191970  0.09334210  1
  N  N372  1  0.45626358  0.06013063  0.91229708  1
  N  N373  1  0.44754899  0.38868966  0.90723655  1
  N  N374  1  0.44980930  0.72142463  0.91440721  1
  N  N375  1  0.95182559  0.05747370  0.91287573  1
  N  N376  1  0.94257107  0.39022356  0.90808056  1
  N  N377  1  0.93792741  0.72394673  0.90070695  1
  N  N378  1  0.05405483  0.27482858  0.41315261  1
  N  N379  1  0.05093597  0.61119235  0.40803248  1
  N  N380  1  0.05265408  0.94122966  0.41373121  1
  N  N381  1  0.57309175  0.27691529  0.39005478  1
  N  N382  1  0.55346132  0.61061921  0.40688138  1
  N  N383  1  0.56859341  0.94606020  0.39633624  1
  N  N384  1  0.31212252  0.22181007  0.60458591  1
  N  N385  1  0.32527585  0.55506514  0.60318054  1
  N  N386  1  0.32002881  0.88711066  0.60815881  1
  N  N387  1  0.80894537  0.22628024  0.58962606  1
  N  N388  1  0.82142379  0.55880933  0.59642966  1
  N  N389  1  0.80991676  0.89133593  0.58562982  1
  N  N390  1  0.17203951  0.10778847  0.10052358  1
  N  N391  1  0.18353626  0.43887069  0.09322803  1
  N  N392  1  0.17250720  0.78179950  0.10771061  1
  N  N393  1  0.66809758  0.11333251  0.10009536  1
  N  N394  1  0.67583491  0.44643565  0.10129838  1
  N  N395  1  0.67952791  0.77693074  0.10029056  1
  N  N396  1  0.18071078  0.22191426  0.90173597  1
  N  N397  1  0.18322007  0.55568327  0.91226865  1
  N  N398  1  0.18770710  0.89564763  0.90604282  1
  N  N399  1  0.68454104  0.22695635  0.90752868  1
  N  N400  1  0.67883893  0.55213986  0.89256332  1
  N  N401  1  0.69718274  0.88730811  0.91139863  1
  N  N402  1  0.32670235  0.11141192  0.39389118  1
  N  N403  1  0.29937447  0.44101834  0.40744520  1
  N  N404  1  0.31736986  0.77589565  0.40531711  1
  N  N405  1  0.81921127  0.10798937  0.40140988  1
  N  N406  1  0.80090048  0.44375842  0.41202139  1
  N  N407  1  0.80763384  0.77313209  0.41157169  1
  N  N408  1  0.44903530  0.27311043  0.41660416  1
  N  N409  1  0.42737310  0.61476459  0.39854869  1
  N  N410  1  0.44258041  0.93853048  0.41153357  1
  N  N411  1  0.92944298  0.28022636  0.38870168  1
  N  N412  1  0.92135086  0.61254572  0.39899610  1
  N  N413  1  0.92881380  0.94418751  0.39196941  1
  N  N414  1  0.07779760  0.05636948  0.89967541  1
  N  N415  1  0.07078429  0.39121907  0.90339346  1
  N  N416  1  0.06586298  0.72413631  0.89638582  1
  N  N417  1  0.58514903  0.05652228  0.89739613  1
  N  N418  1  0.57525738  0.38612280  0.89967497  1
  N  N419  1  0.57251983  0.71955941  0.88940330  1
  N  N420  1  0.07319389  0.28011852  0.10298902  1
  N  N421  1  0.07265583  0.61041378  0.10856240  1
  N  N422  1  0.05608276  0.94489416  0.10066976  1
  N  N423  1  0.56533158  0.27453838  0.08844316  1
  N  N424  1  0.56423126  0.60848553  0.09459489  1
  N  N425  1  0.55053836  0.94203806  0.09272347  1
  N  N426  1  0.42261425  0.05456454  0.59929337  1
  N  N427  1  0.45261774  0.39058459  0.58549376  1
  N  N428  1  0.43310853  0.72017936  0.60640631  1
  N  N429  1  0.92289028  0.05763308  0.59876255  1
  N  N430  1  0.94503330  0.39451963  0.59786559  1
  N  N431  1  0.94336401  0.72596406  0.58459057  1
  N  N432  1  0.20080521  0.10567421  0.41381524  1
  N  N433  1  0.17149048  0.44797202  0.39035000  1
  N  N434  1  0.18758857  0.77466261  0.40984030  1
  N  N435  1  0.69113372  0.10973837  0.40327086  1
  N  N436  1  0.67367914  0.44864499  0.40445213  1
  N  N437  1  0.68086020  0.77939490  0.39828289  1
  N  N438  1  0.30852340  0.22689600  0.91500382  1
  N  N439  1  0.31071491  0.55346478  0.90811948  1
  N  N440  1  0.31541714  0.89073198  0.89954419  1
  N  N441  1  0.81258016  0.22378371  0.90207194  1
  N  N442  1  0.80566862  0.55443543  0.91104876  1
  N  N443  1  0.82117480  0.88590539  0.89074786  1
  N  N444  1  0.29961938  0.11273864  0.08612165  1
  N  N445  1  0.31072330  0.44476231  0.09729963  1
  N  N446  1  0.29972533  0.77926289  0.09224275  1
  N  N447  1  0.79731634  0.11162999  0.08737957  1
  N  N448  1  0.80165984  0.43484084  0.08340335  1
  N  N449  1  0.80926420  0.77595081  0.09513599  1
  N  N450  1  0.18199496  0.22113602  0.60057424  1
  N  N451  1  0.19959775  0.55784455  0.58560674  1
  N  N452  1  0.19357672  0.88685245  0.59334258  1
  N  N453  1  0.68102839  0.22468894  0.59166531  1
  N  N454  1  0.69328025  0.56182382  0.59399883  1
  N  N455  1  0.68195409  0.88651692  0.60309246  1
  Cl  Cl456  1  0.23512084  0.05742641  0.61694036  1
  Cl  Cl457  1  0.26663751  0.39536180  0.61428144  1
  Cl  Cl458  1  0.25187045  0.71535329  0.63187626  1
  Cl  Cl459  1  0.73593536  0.05598155  0.61555536  1
  Cl  Cl460  1  0.76285633  0.39134851  0.60887625  1
  Cl  Cl461  1  0.75214696  0.72546118  0.60199054  1
  Cl  Cl462  1  0.25591747  0.27609311  0.12781812  1
  Cl  Cl463  1  0.25634824  0.60904332  0.11974349  1
  Cl  Cl464  1  0.23895390  0.95157811  0.12965269  1
  Cl  Cl465  1  0.75490406  0.28005508  0.10340903  1
  Cl  Cl466  1  0.75982688  0.60455917  0.10021098  1
  Cl  Cl467  1  0.73700013  0.93921571  0.09804909  1
  Cl  Cl468  1  0.26870064  0.06016714  0.89219103  1
  Cl  Cl469  1  0.26169466  0.39145631  0.88514439  1
  Cl  Cl470  1  0.26548694  0.72571380  0.90344949  1
  Cl  Cl471  1  0.77195855  0.05667691  0.88258273  1
  Cl  Cl472  1  0.75806439  0.38797023  0.87921250  1
  Cl  Cl473  1  0.75576613  0.71780723  0.86920360  1
  Cl  Cl474  1  0.25211726  0.27281269  0.39746564  1
  Cl  Cl475  1  0.23964118  0.60536345  0.39245682  1
  Cl  Cl476  1  0.23969236  0.94056597  0.39774979  1
  Cl  Cl477  1  0.75091270  0.28864218  0.37040419  1
  Cl  Cl478  1  0.73570341  0.61126882  0.37235608  1
  Cl  Cl479  1  0.74870242  0.94511533  0.36675113  1
  Cl  Cl480  1  -0.00456154  0.22073008  0.60803216  1
  Cl  Cl481  1  0.01671395  0.55932848  0.61539568  1
  Cl  Cl482  1  0.00687945  0.89245796  0.60027181  1
  Cl  Cl483  1  0.49774688  0.22300208  0.61771846  1
  Cl  Cl484  1  0.50734384  0.54985984  0.61861292  1
  Cl  Cl485  1  0.50187914  0.87957998  0.63116969  1
  Cl  Cl486  1  -0.01682943  0.10710622  0.11378153  1
  Cl  Cl487  1  -0.00884656  0.43887446  0.11184277  1
  Cl  Cl488  1  -0.01016602  0.77667040  0.11969906  1
  Cl  Cl489  1  0.48154441  0.11359717  0.11258999  1
  Cl  Cl490  1  0.49226858  0.44540585  0.12732590  1
  Cl  Cl491  1  0.48211051  0.76674569  0.10091550  1
  Cl  Cl492  1  -0.00211464  0.22056398  0.87415551  1
  Cl  Cl493  1  -0.00598102  0.55942106  0.88927031  1
  Cl  Cl494  1  0.00456511  0.89157833  0.87324734  1
  Cl  Cl495  1  0.49559817  0.22608570  0.88516657  1
  Cl  Cl496  1  0.49251780  0.54888304  0.88257513  1
  Cl  Cl497  1  0.51147344  0.88782406  0.89452039  1
  Cl  Cl498  1  0.01576274  0.10755392  0.39479526  1
  Cl  Cl499  1  -0.01788185  0.44930186  0.37963482  1
  Cl  Cl500  1  -0.00452569  0.77660660  0.38701146  1
  Cl  Cl501  1  0.50787220  0.11756584  0.37768412  1
  Cl  Cl502  1  0.48597240  0.43713896  0.39853488  1
  Cl  Cl503  1  0.49896113  0.77759993  0.37648717  1
  Cl  Cl504  1  0.36057484  0.15200488  0.74827836  1
  Cl  Cl505  1  0.35962120  0.48790873  0.75106109  1
  Cl  Cl506  1  0.36136317  0.81448211  0.75623283  1
  Cl  Cl507  1  0.85390897  0.15161262  0.74085644  1
  Cl  Cl508  1  0.85935996  0.48362817  0.74605884  1
  Cl  Cl509  1  0.86491618  0.81646400  0.75116116  1
  Cl  Cl510  1  0.13954895  0.18178014  0.24894472  1
  Cl  Cl511  1  0.13579663  0.51970254  0.24747577  1
  Cl  Cl512  1  0.13994351  0.85084208  0.25490484  1
  Cl  Cl513  1  0.63961819  0.18727198  0.24349950  1
  Cl  Cl514  1  0.62958604  0.51902907  0.24179415  1
  Cl  Cl515  1  0.62885713  0.85347036  0.24438245  1
  Cl  Cl516  1  0.14226480  0.14898657  0.76111201  1
  Cl  Cl517  1  0.14356552  0.48148631  0.75182767  1
  Cl  Cl518  1  0.14078186  0.81183112  0.75370415  1
  Cl  Cl519  1  0.63633480  0.14402941  0.75827994  1
  Cl  Cl520  1  0.63911072  0.47738588  0.75065414  1
  Cl  Cl521  1  0.64229308  0.81420372  0.74619518  1
  Cl  Cl522  1  0.36073861  0.18492349  0.25819323  1
  Cl  Cl523  1  0.35692439  0.51689128  0.25272464  1
  Cl  Cl524  1  0.35947329  0.85470493  0.25006671  1
  Cl  Cl525  1  0.85928944  0.18587493  0.25553130  1
  Cl  Cl526  1  0.84886094  0.51327406  0.24942870  1
  Cl  Cl527  1  0.85456947  0.84937739  0.24716033  1
  Cl  Cl528  1  0.11678359  0.31388605  0.74524213  1
  Cl  Cl529  1  0.11378476  0.64689694  0.75709144  1
  Cl  Cl530  1  0.11387432  0.98333752  0.75116515  1
  Cl  Cl531  1  0.62201781  0.31109135  0.74093156  1
  Cl  Cl532  1  0.61518556  0.64764314  0.75227565  1
  Cl  Cl533  1  0.61136349  0.98043176  0.75273281  1
  Cl  Cl534  1  0.38823863  0.01968563  0.25549998  1
  Cl  Cl535  1  0.39049428  0.34680654  0.24928186  1
  Cl  Cl536  1  0.38330697  0.68400181  0.25210227  1
  Cl  Cl537  1  0.88348053  0.01945181  0.25588178  1
  Cl  Cl538  1  0.89329736  0.34841367  0.24910351  1
  Cl  Cl539  1  0.88865324  0.67971465  0.25220285  1
  Cl  Cl540  1  0.39830683  0.31918513  0.74905863  1
  Cl  Cl541  1  0.39537683  0.64982581  0.74423159  1
  Cl  Cl542  1  0.39123419  0.98140747  0.75096149  1
  Cl  Cl543  1  0.89638239  0.31698377  0.74817023  1
  Cl  Cl544  1  0.89294992  0.64837592  0.74410407  1
  Cl  Cl545  1  0.89370852  0.98190086  0.74405810  1
  Cl  Cl546  1  0.10207956  0.01591244  0.24616547  1
  Cl  Cl547  1  0.11206679  0.35366753  0.24861914  1
  Cl  Cl548  1  0.11266880  0.68768880  0.24188042  1
  Cl  Cl549  1  0.61182829  0.02003025  0.24604615  1
  Cl  Cl550  1  0.61245497  0.35480216  0.25681780  1
  Cl  Cl551  1  0.60813739  0.68704839  0.24331281  1
