# generated using pymatgen
data_H8PbC4(N3Cl2)2
_symmetry_space_group_name_H-M   'P 1'
_cell_length_a   16.62548214
_cell_length_b   22.51322733
_cell_length_c   21.59181486
_cell_angle_alpha   90.00268489
_cell_angle_beta   90.03820437
_cell_angle_gamma   90.00177819
_symmetry_Int_Tables_number   1
_chemical_formula_structural   H8PbC4(N3Cl2)2
_chemical_formula_sum   'H192 Pb24 C96 N144 Cl96'
_cell_volume   8081.66894324
_cell_formula_units_Z   24
loop_
 _symmetry_equiv_pos_site_id
 _symmetry_equiv_pos_as_xyz
  1  'x, y, z'
loop_
 _atom_site_type_symbol
 _atom_site_label
 _atom_site_symmetry_multiplicity
 _atom_site_fract_x
 _atom_site_fract_y
 _atom_site_fract_z
 _atom_site_occupancy
  H  H0  1  0.00805428  0.02720364  0.67346886  1
  H  H1  1  -0.00412065  0.36192989  0.67977601  1
  H  H2  1  -0.01042116  0.69809246  0.68033346  1
  H  H3  1  0.49643313  0.03162253  0.67953528  1
  H  H4  1  0.50708407  0.35862253  0.67599953  1
  H  H5  1  0.49736464  0.69453175  0.67839014  1
  H  H6  1  0.01395031  0.30088441  0.17932339  1
  H  H7  1  0.00625566  0.63646938  0.17631642  1
  H  H8  1  0.00873583  0.96696106  0.17686185  1
  H  H9  1  0.48748552  0.30066588  0.17673830  1
  H  H10  1  0.50778475  0.64104308  0.17993078  1
  H  H11  1  0.50023780  0.96757118  0.17785932  1
  H  H12  1  0.00704395  0.02916284  0.82280495  1
  H  H13  1  -0.00261806  0.36729449  0.82267845  1
  H  H14  1  -0.00095263  0.69970063  0.82105535  1
  H  H15  1  0.49981545  0.02690445  0.82463771  1
  H  H16  1  0.48954992  0.36177558  0.82363608  1
  H  H17  1  0.49606000  0.69758789  0.81887941  1
  H  H18  1  -0.00698230  0.30751755  0.32307231  1
  H  H19  1  -0.00907338  0.63530369  0.31724449  1
  H  H20  1  -0.00603364  0.96813040  0.32851634  1
  H  H21  1  0.50641678  0.30501756  0.32152828  1
  H  H22  1  0.51093594  0.63760303  0.32140534  1
  H  H23  1  0.49839942  0.97251991  0.32363958  1
  H  H24  1  0.25841179  0.19813532  0.67413004  1
  H  H25  1  0.25005278  0.52629697  0.67857460  1
  H  H26  1  0.25472362  0.86470414  0.67723150  1
  H  H27  1  0.74713189  0.19718621  0.68024666  1
  H  H28  1  0.75737018  0.53207831  0.68238561  1
  H  H29  1  0.74028753  0.86337894  0.67692611  1
  H  H30  1  0.24819573  0.13444601  0.17787245  1
  H  H31  1  0.26032363  0.46928189  0.17712876  1
  H  H32  1  0.25189917  0.80303930  0.17013426  1
  H  H33  1  0.74686464  0.13653447  0.17746280  1
  H  H34  1  0.73755652  0.46842529  0.17806161  1
  H  H35  1  0.75340954  0.80134355  0.18026143  1
  H  H36  1  0.24589435  0.19473109  0.82169794  1
  H  H37  1  0.24405930  0.53189178  0.81884248  1
  H  H38  1  0.24115423  0.86350050  0.82403601  1
  H  H39  1  0.75414141  0.19713234  0.82627794  1
  H  H40  1  0.74607989  0.53051626  0.82460186  1
  H  H41  1  0.74700228  0.86396958  0.82208773  1
  H  H42  1  0.25669015  0.14028523  0.32158483  1
  H  H43  1  0.26404489  0.47310444  0.32347427  1
  H  H44  1  0.25115997  0.80305321  0.31956387  1
  H  H45  1  0.74292250  0.13412720  0.32070316  1
  H  H46  1  0.74749563  0.46874122  0.31861625  1
  H  H47  1  0.75438260  0.80720983  0.32136874  1
  H  H48  1  0.11605697  0.06119083  0.59424706  1
  H  H49  1  0.12466943  0.38468082  0.61420954  1
  H  H50  1  0.13271137  0.71378908  0.63077753  1
  H  H51  1  0.61906901  0.05311093  0.60802031  1
  H  H52  1  0.61812614  0.38805585  0.59510189  1
  H  H53  1  0.62956873  0.72020791  0.61610567  1
  H  H54  1  0.38152290  0.27383853  0.09103004  1
  H  H55  1  0.36996699  0.61934933  0.12464312  1
  H  H56  1  0.36832681  0.94853500  0.11532332  1
  H  H57  1  0.87106263  0.28159826  0.12954768  1
  H  H58  1  0.86536998  0.61630527  0.12574680  1
  H  H59  1  0.86856197  0.94852929  0.12386295  1
  H  H60  1  0.36464715  0.05039549  0.88216032  1
  H  H61  1  0.38970120  0.39063789  0.91198356  1
  H  H62  1  0.38166821  0.72411816  0.89924491  1
  H  H63  1  0.86771861  0.05308720  0.87556723  1
  H  H64  1  0.88288600  0.38907205  0.90166496  1
  H  H65  1  0.88974939  0.72444761  0.90103061  1
  H  H66  1  0.13287176  0.28365304  0.37587911  1
  H  H67  1  0.12560492  0.61509169  0.37558110  1
  H  H68  1  0.13256024  0.95086725  0.38090753  1
  H  H69  1  0.62735422  0.27761254  0.39600885  1
  H  H70  1  0.62146412  0.60833369  0.40346194  1
  H  H71  1  0.63355687  0.94978220  0.38316085  1
  H  H72  1  0.36631828  0.22258445  0.59210571  1
  H  H73  1  0.37633079  0.55302658  0.61038659  1
  H  H74  1  0.36197187  0.88999606  0.59478665  1
  H  H75  1  0.86350087  0.22136286  0.60545933  1
  H  H76  1  0.87077222  0.55560552  0.60257872  1
  H  H77  1  0.86862711  0.88709910  0.60963390  1
  H  H78  1  0.13759611  0.10580090  0.09599929  1
  H  H79  1  0.11744409  0.45093071  0.12906773  1
  H  H80  1  0.11329810  0.78528147  0.11815090  1
  H  H81  1  0.63743156  0.10700719  0.09652808  1
  H  H82  1  0.61434386  0.44085163  0.10638366  1
  H  H83  1  0.61342643  0.78668358  0.12688037  1
  H  H84  1  0.13244060  0.22401315  0.89991747  1
  H  H85  1  0.13248577  0.55730162  0.90045168  1
  H  H86  1  0.13016523  0.88927885  0.90389256  1
  H  H87  1  0.62813287  0.22006944  0.89470507  1
  H  H88  1  0.63861477  0.56070816  0.90685853  1
  H  H89  1  0.63029598  0.88999932  0.89740656  1
  H  H90  1  0.38349758  0.11508384  0.38874343  1
  H  H91  1  0.37467111  0.43979480  0.40183741  1
  H  H92  1  0.36679280  0.77836265  0.39903333  1
  H  H93  1  0.88214129  0.11638520  0.37553559  1
  H  H94  1  0.88066229  0.44831769  0.38026584  1
  H  H95  1  0.86760278  0.77934994  0.40080103  1
  H  H96  1  0.37885147  0.28004229  0.38989533  1
  H  H97  1  0.37529707  0.61420178  0.38045319  1
  H  H98  1  0.38548566  0.94395953  0.40216733  1
  H  H99  1  0.88649845  0.27634639  0.40545704  1
  H  H100  1  0.87763911  0.61079193  0.39541269  1
  H  H101  1  0.88723541  0.94105247  0.41016891  1
  H  H102  1  0.11140344  0.05648194  0.90910738  1
  H  H103  1  0.12992871  0.38847509  0.88546704  1
  H  H104  1  0.13702426  0.71832493  0.87663435  1
  H  H105  1  0.61126598  0.05738897  0.90424182  1
  H  H106  1  0.63174703  0.38183326  0.87348739  1
  H  H107  1  0.62988609  0.72020361  0.88297734  1
  H  H108  1  0.11499535  0.27336728  0.09284874  1
  H  H109  1  0.10988052  0.60844872  0.09067559  1
  H  H110  1  0.11346609  0.93968376  0.09141590  1
  H  H111  1  0.62580263  0.28133954  0.12337771  1
  H  H112  1  0.61411012  0.60807237  0.09688006  1
  H  H113  1  0.61625984  0.94378704  0.10360454  1
  H  H114  1  0.37012701  0.05534395  0.61415873  1
  H  H115  1  0.37150672  0.38334779  0.61780688  1
  H  H116  1  0.38154025  0.72278351  0.60262296  1
  H  H117  1  0.87043063  0.04517847  0.61552751  1
  H  H118  1  0.87588838  0.38866169  0.60417651  1
  H  H119  1  0.88802130  0.72652608  0.59543363  1
  H  H120  1  0.13476040  0.11137554  0.39333772  1
  H  H121  1  0.12794199  0.44926984  0.38046551  1
  H  H122  1  0.11869064  0.78225761  0.38226414  1
  H  H123  1  0.63541454  0.10990461  0.40253655  1
  H  H124  1  0.63207973  0.44535514  0.39412336  1
  H  H125  1  0.61952530  0.78429180  0.37975225  1
  H  H126  1  0.38001102  0.21711030  0.88129406  1
  H  H127  1  0.37926618  0.55205288  0.87616749  1
  H  H128  1  0.37675479  0.88227047  0.87987921  1
  H  H129  1  0.87693897  0.22422387  0.89570133  1
  H  H130  1  0.88425535  0.54836051  0.88183543  1
  H  H131  1  0.87947179  0.88626904  0.88551079  1
  H  H132  1  0.38371409  0.11434318  0.11759424  1
  H  H133  1  0.36023615  0.43749156  0.09067243  1
  H  H134  1  0.35828175  0.77679920  0.08795365  1
  H  H135  1  0.88353611  0.11639630  0.11943698  1
  H  H136  1  0.86258214  0.44556749  0.10749247  1
  H  H137  1  0.85934604  0.77551248  0.09764926  1
  H  H138  1  0.12100119  0.21605450  0.62098529  1
  H  H139  1  0.12824793  0.55508968  0.60705984  1
  H  H140  1  0.11532218  0.88320209  0.62423660  1
  H  H141  1  0.61441974  0.21605640  0.61701906  1
  H  H142  1  0.62269013  0.55210613  0.61977575  1
  H  H143  1  0.61974085  0.88981527  0.60386168  1
  H  H144  1  0.40842228  0.08544783  0.50167758  1
  H  H145  1  0.67125916  0.25123691  0.99979093  1
  H  H146  1  0.70344678  0.08243629  0.50870126  1
  H  H147  1  0.96477945  0.75466203  0.49174220  1
  H  H148  1  0.13914481  0.24615555  0.50483419  1
  H  H149  1  0.12588113  0.75226283  0.99952441  1
  H  H150  1  0.71311000  0.57647030  1.00879625  1
  H  H151  1  0.88350821  0.25690959  0.01920206  1
  H  H152  1  0.78913030  0.74841188  -0.00791057  1
  H  H153  1  0.47248448  0.41516488  1.00890648  1
  H  H154  1  0.29146825  0.91831339  0.48928677  1
  H  H155  1  0.85588387  0.08119730  0.01302513  1
  H  H156  1  0.80608349  0.25085018  0.49557826  1
  H  H157  1  0.54533882  0.41387527  0.49446188  1
  H  H158  1  0.96153596  0.25207375  0.50611199  1
  H  H159  1  0.80507446  0.57865220  0.49520545  1
  H  H160  1  0.94846860  0.42755295  0.99868238  1
  H  H161  1  0.70964671  0.09021929  -0.00587909  1
  H  H162  1  0.89235857  0.08155915  0.50852985  1
  H  H163  1  0.15075416  0.75070519  0.49373678  1
  H  H164  1  0.69045085  0.41794384  0.50459245  1
  H  H165  1  0.66512089  0.41608879  0.00206901  1
  H  H166  1  0.64727039  0.75180352  0.49100521  1
  H  H167  1  0.35793656  0.91356525  0.99430323  1
  H  H168  1  0.53745818  0.58549114  -0.00330578  1
  H  H169  1  0.03293716  0.08033624  1.00809053  1
  H  H170  1  0.68742724  0.91811198  1.00583245  1
  H  H171  1  0.08391593  0.41600833  0.50435824  1
  H  H172  1  0.19978105  0.25116887  1.00251102  1
  H  H173  1  0.62945136  0.75755426  1.01357675  1
  H  H174  1  0.20932250  0.07816917  -0.00442540  1
  H  H175  1  0.93887428  0.58466421  0.50377992  1
  H  H176  1  0.32952097  0.58216645  0.50590860  1
  H  H177  1  0.86120398  0.58263106  0.99120914  1
  H  H178  1  0.19956048  0.59124408  0.99908550  1
  H  H179  1  0.12212123  0.91389015  0.50305286  1
  H  H180  1  0.03235028  0.58246578  -0.00856665  1
  H  H181  1  0.35387210  0.58348660  0.98923826  1
  H  H182  1  0.04449084  0.07437012  0.49227165  1
  H  H183  1  0.27932747  0.41094712  -0.00678623  1
  H  H184  1  0.03804668  0.24638466  -0.00938286  1
  H  H185  1  0.45341873  0.91536807  0.50460297  1
  H  H186  1  0.84769058  0.91349448  0.99357753  1
  H  H187  1  0.95698541  0.75492118  1.00779523  1
  H  H188  1  0.10007656  0.58802279  0.48915252  1
  H  H189  1  0.80144202  0.75750953  0.50387325  1
  H  H190  1  0.54203546  0.08186381  1.00671216  1
  H  H191  1  0.09862410  0.41039920  0.99596868  1
  Pb  Pb192  1  0.24148726  0.05008054  0.75270727  1
  Pb  Pb193  1  0.25353506  0.38021342  0.75888992  1
  Pb  Pb194  1  0.25696292  0.71476297  0.75269458  1
  Pb  Pb195  1  0.74738280  0.04754410  0.75484911  1
  Pb  Pb196  1  0.74978675  0.38099510  0.74756045  1
  Pb  Pb197  1  0.75025375  0.71643226  0.74465984  1
  Pb  Pb198  1  0.25238046  0.28420397  0.23596755  1
  Pb  Pb199  1  0.24514025  0.61993818  0.24057684  1
  Pb  Pb200  1  0.25233709  0.95005522  0.24703821  1
  Pb  Pb201  1  0.75105698  0.28518749  0.25561240  1
  Pb  Pb202  1  0.74342206  0.61722839  0.25197714  1
  Pb  Pb203  1  0.74995925  0.95192609  0.25038294  1
  Pb  Pb204  1  -0.00506412  0.21738720  0.75026261  1
  Pb  Pb205  1  0.00186419  0.54925467  0.74847130  1
  Pb  Pb206  1  -0.00048121  0.87943509  0.75341717  1
  Pb  Pb207  1  0.49913500  0.21218877  0.75032799  1
  Pb  Pb208  1  0.50610808  0.54696977  0.75982399  1
  Pb  Pb209  1  0.49641102  0.88346947  0.74153491  1
  Pb  Pb210  1  0.00656441  0.11600289  0.24911123  1
  Pb  Pb211  1  -0.00237305  0.45256180  0.24233238  1
  Pb  Pb212  1  -0.00538489  0.78584179  0.24801334  1
  Pb  Pb213  1  0.50611341  0.11729421  0.24708889  1
  Pb  Pb214  1  0.49329159  0.44962073  0.25110636  1
  Pb  Pb215  1  0.49313641  0.78688629  0.25067340  1
  C  C216  1  -0.00189568  0.04390100  0.62678888  1
  C  C217  1  -0.00148163  0.37818017  0.63252454  1
  C  C218  1  0.00341014  0.71233329  0.63349614  1
  C  C219  1  0.49468444  0.04669797  0.63197191  1
  C  C220  1  0.49943336  0.37563206  0.62938878  1
  C  C221  1  0.50327742  0.71182301  0.63195417  1
  C  C222  1  -0.00089942  0.28633628  0.13261574  1
  C  C223  1  -0.00625038  0.62157712  0.12939007  1
  C  C224  1  -0.00320424  0.95223045  0.13005850  1
  C  C225  1  0.49802917  0.28574325  0.12991939  1
  C  C226  1  0.49749128  0.62413216  0.13359661  1
  C  C227  1  0.49470218  0.95319423  0.13035952  1
  C  C228  1  -0.00476136  0.04465898  0.86954740  1
  C  C229  1  0.00381096  0.38162637  0.87061238  1
  C  C230  1  0.00858336  0.71428020  0.86838479  1
  C  C231  1  0.49216658  0.04304691  0.87149431  1
  C  C232  1  0.50362809  0.37751070  0.86987768  1
  C  C233  1  0.50271228  0.71337883  0.86610441  1
  C  C234  1  0.00363086  0.29040471  0.36925949  1
  C  C235  1  -0.00156617  0.62075801  0.36488841  1
  C  C236  1  0.00505723  0.95321925  0.37547164  1
  C  C237  1  0.50442097  0.28802420  0.36850980  1
  C  C238  1  0.50283662  0.62143471  0.36833224  1
  C  C239  1  0.50562546  0.95649840  0.37056251  1
  C  C240  1  0.24761318  0.21237237  0.62693408  1
  C  C241  1  0.25182900  0.54391089  0.63184914  1
  C  C242  1  0.24386570  0.87934633  0.63006042  1
  C  C243  1  0.74188304  0.21157218  0.63255348  1
  C  C244  1  0.75012529  0.54641681  0.63474346  1
  C  C245  1  0.74305632  0.87954430  0.62985950  1
  C  C246  1  0.25628678  0.11917574  0.13061304  1
  C  C247  1  0.24599429  0.45357142  0.13090627  1
  C  C248  1  0.24041301  0.78793539  0.12319551  1
  C  C249  1  0.75634479  0.12041203  0.13054008  1
  C  C250  1  0.73773795  0.45184318  0.13095260  1
  C  C251  1  0.74147228  0.78732323  0.13296327  1
  C  C252  1  0.25242603  0.21101598  0.86850579  1
  C  C253  1  0.25196665  0.54779222  0.86601783  1
  C  C254  1  0.25008309  0.87836073  0.87129381  1
  C  C255  1  0.75274028  0.21432804  0.87321043  1
  C  C256  1  0.75663875  0.54605847  0.87165434  1
  C  C257  1  0.75290806  0.87989343  0.86950261  1
  C  C258  1  0.25793284  0.12339390  0.36840444  1
  C  C259  1  0.25524140  0.45533253  0.36945131  1
  C  C260  1  0.24548328  0.78769035  0.36692424  1
  C  C261  1  0.75330828  0.12068386  0.36831216  1
  C  C262  1  0.75318627  0.45460833  0.36632379  1
  C  C263  1  0.74739954  0.79113391  0.36859363  1
  C  C264  1  0.98564492  0.92362435  0.47110146  1
  C  C265  1  0.99192100  0.74101507  0.53538468  1
  C  C266  1  0.22612930  0.90683318  0.96708665  1
  C  C267  1  0.19743400  0.76074020  0.45677340  1
  C  C268  1  0.06592639  0.25965687  0.45383812  1
  C  C269  1  0.71019943  0.91073045  0.53748713  1
  C  C270  1  0.26873318  0.23938503  0.53027680  1
  C  C271  1  0.73488084  0.09440901  0.46630096  1
  C  C272  1  0.69034334  0.23694661  0.54243592  1
  C  C273  1  0.53316528  0.07370481  0.53829108  1
  C  C274  1  0.17747253  0.42423429  0.04834391  1
  C  C275  1  0.77334920  0.57029647  0.53841310  1
  C  C276  1  0.97207563  0.59514527  0.46183985  1
  C  C277  1  0.07121988  0.73580397  0.54921103  1
  C  C278  1  0.30890368  0.57342318  0.95411268  1
  C  C279  1  0.27661615  0.41997021  0.46237127  1
  C  C280  1  0.29921160  0.09393188  0.45975134  1
  C  C281  1  0.47539985  0.74438686  0.53886322  1
  C  C282  1  0.56166749  0.92670980  0.45867156  1
  C  C283  1  0.06598758  0.92704480  0.46208961  1
  C  C284  1  0.18134562  0.90426577  0.54382617  1
  C  C285  1  0.45157213  0.07451488  0.53888209  1
  C  C286  1  0.25943359  0.75881603  0.02711510  1
  C  C287  1  0.72225475  0.90762818  0.96445078  1
  C  C288  1  0.67881707  0.76484733  0.04590161  1
  C  C289  1  0.17873227  0.76187785  0.03626342  1
  C  C290  1  0.06854934  0.73977590  0.95569956  1
  C  C291  1  0.77135428  0.23920851  0.53648639  1
  C  C292  1  0.26188841  0.90670985  0.53269385  1
  C  C293  1  0.43433651  0.07334390  0.95884783  1
  C  C294  1  0.18806948  0.23723929  0.53851781  1
  C  C295  1  0.04177689  0.40600872  0.54164243  1
  C  C296  1  0.72464558  0.42859664  0.46307259  1
  C  C297  1  0.80563821  0.43005536  0.45637888  1
  C  C298  1  0.75953267  0.76039791  0.03531159  1
  C  C299  1  0.30712167  0.90443510  0.96042296  1
  C  C300  1  0.92843888  0.59609137  0.04387231  1
  C  C301  1  0.93733585  0.92625405  0.04386117  1
  C  C302  1  0.52470169  0.92511896  0.03633321  1
  C  C303  1  0.69242475  0.76125645  0.45573729  1
  C  C304  1  0.44404093  0.92702565  0.04018035  1
  C  C305  1  0.01194293  0.25800848  0.03535497  1
  C  C306  1  0.55695738  0.25961559  0.04319900  1
  C  C307  1  0.30818377  0.24239176  0.95618139  1
  C  C308  1  0.05359462  0.59691033  0.45484097  1
  C  C309  1  0.79279787  0.24441076  0.96635766  1
  C  C310  1  0.81526928  0.09767850  0.45562284  1
  C  C311  1  0.98775396  0.74243086  0.96526062  1
  N  N312  1  0.78744151  0.90955505  0.53774257  1
  N  N313  1  0.23666807  0.08910286  0.03725179  1
  N  N314  1  0.73465586  0.08684867  0.03796653  1
  N  N315  1  0.51274145  0.07441948  0.96537025  1
  N  N316  1  0.70277619  0.42447756  0.03939568  1
  N  N317  1  0.22162667  0.09227433  0.46236764  1
  N  N318  1  0.96260382  0.40760662  0.53805548  1
  N  N319  1  0.48057707  0.25688359  0.03187220  1
  N  N320  1  0.81225607  0.09840982  0.04316585  1
  N  N321  1  0.46224963  0.25774772  0.45992779  1
  N  N322  1  0.55278777  0.74321275  0.54216091  1
  N  N323  1  0.49464817  0.40871934  0.96400230  1
  N  N324  1  0.01355408  0.92320644  0.03221794  1
  N  N325  1  0.98794267  0.25762730  0.46334145  1
  N  N326  1  0.43566696  0.59601775  0.04840496  1
  N  N327  1  0.51907260  0.40879243  0.53725675  1
  N  N328  1  0.55183450  0.74165839  0.95537869  1
  N  N329  1  0.81446692  0.56798606  0.95841278  1
  N  N330  1  0.27621054  0.75872881  0.46254448  1
  N  N331  1  0.25489330  0.42054695  0.03654335  1
  N  N332  1  0.22958865  0.24318267  0.96166425  1
  N  N333  1  0.97657854  0.40064579  0.96682793  1
  N  N334  1  0.47606627  0.74300750  0.96095922  1
  N  N335  1  0.01799704  0.08039288  0.53485644  1
  N  N336  1  0.00886963  0.07387644  0.96403340  1
  N  N337  1  0.31412253  0.09232863  0.04300990  1
  N  N338  1  0.80177298  0.90624804  0.95918829  1
  N  N339  1  0.00642693  0.59298752  0.03377609  1
  N  N340  1  0.57126100  0.40543391  0.95254956  1
  N  N341  1  0.44153641  0.40704555  0.54356837  1
  N  N342  1  0.94099295  0.06588876  0.53956288  1
  N  N343  1  0.78097067  0.42601139  0.03805603  1
  N  N344  1  0.29069150  0.57476209  0.54226446  1
  N  N345  1  0.52453862  0.59040247  0.46368504  1
  N  N346  1  0.77161644  0.75974549  0.46215741  1
  N  N347  1  0.05470578  0.40887696  0.95860075  1
  N  N348  1  0.21225706  0.57458294  0.53965543  1
  N  N349  1  0.93203806  0.07133375  0.95445405  1
  N  N350  1  0.48313200  0.92544521  0.46411393  1
  N  N351  1  0.53834195  0.25702160  0.46169311  1
  N  N352  1  0.73732090  0.57966036  0.96453773  1
  N  N353  1  0.71337509  0.24306481  0.96486302  1
  N  N354  1  0.93426662  0.26123978  0.04886879  1
  N  N355  1  0.19947780  0.42355128  0.45728918  1
  N  N356  1  0.22992905  0.57485957  0.96119762  1
  N  N357  1  0.51269453  0.59189811  0.04043551  1
  N  N358  1  0.69466378  0.56970979  0.54420088  1
  N  N359  1  0.44851208  0.59258812  0.45635921  1
  N  N360  1  0.05452263  0.05720225  0.58571552  1
  N  N361  1  0.06530711  0.38824041  0.59940034  1
  N  N362  1  0.07784919  0.71899213  0.60863359  1
  N  N363  1  0.55912743  0.05706222  0.59439458  1
  N  N364  1  0.55614073  0.38711276  0.58815151  1
  N  N365  1  0.57039769  0.72264731  0.60138376  1
  N  N366  1  0.44362318  0.27365259  0.08711808  1
  N  N367  1  0.42669935  0.61396065  0.10708865  1
  N  N368  1  0.42621862  0.94409770  0.09835950  1
  N  N369  1  0.92694629  0.28048241  0.10806179  1
  N  N370  1  0.92012684  0.61294792  0.10372486  1
  N  N371  1  0.92449674  0.94355795  0.10369004  1
  N  N372  1  0.42134887  0.05469531  0.90048243  1
  N  N373  1  0.45225354  0.38924846  0.91498749  1
  N  N374  1  0.44405339  0.72524653  0.90588305  1
  N  N375  1  0.92393732  0.05550981  0.89488570  1
  N  N376  1  0.94461507  0.39415472  0.90947127  1
  N  N377  1  0.95122453  0.72611044  0.90986838  1
  N  N378  1  0.07607058  0.27834407  0.39520212  1
  N  N379  1  0.06838500  0.61268412  0.39449993  1
  N  N380  1  0.07706491  0.94516720  0.40192149  1
  N  N381  1  0.56618055  0.27578321  0.40521538  1
  N  N382  1  0.55950629  0.60805693  0.40923549  1
  N  N383  1  0.57587065  0.94537774  0.40048225  1
  N  N384  1  0.30460597  0.22448325  0.58342461  1
  N  N385  1  0.31597766  0.55445224  0.59749654  1
  N  N386  1  0.29989626  0.89088596  0.58749416  1
  N  N387  1  0.80257475  0.22298095  0.59387505  1
  N  N388  1  0.80926159  0.55667231  0.59378081  1
  N  N389  1  0.80816472  0.88983770  0.59662753  1
  N  N390  1  0.19975433  0.10681769  0.08947394  1
  N  N391  1  0.17168924  0.44385771  0.10737830  1
  N  N392  1  0.16848388  0.77966951  0.09705483  1
  N  N393  1  0.69960811  0.11029489  0.08868508  1
  N  N394  1  0.67484369  0.44096162  0.09511615  1
  N  N395  1  0.66916049  0.78126275  0.10646325  1
  N  N396  1  0.19402135  0.22214919  0.90842913  1
  N  N397  1  0.19489025  0.56110848  0.90618134  1
  N  N398  1  0.19163026  0.89114402  0.91338264  1
  N  N399  1  0.68853527  0.22467393  0.90715604  1
  N  N400  1  0.70076899  0.55664926  0.91407081  1
  N  N401  1  0.69161861  0.89202817  0.90857841  1
  N  N402  1  0.32388575  0.11227599  0.40276818  1
  N  N403  1  0.31324617  0.43911654  0.40993677  1
  N  N404  1  0.30455028  0.77576942  0.40624448  1
  N  N405  1  0.82586414  0.11332622  0.39592390  1
  N  N406  1  0.82250153  0.44540801  0.39799461  1
  N  N407  1  0.80546976  0.78144518  0.40931986  1
  N  N408  1  0.43948628  0.27679262  0.40215411  1
  N  N409  1  0.43390704  0.61224304  0.39735525  1
  N  N410  1  0.44743047  0.94523804  0.41063361  1
  N  N411  1  0.94861160  0.27943632  0.41183537  1
  N  N412  1  0.93892613  0.61007204  0.40536788  1
  N  N413  1  0.94883454  0.93966821  0.41854103  1
  N  N414  1  0.04870778  0.05446662  0.91378716  1
  N  N415  1  0.07183552  0.38823814  0.90190774  1
  N  N416  1  0.08031912  0.72268944  0.89612734  1
  N  N417  1  0.54953979  0.05346122  0.91248620  1
  N  N418  1  0.57599786  0.38790038  0.89336367  1
  N  N419  1  0.57012165  0.72364510  0.89689650  1
  N  N420  1  0.05254944  0.27286863  0.08755958  1
  N  N421  1  0.04716480  0.61033504  0.08589069  1
  N  N422  1  0.05078001  0.93985165  0.08715703  1
  N  N423  1  0.56982910  0.27660992  0.10299590  1
  N  N424  1  0.55184511  0.61156777  0.09097179  1
  N  N425  1  0.55566181  0.94107458  0.09125588  1
  N  N426  1  0.42896317  0.05745481  0.59848079  1
  N  N427  1  0.42991365  0.38795210  0.60160289  1
  N  N428  1  0.44272858  0.72568530  0.59280835  1
  N  N429  1  0.92816720  0.05209303  0.59878271  1
  N  N430  1  0.93729195  0.39033072  0.59520758  1
  N  N431  1  0.95034237  0.72564882  0.58931429  1
  N  N432  1  0.19587790  0.11136802  0.40422428  1
  N  N433  1  0.18616037  0.44607881  0.39786555  1
  N  N434  1  0.17716403  0.77797803  0.39816422  1
  N  N435  1  0.69712934  0.10924786  0.41062844  1
  N  N436  1  0.69277940  0.44411309  0.40558264  1
  N  N437  1  0.67729577  0.77876569  0.39711364  1
  N  N438  1  0.32250189  0.22319601  0.89836116  1
  N  N439  1  0.32290675  0.55590849  0.89529906  1
  N  N440  1  0.32036020  0.88689967  0.89952682  1
  N  N441  1  0.81720968  0.22703482  0.90938487  1
  N  N442  1  0.82691867  0.55581118  0.89860629  1
  N  N443  1  0.82004973  0.88845642  0.90085242  1
  N  N444  1  0.32592724  0.11034673  0.10147701  1
  N  N445  1  0.29780632  0.44086893  0.08659611  1
  N  N446  1  0.29647113  0.77465721  0.07968618  1
  N  N447  1  0.82602797  0.10943449  0.10320448  1
  N  N448  1  0.80200712  0.44161469  0.09588874  1
  N  N449  1  0.79723963  0.77445808  0.09006926  1
  N  N450  1  0.17640029  0.22053529  0.59998017  1
  N  N451  1  0.18887070  0.55687763  0.59616164  1
  N  N452  1  0.17154555  0.88775244  0.60380000  1
  N  N453  1  0.67281673  0.22050170  0.60036729  1
  N  N454  1  0.68196030  0.55485986  0.60420890  1
  N  N455  1  0.68004595  0.89261010  0.59281489  1
  Cl  Cl456  1  0.23888852  0.05946938  0.62235977  1
  Cl  Cl457  1  0.24808439  0.38467213  0.62851151  1
  Cl  Cl458  1  0.26067533  0.71648475  0.62314790  1
  Cl  Cl459  1  0.74599309  0.05061811  0.62270581  1
  Cl  Cl460  1  0.74302648  0.38837000  0.61254443  1
  Cl  Cl461  1  0.76264298  0.72867746  0.60647823  1
  Cl  Cl462  1  0.24121690  0.27445127  0.09821290  1
  Cl  Cl463  1  0.23161578  0.60790123  0.10195606  1
  Cl  Cl464  1  0.23713340  0.94433211  0.11383655  1
  Cl  Cl465  1  0.74829956  0.27632352  0.11952886  1
  Cl  Cl466  1  0.73330163  0.59921659  0.10570293  1
  Cl  Cl467  1  0.74142364  0.94649209  0.11412252  1
  Cl  Cl468  1  0.22956035  0.05955061  0.89750614  1
  Cl  Cl469  1  0.26657772  0.39020025  0.90151797  1
  Cl  Cl470  1  0.26286955  0.72107879  0.88794463  1
  Cl  Cl471  1  0.73339732  0.06512805  0.89662716  1
  Cl  Cl472  1  0.76113959  0.38457923  0.88279523  1
  Cl  Cl473  1  0.76061501  0.71967616  0.88018248  1
  Cl  Cl474  1  0.25740097  0.28518437  0.36766094  1
  Cl  Cl475  1  0.25257257  0.60777479  0.37244913  1
  Cl  Cl476  1  0.26495085  0.94650426  0.38179125  1
  Cl  Cl477  1  0.76041886  0.27721387  0.38988870  1
  Cl  Cl478  1  0.75077087  0.61045886  0.38554455  1
  Cl  Cl479  1  0.76209731  0.94619003  0.37973595  1
  Cl  Cl480  1  -0.01317760  0.22420071  0.61203617  1
  Cl  Cl481  1  -0.00087814  0.55690212  0.61571296  1
  Cl  Cl482  1  -0.01023512  0.88829270  0.62180882  1
  Cl  Cl483  1  0.48715954  0.21775125  0.61915084  1
  Cl  Cl484  1  0.49746122  0.55049951  0.62895849  1
  Cl  Cl485  1  0.48729799  0.89182542  0.60267727  1
  Cl  Cl486  1  0.01591207  0.10633936  0.10206887  1
  Cl  Cl487  1  -0.01366682  0.44887721  0.10476418  1
  Cl  Cl488  1  -0.02000443  0.77825145  0.11537960  1
  Cl  Cl489  1  0.51732942  0.10604632  0.10625263  1
  Cl  Cl490  1  0.48407143  0.43725196  0.10192650  1
  Cl  Cl491  1  0.48019335  0.78148182  0.11982754  1
  Cl  Cl492  1  0.00601689  0.22337415  0.88904809  1
  Cl  Cl493  1  0.01195683  0.55476126  0.89754155  1
  Cl  Cl494  1  0.00399510  0.88824241  0.88358682  1
  Cl  Cl495  1  0.50653654  0.21250615  0.88216806  1
  Cl  Cl496  1  0.51785151  0.56212337  0.90057717  1
  Cl  Cl497  1  0.50902265  0.88676144  0.87220084  1
  Cl  Cl498  1  0.01068181  0.10762017  0.38564248  1
  Cl  Cl499  1  0.00421612  0.44453836  0.37214795  1
  Cl  Cl500  1  -0.01130981  0.77841034  0.38277673  1
  Cl  Cl501  1  0.50780544  0.10941367  0.37956392  1
  Cl  Cl502  1  0.50421215  0.43870963  0.38772984  1
  Cl  Cl503  1  0.49069531  0.78561797  0.38508303  1
  Cl  Cl504  1  0.36009219  0.14677743  0.75805543  1
  Cl  Cl505  1  0.35958399  0.48182150  0.75749177  1
  Cl  Cl506  1  0.35901474  0.81905921  0.74956300  1
  Cl  Cl507  1  0.86106469  0.14756162  0.75981378  1
  Cl  Cl508  1  0.86683740  0.48005151  0.75795652  1
  Cl  Cl509  1  0.86050011  0.81660682  0.75387567  1
  Cl  Cl510  1  0.13734492  0.18680720  0.25048403  1
  Cl  Cl511  1  0.13514546  0.51830105  0.24634283  1
  Cl  Cl512  1  0.13298705  0.85266604  0.24844810  1
  Cl  Cl513  1  0.64475508  0.18182968  0.24770939  1
  Cl  Cl514  1  0.64188243  0.51843297  0.25060680  1
  Cl  Cl515  1  0.63225442  0.85435516  0.24910112  1
  Cl  Cl516  1  0.14272830  0.14748843  0.74750907  1
  Cl  Cl517  1  0.13873757  0.47854612  0.75658815  1
  Cl  Cl518  1  0.13753311  0.81100444  0.74772814  1
  Cl  Cl519  1  0.64128214  0.15002170  0.74753891  1
  Cl  Cl520  1  0.64477123  0.48262815  0.75569584  1
  Cl  Cl521  1  0.64294897  0.81087511  0.74738194  1
  Cl  Cl522  1  0.35819410  0.18761416  0.23971382  1
  Cl  Cl523  1  0.35937260  0.51901869  0.24249035  1
  Cl  Cl524  1  0.35037984  0.84987495  0.24723482  1
  Cl  Cl525  1  0.86802530  0.18838028  0.24272232  1
  Cl  Cl526  1  0.86158143  0.52157679  0.24415002  1
  Cl  Cl527  1  0.85312730  0.84963218  0.24624916  1
  Cl  Cl528  1  0.11390714  0.31451941  0.75777461  1
  Cl  Cl529  1  0.12080345  0.64468823  0.75156616  1
  Cl  Cl530  1  0.10482169  0.98336671  0.74751609  1
  Cl  Cl531  1  0.61311136  0.31373587  0.75500766  1
  Cl  Cl532  1  0.61660934  0.64639265  0.74871476  1
  Cl  Cl533  1  0.61347725  0.98054339  0.74786434  1
  Cl  Cl534  1  0.38730202  0.02027484  0.24398230  1
  Cl  Cl535  1  0.39260305  0.35364548  0.24513620  1
  Cl  Cl536  1  0.38545407  0.68319766  0.25006121  1
  Cl  Cl537  1  0.88592716  0.02087384  0.24331062  1
  Cl  Cl538  1  0.88441355  0.35438455  0.24278537  1
  Cl  Cl539  1  0.88416374  0.68384335  0.24472326  1
  Cl  Cl540  1  0.39216698  0.31542495  0.75266888  1
  Cl  Cl541  1  0.39456593  0.64782686  0.75546507  1
  Cl  Cl542  1  0.39248681  0.98217368  0.75312788  1
  Cl  Cl543  1  0.89702199  0.31494021  0.75324449  1
  Cl  Cl544  1  0.89891485  0.64699877  0.75461187  1
  Cl  Cl545  1  0.88341481  0.97915745  0.75738209  1
  Cl  Cl546  1  0.10400854  0.01829364  0.25376310  1
  Cl  Cl547  1  0.10706815  0.35295899  0.24429341  1
  Cl  Cl548  1  0.10608860  0.68489335  0.25008823  1
  Cl  Cl549  1  0.60793460  0.01937019  0.24994796  1
  Cl  Cl550  1  0.61312530  0.35395554  0.24207492  1
  Cl  Cl551  1  0.60951845  0.68828341  0.24766982  1
