# generated using pymatgen
data_H8PbC4(N3Cl2)2
_symmetry_space_group_name_H-M   'P 1'
_cell_length_a   16.62071525
_cell_length_b   22.49733182
_cell_length_c   21.58714656
_cell_angle_alpha   90.00078992
_cell_angle_beta   89.99530720
_cell_angle_gamma   90.00139035
_symmetry_Int_Tables_number   1
_chemical_formula_structural   H8PbC4(N3Cl2)2
_chemical_formula_sum   'H192 Pb24 C96 N144 Cl96'
_cell_volume   8071.90350523
_cell_formula_units_Z   24
loop_
 _symmetry_equiv_pos_site_id
 _symmetry_equiv_pos_as_xyz
  1  'x, y, z'
loop_
 _atom_site_type_symbol
 _atom_site_label
 _atom_site_symmetry_multiplicity
 _atom_site_fract_x
 _atom_site_fract_y
 _atom_site_fract_z
 _atom_site_occupancy
  H  H0  1  -0.00345838  0.03376633  0.67997284  1
  H  H1  1  -0.00324653  0.36628598  0.68297969  1
  H  H2  1  -0.00360149  0.70034552  0.67982300  1
  H  H3  1  0.50347973  0.03346549  0.68298821  1
  H  H4  1  0.50052044  0.36635742  0.68041302  1
  H  H5  1  0.50228232  0.70024205  0.68070004  1
  H  H6  1  0.00037494  0.30021804  0.18196374  1
  H  H7  1  0.00316721  0.63355122  0.17995365  1
  H  H8  1  -0.00481402  0.96631266  0.17880459  1
  H  H9  1  0.49775133  0.29930335  0.18103802  1
  H  H10  1  0.49701827  0.63383011  0.18206357  1
  H  H11  1  0.50271316  0.96665098  0.18024585  1
  H  H12  1  0.00215123  0.03323148  0.81777111  1
  H  H13  1  -0.00135287  0.36650946  0.81694801  1
  H  H14  1  0.00260544  0.69929213  0.81877136  1
  H  H15  1  0.50107470  0.03256750  0.82080139  1
  H  H16  1  0.49764556  0.36540426  0.81782421  1
  H  H17  1  0.49867299  0.70003306  0.81775173  1
  H  H18  1  0.00220743  0.29984313  0.31719119  1
  H  H19  1  0.00703190  0.63304403  0.31714865  1
  H  H20  1  0.00295460  0.96639412  0.31844899  1
  H  H21  1  0.49976215  0.30054613  0.32046448  1
  H  H22  1  0.49886695  0.63412510  0.31563508  1
  H  H23  1  0.49649183  0.96618181  0.31930505  1
  H  H24  1  0.24503775  0.19948766  0.68203698  1
  H  H25  1  0.25320398  0.53168279  0.68311425  1
  H  H26  1  0.25239645  0.86651347  0.68240940  1
  H  H27  1  0.75383504  0.20006794  0.68016407  1
  H  H28  1  0.74623120  0.53276393  0.68430854  1
  H  H29  1  0.74743883  0.86633342  0.68289798  1
  H  H30  1  0.25037625  0.13423280  0.18068403  1
  H  H31  1  0.25247927  0.46647704  0.18071957  1
  H  H32  1  0.24755216  0.80109093  0.18115291  1
  H  H33  1  0.74972687  0.13383923  0.18229091  1
  H  H34  1  0.75369875  0.46718052  0.18238441  1
  H  H35  1  0.75689424  0.79987546  0.18099696  1
  H  H36  1  0.25436473  0.19895101  0.81888939  1
  H  H37  1  0.25273907  0.53323991  0.81893923  1
  H  H38  1  0.25412024  0.86675838  0.82028096  1
  H  H39  1  0.74772594  0.19911902  0.81696779  1
  H  H40  1  0.74922760  0.53284233  0.81780443  1
  H  H41  1  0.74648936  0.86677437  0.81956555  1
  H  H42  1  0.24969408  0.13354137  0.31848999  1
  H  H43  1  0.24658112  0.46602487  0.31860472  1
  H  H44  1  0.25358346  0.80056362  0.31850834  1
  H  H45  1  0.74784890  0.13306779  0.31945339  1
  H  H46  1  0.75287824  0.46636296  0.31726037  1
  H  H47  1  0.75295061  0.79981629  0.31885541  1
  H  H48  1  0.12657654  0.05206244  0.61434271  1
  H  H49  1  0.12772691  0.38671463  0.61586198  1
  H  H50  1  0.12882308  0.71743466  0.61621387  1
  H  H51  1  0.62256747  0.05497248  0.60848249  1
  H  H52  1  0.62751854  0.38527418  0.61294916  1
  H  H53  1  0.62558280  0.72235664  0.60841171  1
  H  H54  1  0.37727486  0.27827645  0.10527473  1
  H  H55  1  0.37955259  0.61197097  0.10596208  1
  H  H56  1  0.37178314  0.94726569  0.11559726  1
  H  H57  1  0.87760254  0.27889549  0.11027137  1
  H  H58  1  0.87514599  0.61409851  0.11169608  1
  H  H59  1  0.87742543  0.94379556  0.10212671  1
  H  H60  1  0.37436158  0.05303130  0.89006252  1
  H  H61  1  0.37910415  0.38953696  0.89417362  1
  H  H62  1  0.37555106  0.72206970  0.89162999  1
  H  H63  1  0.87416681  0.05186383  0.88583680  1
  H  H64  1  0.87953603  0.38848226  0.89245481  1
  H  H65  1  0.87159400  0.71989334  0.88429883  1
  H  H66  1  0.12185600  0.27915630  0.39294187  1
  H  H67  1  0.12018620  0.60900397  0.39862272  1
  H  H68  1  0.12696293  0.94607543  0.39017961  1
  H  H69  1  0.62367155  0.27926304  0.39140480  1
  H  H70  1  0.62454741  0.61501693  0.38460347  1
  H  H71  1  0.62849430  0.94720606  0.38268296  1
  H  H72  1  0.37833927  0.22003999  0.61831778  1
  H  H73  1  0.37534360  0.55300133  0.61058353  1
  H  H74  1  0.37120110  0.88706404  0.60611829  1
  H  H75  1  0.87583408  0.21980160  0.60677030  1
  H  H76  1  0.87794189  0.55199807  0.62161767  1
  H  H77  1  0.87252947  0.88728990  0.61146630  1
  H  H78  1  0.12761769  0.11144982  0.10746206  1
  H  H79  1  0.12092019  0.44772358  0.11672405  1
  H  H80  1  0.12984906  0.77721994  0.10293811  1
  H  H81  1  0.62503589  0.11328466  0.11276847  1
  H  H82  1  0.62280970  0.44701592  0.11711684  1
  H  H83  1  0.62620755  0.78118138  0.11439874  1
  H  H84  1  0.12434980  0.21925644  0.88671610  1
  H  H85  1  0.12273650  0.55298422  0.88605709  1
  H  H86  1  0.12323291  0.88710767  0.88423653  1
  H  H87  1  0.62325109  0.22023206  0.88842279  1
  H  H88  1  0.62422652  0.55468898  0.89022257  1
  H  H89  1  0.62887840  0.89011457  0.89696261  1
  H  H90  1  0.37166017  0.11205911  0.39231563  1
  H  H91  1  0.37354352  0.44675067  0.38492288  1
  H  H92  1  0.37092526  0.77804543  0.39702966  1
  H  H93  1  0.87819688  0.11422367  0.38539106  1
  H  H94  1  0.87011499  0.44556845  0.39312794  1
  H  H95  1  0.86974445  0.77754764  0.39719690  1
  H  H96  1  0.37434826  0.27987316  0.39138568  1
  H  H97  1  0.37476453  0.61370311  0.38571154  1
  H  H98  1  0.37946460  0.94380570  0.39731306  1
  H  H99  1  0.87267341  0.27897287  0.38558180  1
  H  H100  1  0.87306073  0.61556092  0.37986100  1
  H  H101  1  0.87761175  0.94787933  0.38650599  1
  H  H102  1  0.12362229  0.05348758  0.88938605  1
  H  H103  1  0.12857621  0.38714204  0.88514363  1
  H  H104  1  0.12004033  0.72290156  0.89729106  1
  H  H105  1  0.62371225  0.05498917  0.89232309  1
  H  H106  1  0.62811445  0.38537106  0.88239791  1
  H  H107  1  0.62471034  0.72117059  0.88727034  1
  H  H108  1  0.12746382  0.28029726  0.11208471  1
  H  H109  1  0.12406065  0.61019847  0.10671248  1
  H  H110  1  0.12591381  0.94779532  0.11341338  1
  H  H111  1  0.62607442  0.27959974  0.11388412  1
  H  H112  1  0.62902545  0.61531907  0.11677026  1
  H  H113  1  0.62084694  0.94295228  0.10337834  1
  H  H114  1  0.37322738  0.05206033  0.61881701  1
  H  H115  1  0.37864097  0.38762668  0.60912842  1
  H  H116  1  0.37657913  0.72060400  0.60969273  1
  H  H117  1  0.87822871  0.05679527  0.60250514  1
  H  H118  1  0.87846709  0.38735459  0.60639171  1
  H  H119  1  0.88116586  0.72517573  0.60206772  1
  H  H120  1  0.12342804  0.11196227  0.38896803  1
  H  H121  1  0.12416704  0.44533813  0.39150412  1
  H  H122  1  0.12261321  0.78048075  0.38671526  1
  H  H123  1  0.62908040  0.11112064  0.39589063  1
  H  H124  1  0.62114197  0.44779175  0.37986864  1
  H  H125  1  0.62060276  0.78078259  0.38317053  1
  H  H126  1  0.37256780  0.22162730  0.89703914  1
  H  H127  1  0.37110853  0.55627967  0.89655735  1
  H  H128  1  0.37128051  0.89007158  0.89850722  1
  H  H129  1  0.87250444  0.22018759  0.88938613  1
  H  H130  1  0.87266788  0.55497647  0.89147698  1
  H  H131  1  0.87799103  0.88599377  0.88422549  1
  H  H132  1  0.37648834  0.11367459  0.11196164  1
  H  H133  1  0.36960782  0.44280746  0.10316036  1
  H  H134  1  0.37812498  0.78181204  0.11512291  1
  H  H135  1  0.87448517  0.11297577  0.11291428  1
  H  H136  1  0.87028147  0.44511079  0.10299260  1
  H  H137  1  0.87501133  0.77757049  0.10452264  1
  H  H138  1  0.13002377  0.22178761  0.60394863  1
  H  H139  1  0.12524460  0.55421054  0.61481834  1
  H  H140  1  0.12203041  0.88718625  0.61506335  1
  H  H141  1  0.62665339  0.22076278  0.61447082  1
  H  H142  1  0.62893462  0.55362490  0.60838645  1
  H  H143  1  0.62337811  0.88707444  0.61068698  1
  H  H144  1  0.80498186  0.42077417  -0.00013775  1
  H  H145  1  0.30618135  0.41714494  -0.00123280  1
  H  H146  1  0.08925734  0.92000488  0.00586236  1
  H  H147  1  0.05506709  0.74883698  1.00023778  1
  H  H148  1  0.93778396  0.41591569  1.00114802  1
  H  H149  1  0.43709281  0.58803015  -0.00431624  1
  H  H150  1  0.09416373  0.75439543  0.51260575  1
  H  H151  1  0.32114551  0.57525938  0.49764727  1
  H  H152  1  0.80644517  0.75333704  0.50157068  1
  H  H153  1  0.19477627  0.75204380  -0.00030320  1
  H  H154  1  0.42093764  0.25318575  0.49667637  1
  H  H155  1  0.83352402  0.08467482  0.00228385  1
  H  H156  1  0.67093488  0.24786836  0.99782946  1
  H  H157  1  0.84591377  0.57893818  0.50860925  1
  H  H158  1  0.66462258  0.24991236  0.50142266  1
  H  H159  1  0.69185548  0.91368097  1.00207310  1
  H  H160  1  0.67152464  0.91481034  0.50175287  1
  H  H161  1  0.66664020  0.08595955  0.00170989  1
  H  H162  1  0.07599346  0.08130944  1.00030808  1
  H  H163  1  0.64989411  0.41934860  0.49268899  1
  H  H164  1  0.91891002  0.58622571  0.00542570  1
  H  H165  1  0.92012097  0.92141309  0.49991636  1
  H  H166  1  0.31182639  0.91289172  0.49705311  1
  H  H167  1  0.56880433  0.08106569  0.49790292  1
  H  H168  1  0.17210276  0.57213635  0.50629238  1
  H  H169  1  0.81462655  0.41863381  0.50281567  1
  H  H170  1  0.06403856  0.25310860  0.50194113  1
  H  H171  1  0.68931705  0.08611221  0.50104781  1
  H  H172  1  0.57841576  0.74866116  0.99722290  1
  H  H173  1  0.94626679  0.73806353  0.49790814  1
  H  H174  1  0.30792838  0.58279155  0.99994255  1
  H  H175  1  0.44226750  0.91541312  0.50059806  1
  H  H176  1  0.59250143  0.41343765  0.99426767  1
  H  H177  1  0.08353023  0.25177668  0.00709791  1
  H  H178  1  0.33462197  0.41812830  0.49802509  1
  H  H179  1  0.92534731  0.25053376  0.00041327  1
  H  H180  1  0.16961739  0.08332415  0.49350127  1
  H  H181  1  0.40697612  0.07983558  0.50643984  1
  H  H182  1  0.41821462  0.08327426  0.99483416  1
  H  H183  1  0.05009578  0.58538918  0.50115954  1
  H  H184  1  0.19291852  0.24946252  0.49648251  1
  H  H185  1  0.43811522  0.40623588  1.00022173  1
  H  H186  1  0.68666425  0.57745404  0.49713435  1
  H  H187  1  0.55884676  0.91703092  -0.00120974  1
  H  H188  1  0.59278193  0.58685007  0.01052872  1
  H  H189  1  0.42262487  0.59147989  0.49985027  1
  H  H190  1  0.57898612  0.59012580  0.49831535  1
  H  H191  1  0.93816039  0.41209257  0.49741303  1
  Pb  Pb192  1  0.24954784  0.04672227  0.74947628  1
  Pb  Pb193  1  0.25104844  0.38153711  0.75328788  1
  Pb  Pb194  1  0.24912492  0.71585170  0.75499371  1
  Pb  Pb195  1  0.74867181  0.04915311  0.74699612  1
  Pb  Pb196  1  0.75348767  0.37966530  0.75094870  1
  Pb  Pb197  1  0.74925716  0.71665311  0.74487586  1
  Pb  Pb198  1  0.24756994  0.28606197  0.25175034  1
  Pb  Pb199  1  0.25108707  0.61714317  0.25003941  1
  Pb  Pb200  1  0.25091079  0.95312135  0.25171636  1
  Pb  Pb201  1  0.74936860  0.28397071  0.24962589  1
  Pb  Pb202  1  0.74848584  0.62022419  0.25029667  1
  Pb  Pb203  1  0.74859245  0.95329374  0.24529130  1
  Pb  Pb204  1  0.00326813  0.21306647  0.75070397  1
  Pb  Pb205  1  0.00014300  0.54879917  0.75107695  1
  Pb  Pb206  1  -0.00096046  0.88246078  0.75116216  1
  Pb  Pb207  1  0.49881314  0.21465076  0.74957628  1
  Pb  Pb208  1  0.50064841  0.54922778  0.75053733  1
  Pb  Pb209  1  0.49798930  0.88210743  0.75023614  1
  Pb  Pb210  1  0.00158960  0.11841198  0.24882592  1
  Pb  Pb211  1  -0.00276367  0.45207578  0.24958370  1
  Pb  Pb212  1  -0.00017476  0.78556476  0.24965771  1
  Pb  Pb213  1  0.49639920  0.11912880  0.25048422  1
  Pb  Pb214  1  0.49851258  0.45051143  0.24469601  1
  Pb  Pb215  1  0.49995615  0.78764559  0.24975367  1
  C  C216  1  0.00019730  0.04746515  0.63209424  1
  C  C217  1  0.00125147  0.38050737  0.63509212  1
  C  C218  1  0.00223923  0.71395008  0.63169052  1
  C  C219  1  0.49957155  0.04721444  0.63486052  1
  C  C220  1  0.50221556  0.38007781  0.63237781  1
  C  C221  1  0.50132444  0.71458677  0.63295674  1
  C  C222  1  0.00219902  0.28567601  0.13398058  1
  C  C223  1  0.00041595  0.61918132  0.13215499  1
  C  C224  1  -0.00013432  0.95235613  0.13087570  1
  C  C225  1  0.50009401  0.28544115  0.13317458  1
  C  C226  1  0.50248989  0.61940635  0.13420642  1
  C  C227  1  0.49877108  0.95270822  0.13239910  1
  C  C228  1  0.00043018  0.04686044  0.86585461  1
  C  C229  1  0.00260410  0.38057749  0.86488910  1
  C  C230  1  -0.00151131  0.71383038  0.86658517  1
  C  C231  1  0.49933712  0.04729619  0.86855052  1
  C  C232  1  0.50135027  0.37954533  0.86588725  1
  C  C233  1  0.49940943  0.71441035  0.86565945  1
  C  C234  1  -0.00130695  0.28580667  0.36519848  1
  C  C235  1  0.00050540  0.61929101  0.36504311  1
  C  C236  1  0.00198343  0.95286565  0.36653880  1
  C  C237  1  0.49878234  0.28643358  0.36846096  1
  C  C238  1  0.49930365  0.62009722  0.36376472  1
  C  C239  1  0.50116497  0.95230220  0.36723324  1
  C  C240  1  0.25146014  0.21387543  0.63434686  1
  C  C241  1  0.25079798  0.54596754  0.63506042  1
  C  C242  1  0.24833018  0.88051890  0.63446765  1
  C  C243  1  0.75158116  0.21384432  0.63215485  1
  C  C244  1  0.75131713  0.54676147  0.63633134  1
  C  C245  1  0.74775491  0.88073991  0.63497389  1
  C  C246  1  0.25127411  0.11969587  0.13306017  1
  C  C247  1  0.24793718  0.45266578  0.13292921  1
  C  C248  1  0.25140566  0.78657579  0.13339279  1
  C  C249  1  0.74973032  0.11936527  0.13428048  1
  C  C250  1  0.74911244  0.45313472  0.13448599  1
  C  C251  1  0.75243878  0.78596094  0.13324307  1
  C  C252  1  0.25053076  0.21339092  0.86674361  1
  C  C253  1  0.24913327  0.54753756  0.86682573  1
  C  C254  1  0.24977643  0.88111349  0.86791758  1
  C  C255  1  0.74801280  0.21367782  0.86484834  1
  C  C256  1  0.74864498  0.54722038  0.86574680  1
  C  C257  1  0.75084179  0.88056217  0.86741969  1
  C  C258  1  0.24795605  0.11895074  0.36635019  1
  C  C259  1  0.24862509  0.45245307  0.36669328  1
  C  C260  1  0.24885861  0.78626829  0.36641914  1
  C  C261  1  0.75141104  0.11941234  0.36743419  1
  C  C262  1  0.74782088  0.45266206  0.36535094  1
  C  C263  1  0.74806780  0.78623463  0.36675542  1
  C  C264  1  0.55382012  0.92659578  0.45802958  1
  C  C265  1  0.54120423  0.59782076  0.45807074  1
  C  C266  1  0.04218133  0.92892168  0.46069263  1
  C  C267  1  0.29228067  0.09319690  0.04060820  1
  C  C268  1  0.96670211  0.92647597  0.03460911  1
  C  C269  1  0.03655107  0.07160544  0.96148127  1
  C  C270  1  0.53735837  0.74022974  0.53933855  1
  C  C271  1  0.02931075  0.26219421  0.46025208  1
  C  C272  1  0.97231232  0.40543113  0.95973327  1
  C  C273  1  0.95499496  0.07059711  0.95866055  1
  C  C274  1  0.45077876  0.07034469  0.54257740  1
  C  C275  1  0.27785847  0.90415901  0.53920048  1
  C  C276  1  0.54321545  0.25993003  0.04124624  1
  C  C277  1  0.80126180  0.09552084  0.45970867  1
  C  C278  1  0.53899049  0.07550184  0.96260485  1
  C  C279  1  0.22587914  0.23936649  0.53884562  1
  C  C280  1  0.55045660  0.40457427  0.95689735  1
  C  C281  1  0.21056758  0.42799643  0.46116880  1
  C  C282  1  0.54022273  0.26101403  0.46290067  1
  C  C283  1  0.97212806  0.40386563  0.53968201  1
  C  C284  1  0.69569424  0.76121918  0.45794794  1
  C  C285  1  0.70749666  0.23922983  0.53862479  1
  C  C286  1  0.80254421  0.90517926  0.95888875  1
  C  C287  1  0.71147532  0.90495731  0.54109083  1
  C  C288  1  0.77873862  0.42841746  0.46191624  1
  C  C289  1  0.69684838  0.42929448  0.45708875  1
  C  C290  1  0.29212604  0.42806050  0.46058029  1
  C  C291  1  0.78913141  0.23838044  0.53756448  1
  C  C292  1  0.53838358  0.73874993  0.95860215  1
  C  C293  1  0.72028224  0.56967284  0.53954080  1
  C  C294  1  0.44768154  0.92628867  0.04126771  1
  C  C295  1  0.46482292  0.40571662  0.53864152  1
  C  C296  1  0.70873651  0.09509546  0.03979190  1
  C  C297  1  0.47061196  0.59576851  0.03822951  1
  C  C298  1  0.79102619  0.09479359  0.04001604  1
  C  C299  1  0.04620565  0.07131840  0.54025842  1
  C  C300  1  0.78259729  0.75934529  0.03860738  1
  C  C301  1  0.45938851  0.59803320  0.45876057  1
  C  C302  1  0.96059433  0.92954265  0.46131065  1
  C  C303  1  0.19561062  0.42674347  0.04200305  1
  C  C304  1  0.20270149  0.90736766  0.95867861  1
  C  C305  1  0.96348879  0.26104751  0.03977919  1
  C  C306  1  0.03828671  0.59201680  0.03747561  1
  C  C307  1  0.80198385  0.56935590  0.54460716  1
  C  C308  1  0.28829191  0.57171740  0.54106514  1
  C  C309  1  0.54645029  0.40485245  0.53986348  1
  C  C310  1  0.71098256  0.23815335  0.95841754  1
  C  C311  1  0.53283736  0.07119717  0.53872060  1
  N  N312  1  0.20275144  0.76243633  0.45894808  1
  N  N313  1  0.27699745  0.57192398  0.96062586  1
  N  N314  1  0.30276019  0.76218562  0.04268096  1
  N  N315  1  0.46570121  0.25959383  0.03715320  1
  N  N316  1  0.52636745  0.92595921  0.03801481  1
  N  N317  1  0.79052559  0.23775175  0.95920470  1
  N  N318  1  0.95929888  0.59414534  0.04009306  1
  N  N319  1  0.20879521  0.57400289  0.54422639  1
  N  N320  1  0.95010612  0.26209749  0.45787751  1
  N  N321  1  0.02492310  0.73964722  0.96010082  1
  N  N322  1  0.47475579  0.92607281  0.46190554  1
  N  N323  1  0.21440223  0.09194412  0.03790439  1
  N  N324  1  0.19906783  0.57122528  0.95826927  1
  N  N325  1  0.70898045  0.57197054  0.95973482  1
  N  N326  1  0.19864513  0.90494380  0.54235200  1
  N  N327  1  0.77448231  0.76104549  0.46174618  1
  N  N328  1  0.28013994  0.90833862  0.96455383  1
  N  N329  1  0.04556124  0.92801184  0.03961304  1
  N  N330  1  0.69699525  0.42924877  0.04387237  1
  N  N331  1  0.05134299  0.40404855  0.54288297  1
  N  N332  1  0.05265949  0.73481419  0.54180283  1
  N  N333  1  0.30504229  0.23875300  0.54355884  1
  N  N334  1  0.28118130  0.24039591  0.96197560  1
  N  N335  1  0.47082961  0.40675975  0.95996156  1
  N  N336  1  0.46013491  0.73966305  0.53832646  1
  N  N337  1  0.20472835  0.23927089  0.95863249  1
  N  N338  1  0.96872863  0.07303246  0.53523158  1
  N  N339  1  0.04319799  0.26248250  0.04137485  1
  N  N340  1  0.22495786  0.76018451  0.04009327  1
  N  N341  1  0.70499313  0.76078539  0.04025933  1
  N  N342  1  0.77488496  0.42767041  0.04058021  1
  N  N343  1  0.78620391  0.57192162  0.96020992  1
  N  N344  1  0.79097549  0.90477974  0.54078355  1
  N  N345  1  0.02228274  0.59567783  0.46013086  1
  N  N346  1  0.05155525  0.40457246  0.95745243  1
  N  N347  1  0.72373007  0.90615564  0.96215181  1
  N  N348  1  0.94471422  0.59806020  0.45488677  1
  N  N349  1  0.27430171  0.42609571  0.03829643  1
  N  N350  1  0.27912898  0.76076033  0.46222887  1
  N  N351  1  0.28771245  0.09424045  0.46058687  1
  N  N352  1  0.72251094  0.09454983  0.46218909  1
  N  N353  1  0.20926577  0.09473781  0.45821363  1
  N  N354  1  0.55003955  0.59604035  0.04355939  1
  N  N355  1  0.94710139  0.73838521  0.95731069  1
  N  N356  1  0.45967963  0.07424807  0.96054358  1
  N  N357  1  0.45905503  0.73851186  0.96066796  1
  N  N358  1  0.97406377  0.74629475  0.53953129  1
  N  N359  1  0.46097329  0.26144824  0.46146590  1
  N  N360  1  0.06771603  0.05599554  0.59890632  1
  N  N361  1  0.06757879  0.38967468  0.60241585  1
  N  N362  1  0.06997756  0.72415258  0.60139386  1
  N  N363  1  0.56186348  0.05676059  0.59666603  1
  N  N364  1  0.56846913  0.38920710  0.59767785  1
  N  N365  1  0.56566068  0.72495669  0.59629614  1
  N  N366  1  0.43867486  0.27538081  0.09585477  1
  N  N367  1  0.44071077  0.60990359  0.09463946  1
  N  N368  1  0.43030422  0.94283326  0.09956641  1
  N  N369  1  0.93781521  0.27585192  0.09721935  1
  N  N370  1  0.93520540  0.61100468  0.09847361  1
  N  N371  1  0.93805646  0.94149350  0.09116838  1
  N  N372  1  0.43476628  0.05687874  0.90252174  1
  N  N373  1  0.44073951  0.38775685  0.90455283  1
  N  N374  1  0.43648054  0.72362356  0.90222651  1
  N  N375  1  0.93347607  0.05572911  0.90088145  1
  N  N376  1  0.94064485  0.39078702  0.90329118  1
  N  N377  1  0.93110782  0.72313030  0.89855635  1
  N  N378  1  0.06083955  0.27655089  0.40371581  1
  N  N379  1  0.05812654  0.60941386  0.40588557  1
  N  N380  1  0.06700920  0.94292470  0.40348271  1
  N  N381  1  0.56369187  0.27623190  0.40522440  1
  N  N382  1  0.56487181  0.61124487  0.39881411  1
  N  N383  1  0.57013910  0.94291047  0.39948581  1
  N  N384  1  0.31893359  0.22280871  0.60329906  1
  N  N385  1  0.31495441  0.55611842  0.59785558  1
  N  N386  1  0.31005875  0.88956228  0.59547870  1
  N  N387  1  0.81566306  0.22325067  0.59396343  1
  N  N388  1  0.81978880  0.55519414  0.60482219  1
  N  N389  1  0.81163652  0.89014096  0.59967338  1
  N  N390  1  0.18884699  0.10871170  0.09704501  1
  N  N391  1  0.17895394  0.44311386  0.10047841  1
  N  N392  1  0.19163604  0.77609158  0.09453982  1
  N  N393  1  0.68478115  0.11021707  0.09891210  1
  N  N394  1  0.68166300  0.44380886  0.10293295  1
  N  N395  1  0.68618686  0.77733316  0.10082979  1
  N  N396  1  0.18449024  0.22256011  0.89961962  1
  N  N397  1  0.18223617  0.55612414  0.89959112  1
  N  N398  1  0.18180234  0.89093548  0.90009976  1
  N  N399  1  0.68360988  0.22369854  0.90071417  1
  N  N400  1  0.68489997  0.55659239  0.90127475  1
  N  N401  1  0.69058969  0.88990031  0.90625018  1
  N  N402  1  0.31099556  0.10951870  0.40319683  1
  N  N403  1  0.31454806  0.44346262  0.40054335  1
  N  N404  1  0.30909217  0.77542344  0.40512530  1
  N  N405  1  0.81942706  0.11053383  0.40104418  1
  N  N406  1  0.80921218  0.44294429  0.40430611  1
  N  N407  1  0.80800692  0.77744506  0.40601002  1
  N  N408  1  0.43481890  0.27742432  0.40341626  1
  N  N409  1  0.43433767  0.61166919  0.39968533  1
  N  N410  1  0.44130482  0.94221843  0.40607613  1
  N  N411  1  0.93291559  0.27659778  0.39852949  1
  N  N412  1  0.93167773  0.61176101  0.39553015  1
  N  N413  1  0.93679102  0.94424399  0.40142758  1
  N  N414  1  0.06363074  0.05670557  0.90247013  1
  N  N415  1  0.06858307  0.38934749  0.89818679  1
  N  N416  1  0.05820643  0.72383977  0.90566108  1
  N  N417  1  0.56365001  0.05866034  0.90569786  1
  N  N418  1  0.56943795  0.38951188  0.89819130  1
  N  N419  1  0.56470404  0.72411740  0.90068277  1
  N  N420  1  0.06686506  0.27660202  0.09971409  1
  N  N421  1  0.06411566  0.60764676  0.09418846  1
  N  N422  1  0.06646457  0.94371939  0.09899393  1
  N  N423  1  0.56688415  0.27572168  0.09916823  1
  N  N424  1  0.56940024  0.60973342  0.10287770  1
  N  N425  1  0.55926649  0.94327588  0.09385039  1
  N  N426  1  0.43179921  0.05551677  0.60243144  1
  N  N427  1  0.43863362  0.39064319  0.59532422  1
  N  N428  1  0.43730547  0.72380036  0.59807622  1
  N  N429  1  0.93986450  0.05779903  0.59378468  1
  N  N430  1  0.93972572  0.38988897  0.59600314  1
  N  N431  1  0.94263065  0.72232198  0.59194318  1
  N  N432  1  0.18405189  0.10917661  0.40112905  1
  N  N433  1  0.18439536  0.44253946  0.40448394  1
  N  N434  1  0.18271831  0.77784068  0.39934671  1
  N  N435  1  0.69041240  0.10981124  0.40549511  1
  N  N436  1  0.67947643  0.44440273  0.39687750  1
  N  N437  1  0.67918082  0.77652327  0.39908256  1
  N  N438  1  0.31092666  0.22453747  0.90515136  1
  N  N439  1  0.30946487  0.55782822  0.90535796  1
  N  N440  1  0.30961640  0.89151076  0.90672188  1
  N  N441  1  0.81161100  0.22258346  0.90059407  1
  N  N442  1  0.81153696  0.55676503  0.90207901  1
  N  N443  1  0.81941375  0.88987053  0.90011510  1
  N  N444  1  0.31696560  0.10992501  0.09801006  1
  N  N445  1  0.30797609  0.44300458  0.09407451  1
  N  N446  1  0.31876006  0.77744601  0.10132521  1
  N  N447  1  0.81481609  0.10981613  0.09909626  1
  N  N448  1  0.80833452  0.44371526  0.09487806  1
  N  N449  1  0.81434202  0.77479283  0.09422077  1
  N  N450  1  0.19155225  0.22430445  0.59421581  1
  N  N451  1  0.18576679  0.55439123  0.60121009  1
  N  N452  1  0.18214345  0.89035495  0.60174758  1
  N  N453  1  0.68553949  0.22370038  0.59874190  1
  N  N454  1  0.68979588  0.55587920  0.59713340  1
  N  N455  1  0.68366023  0.89027973  0.59873707  1
  Cl  Cl456  1  0.24852563  0.05320263  0.61581801  1
  Cl  Cl457  1  0.25260865  0.38621548  0.62146301  1
  Cl  Cl458  1  0.25175494  0.71513190  0.62317444  1
  Cl  Cl459  1  0.74875018  0.05775373  0.61001355  1
  Cl  Cl460  1  0.75535938  0.38587666  0.61848407  1
  Cl  Cl461  1  0.75892282  0.72565537  0.60625046  1
  Cl  Cl462  1  0.25091085  0.28500825  0.11990541  1
  Cl  Cl463  1  0.25527419  0.61069471  0.11333668  1
  Cl  Cl464  1  0.24842316  0.94971725  0.12116873  1
  Cl  Cl465  1  0.75124722  0.28122574  0.11687033  1
  Cl  Cl466  1  0.75215284  0.61654690  0.11868206  1
  Cl  Cl467  1  0.74442001  0.94117279  0.10691339  1
  Cl  Cl468  1  0.25155665  0.05023764  0.88007096  1
  Cl  Cl469  1  0.25837037  0.39258674  0.89263464  1
  Cl  Cl470  1  0.24210472  0.72319405  0.89332957  1
  Cl  Cl471  1  0.74772431  0.05027509  0.88031110  1
  Cl  Cl472  1  0.75649350  0.38899931  0.88870179  1
  Cl  Cl473  1  0.74862216  0.71961951  0.87634586  1
  Cl  Cl474  1  0.24698414  0.27912083  0.38776417  1
  Cl  Cl475  1  0.24316281  0.60718442  0.39093613  1
  Cl  Cl476  1  0.25651065  0.94725671  0.38703157  1
  Cl  Cl477  1  0.74636096  0.27885345  0.38235656  1
  Cl  Cl478  1  0.74847570  0.61659023  0.38410986  1
  Cl  Cl479  1  0.75046056  0.94976262  0.37742252  1
  Cl  Cl480  1  0.00535432  0.21898804  0.61812370  1
  Cl  Cl481  1  0.00596350  0.55813417  0.61019403  1
  Cl  Cl482  1  -0.00349756  0.88375353  0.61866408  1
  Cl  Cl483  1  0.50116225  0.22232260  0.61527395  1
  Cl  Cl484  1  0.50145071  0.55364636  0.61792428  1
  Cl  Cl485  1  0.49497520  0.88836107  0.61272666  1
  Cl  Cl486  1  0.00267168  0.11430313  0.11582475  1
  Cl  Cl487  1  -0.00839636  0.44843972  0.11334398  1
  Cl  Cl488  1  0.00713942  0.77818357  0.11019546  1
  Cl  Cl489  1  0.49945178  0.11195694  0.11625926  1
  Cl  Cl490  1  0.49313781  0.44313923  0.10463578  1
  Cl  Cl491  1  0.50256377  0.78349876  0.11667215  1
  Cl  Cl492  1  -0.00055366  0.22154443  0.88811900  1
  Cl  Cl493  1  -0.00375096  0.55542394  0.88608521  1
  Cl  Cl494  1  0.00126928  0.88712275  0.88610675  1
  Cl  Cl495  1  0.49824130  0.21624586  0.88126497  1
  Cl  Cl496  1  0.49564612  0.55547487  0.89180679  1
  Cl  Cl497  1  0.50511452  0.89264761  0.89276794  1
  Cl  Cl498  1  0.00316455  0.11437420  0.38027760  1
  Cl  Cl499  1  -0.00397851  0.44828929  0.38240009  1
  Cl  Cl500  1  -0.00561432  0.77431057  0.39532888  1
  Cl  Cl501  1  0.50148112  0.11306488  0.38625658  1
  Cl  Cl502  1  0.49713143  0.44798012  0.37217277  1
  Cl  Cl503  1  0.49525027  0.78469867  0.38169087  1
  Cl  Cl504  1  0.36411916  0.14225422  0.74717797  1
  Cl  Cl505  1  0.36173911  0.47566853  0.75185923  1
  Cl  Cl506  1  0.36355528  0.80893442  0.75192375  1
  Cl  Cl507  1  0.86160037  0.14239988  0.75172263  1
  Cl  Cl508  1  0.86287378  0.47633727  0.74927744  1
  Cl  Cl509  1  0.86276537  0.80866720  0.74994901  1
  Cl  Cl510  1  0.13732174  0.19101863  0.24957540  1
  Cl  Cl511  1  0.13715948  0.52431262  0.24888068  1
  Cl  Cl512  1  0.13585082  0.85700372  0.25160993  1
  Cl  Cl513  1  0.64006603  0.19194526  0.24941995  1
  Cl  Cl514  1  0.63740341  0.52431346  0.24778303  1
  Cl  Cl515  1  0.63662614  0.85746701  0.25030616  1
  Cl  Cl516  1  0.13756260  0.14267809  0.75150960  1
  Cl  Cl517  1  0.13801985  0.47529533  0.75136654  1
  Cl  Cl518  1  0.13702895  0.80831205  0.74926287  1
  Cl  Cl519  1  0.63771500  0.14156534  0.74846448  1
  Cl  Cl520  1  0.63685160  0.47619338  0.75192260  1
  Cl  Cl521  1  0.63872800  0.80857607  0.74954044  1
  Cl  Cl522  1  0.36331179  0.18988413  0.25168541  1
  Cl  Cl523  1  0.36178028  0.52542261  0.24961167  1
  Cl  Cl524  1  0.36213751  0.85756646  0.24789068  1
  Cl  Cl525  1  0.86282963  0.19141500  0.25064970  1
  Cl  Cl526  1  0.86195397  0.52469019  0.25081439  1
  Cl  Cl527  1  0.86370364  0.85655530  0.25008350  1
  Cl  Cl528  1  0.11199584  0.30953744  0.75094966  1
  Cl  Cl529  1  0.11211496  0.64188888  0.74811459  1
  Cl  Cl530  1  0.11286152  0.97504445  0.74822503  1
  Cl  Cl531  1  0.61261299  0.31001979  0.75163744  1
  Cl  Cl532  1  0.61179719  0.64160616  0.74970812  1
  Cl  Cl533  1  0.61152214  0.97554339  0.75085402  1
  Cl  Cl534  1  0.38831936  0.02439584  0.24969433  1
  Cl  Cl535  1  0.38926046  0.35782221  0.24900208  1
  Cl  Cl536  1  0.38695544  0.68956143  0.24919532  1
  Cl  Cl537  1  0.88708853  0.02407304  0.24854742  1
  Cl  Cl538  1  0.88769487  0.35746225  0.25039284  1
  Cl  Cl539  1  0.88888684  0.69073252  0.25195138  1
  Cl  Cl540  1  0.38809691  0.30868815  0.74895966  1
  Cl  Cl541  1  0.38842974  0.64206967  0.75103287  1
  Cl  Cl542  1  0.38919103  0.97526391  0.74918903  1
  Cl  Cl543  1  0.88599661  0.30887149  0.75110476  1
  Cl  Cl544  1  0.89095429  0.64214744  0.74936688  1
  Cl  Cl545  1  0.88797852  0.97517926  0.75048663  1
  Cl  Cl546  1  0.11210575  0.02428761  0.25006630  1
  Cl  Cl547  1  0.11211740  0.35805001  0.24873837  1
  Cl  Cl548  1  0.10931864  0.69134256  0.24891546  1
  Cl  Cl549  1  0.61434427  0.02300505  0.25082594  1
  Cl  Cl550  1  0.61307172  0.35827493  0.24838135  1
  Cl  Cl551  1  0.61264769  0.69063546  0.24893833  1
