# generated using pymatgen
data_H8PbC4(N3Cl2)2
_symmetry_space_group_name_H-M   'P 1'
_cell_length_a   16.62967313
_cell_length_b   22.52085678
_cell_length_c   21.59716476
_cell_angle_alpha   89.99987685
_cell_angle_beta   90.00648712
_cell_angle_gamma   90.00535839
_symmetry_Int_Tables_number   1
_chemical_formula_structural   H8PbC4(N3Cl2)2
_chemical_formula_sum   'H192 Pb24 C96 N144 Cl96'
_cell_volume   8088.45098685
_cell_formula_units_Z   24
loop_
 _symmetry_equiv_pos_site_id
 _symmetry_equiv_pos_as_xyz
  1  'x, y, z'
loop_
 _atom_site_type_symbol
 _atom_site_label
 _atom_site_symmetry_multiplicity
 _atom_site_fract_x
 _atom_site_fract_y
 _atom_site_fract_z
 _atom_site_occupancy
  H  H0  1  -0.00754037  0.02718648  0.67254077  1
  H  H1  1  0.00381518  0.36154595  0.67685254  1
  H  H2  1  0.00603017  0.69796466  0.68063449  1
  H  H3  1  0.49196756  0.02898659  0.67592822  1
  H  H4  1  0.50431979  0.36237268  0.68109097  1
  H  H5  1  0.49834337  0.69802908  0.67934467  1
  H  H6  1  -0.00086997  0.30407517  0.17821233  1
  H  H7  1  0.00441813  0.64115763  0.17593741  1
  H  H8  1  -0.00234919  0.96866404  0.18002772  1
  H  H9  1  0.49382250  0.30040578  0.18056115  1
  H  H10  1  0.49290496  0.63901007  0.17735585  1
  H  H11  1  0.50091365  0.97066163  0.17374376  1
  H  H12  1  0.00814565  0.02638584  0.81880282  1
  H  H13  1  0.01837061  0.36499479  0.82492396  1
  H  H14  1  -0.01092423  0.69806037  0.82368126  1
  H  H15  1  0.50055657  0.02793467  0.82037231  1
  H  H16  1  0.48416306  0.36110270  0.82092617  1
  H  H17  1  0.51239825  0.69845524  0.82138774  1
  H  H18  1  0.01661764  0.30605185  0.32359284  1
  H  H19  1  0.01395193  0.63706257  0.32430012  1
  H  H20  1  -0.00575034  0.97118528  0.31940281  1
  H  H21  1  0.48641176  0.30709397  0.32672743  1
  H  H22  1  0.47983711  0.64031962  0.32162071  1
  H  H23  1  0.51231518  0.97069373  0.32192651  1
  H  H24  1  0.24382534  0.19528045  0.68367422  1
  H  H25  1  0.25619588  0.52739029  0.68204023  1
  H  H26  1  0.24574806  0.86658158  0.68003333  1
  H  H27  1  0.75920033  0.19683471  0.67294737  1
  H  H28  1  0.75018411  0.52795505  0.67534118  1
  H  H29  1  0.75688375  0.85849819  0.67723062  1
  H  H30  1  0.23013017  0.13693487  0.18231769  1
  H  H31  1  0.26485994  0.47157689  0.17734270  1
  H  H32  1  0.23165705  0.80168077  0.17038341  1
  H  H33  1  0.76594459  0.13387381  0.17882064  1
  H  H34  1  0.74139122  0.46925118  0.17209082  1
  H  H35  1  0.76081357  0.80929740  0.17620001  1
  H  H36  1  0.25082707  0.19599621  0.82208044  1
  H  H37  1  0.23905766  0.52879819  0.82636477  1
  H  H38  1  0.23782430  0.85967298  0.82622170  1
  H  H39  1  0.75132906  0.19627071  0.81885021  1
  H  H40  1  0.76189522  0.52663906  0.82366997  1
  H  H41  1  0.76165978  0.86527524  0.82006269  1
  H  H42  1  0.25201809  0.13667236  0.32643753  1
  H  H43  1  0.24343241  0.46802317  0.31752614  1
  H  H44  1  0.24167176  0.80650212  0.32218323  1
  H  H45  1  0.76085684  0.14071439  0.32215692  1
  H  H46  1  0.75661832  0.46867169  0.32724917  1
  H  H47  1  0.74788530  0.80654882  0.32171671  1
  H  H48  1  0.13656473  0.04599605  0.62579359  1
  H  H49  1  0.11586415  0.39210418  0.59758136  1
  H  H50  1  0.11321647  0.72611518  0.59881365  1
  H  H51  1  0.62729578  0.04805113  0.62103907  1
  H  H52  1  0.62073620  0.38897095  0.60266398  1
  H  H53  1  0.61984615  0.72174706  0.60626411  1
  H  H54  1  0.38392001  0.27596812  0.10118906  1
  H  H55  1  0.36818966  0.61281645  0.10762824  1
  H  H56  1  0.37251776  0.94189630  0.10982210  1
  H  H57  1  0.88959421  0.27675908  0.09590925  1
  H  H58  1  0.86863346  0.61502065  0.11991742  1
  H  H59  1  0.87218513  0.94578559  0.10835479  1
  H  H60  1  0.38130914  0.05527427  0.89553036  1
  H  H61  1  0.38492154  0.39105914  0.90781422  1
  H  H62  1  0.37514828  0.71715135  0.87818530  1
  H  H63  1  0.87830962  0.05204540  0.88373224  1
  H  H64  1  0.87451548  0.38083111  0.87136160  1
  H  H65  1  0.88515369  0.72745604  0.91005701  1
  H  H66  1  0.12185777  0.27216371  0.40576748  1
  H  H67  1  0.11316006  0.60800690  0.41125135  1
  H  H68  1  0.12163878  0.94703225  0.38719837  1
  H  H69  1  0.62803993  0.28986246  0.37871648  1
  H  H70  1  0.62271442  0.62011374  0.36928159  1
  H  H71  1  0.62392700  0.94292502  0.40140364  1
  H  H72  1  0.37194669  0.21515878  0.61669889  1
  H  H73  1  0.37778840  0.55442342  0.61078808  1
  H  H74  1  0.37780084  0.88618902  0.61945829  1
  H  H75  1  0.86946999  0.22823704  0.59381999  1
  H  H76  1  0.88056436  0.55087674  0.61209980  1
  H  H77  1  0.88026169  0.88928591  0.60672529  1
  H  H78  1  0.12472551  0.10961040  0.09919996  1
  H  H79  1  0.12378106  0.45040936  0.12611148  1
  H  H80  1  0.13228281  0.77187806  0.08302477  1
  H  H81  1  0.62058272  0.11934562  0.13306561  1
  H  H82  1  0.62687549  0.44213665  0.09520792  1
  H  H83  1  0.62353008  0.78269910  0.12390329  1
  H  H84  1  0.11567253  0.21869986  0.88198701  1
  H  H85  1  0.13805355  0.56227989  0.91135701  1
  H  H86  1  0.13159512  0.89031540  0.90860510  1
  H  H87  1  0.61891665  0.21798363  0.87962598  1
  H  H88  1  0.62767525  0.55172448  0.88343841  1
  H  H89  1  0.63078232  0.88650125  0.88663493  1
  H  H90  1  0.36576228  0.10708214  0.40405968  1
  H  H91  1  0.38011021  0.45043977  0.37396881  1
  H  H92  1  0.38269192  0.78877190  0.37438617  1
  H  H93  1  0.86500972  0.10875118  0.40603396  1
  H  H94  1  0.87638665  0.44322585  0.39908356  1
  H  H95  1  0.88114032  0.78261708  0.38237406  1
  H  H96  1  0.38486105  0.27172463  0.41016304  1
  H  H97  1  0.38000260  0.60712065  0.40766377  1
  H  H98  1  0.37657829  0.95093316  0.38227515  1
  H  H99  1  0.87702056  0.28478424  0.37592255  1
  H  H100  1  0.86993333  0.61651431  0.37122521  1
  H  H101  1  0.87219206  0.94495403  0.39238218  1
  H  H102  1  0.12748580  0.05165976  0.89211614  1
  H  H103  1  0.11698890  0.39361917  0.91147148  1
  H  H104  1  0.12935437  0.71839424  0.87684577  1
  H  H105  1  0.62949906  0.05354480  0.88446010  1
  H  H106  1  0.62803870  0.38413388  0.86796835  1
  H  H107  1  0.62106542  0.72657383  0.90476683  1
  H  H108  1  0.13664004  0.28359032  0.12162883  1
  H  H109  1  0.11538600  0.61024778  0.09708722  1
  H  H110  1  0.12086020  0.94178242  0.10721624  1
  H  H111  1  0.63135505  0.28309509  0.12284712  1
  H  H112  1  0.61671873  0.61385175  0.10761032  1
  H  H113  1  0.62045237  0.94615365  0.09960971  1
  H  H114  1  0.38177347  0.05626502  0.59633886  1
  H  H115  1  0.37303664  0.38689741  0.61629149  1
  H  H116  1  0.37115743  0.72269586  0.61142755  1
  H  H117  1  0.89382971  0.06300035  0.58668055  1
  H  H118  1  0.86895965  0.38466316  0.61587584  1
  H  H119  1  0.86692135  0.71508248  0.62737240  1
  H  H120  1  0.11809628  0.11249962  0.38621181  1
  H  H121  1  0.13266672  0.44223032  0.39719782  1
  H  H122  1  0.13819988  0.77493637  0.40620016  1
  H  H123  1  0.62012743  0.11701870  0.37252053  1
  H  H124  1  0.62818543  0.44890212  0.39080855  1
  H  H125  1  0.63321665  0.77975056  0.40052821  1
  H  H126  1  0.36240459  0.22511813  0.90208141  1
  H  H127  1  0.38137773  0.54710691  0.87670252  1
  H  H128  1  0.37681776  0.88292100  0.87964317  1
  H  H129  1  0.86724559  0.22172509  0.89410477  1
  H  H130  1  0.87406440  0.55789182  0.90261355  1
  H  H131  1  0.87882341  0.88975598  0.89839454  1
  H  H132  1  0.36990801  0.12014323  0.13064628  1
  H  H133  1  0.36677750  0.44028114  0.09060472  1
  H  H134  1  0.37399835  0.78547881  0.12454364  1
  H  H135  1  0.86311114  0.10841451  0.09074712  1
  H  H136  1  0.87427163  0.44802533  0.11119826  1
  H  H137  1  0.86923250  0.77688629  0.09514087  1
  H  H138  1  0.12257567  0.22117649  0.61257463  1
  H  H139  1  0.12837711  0.55479726  0.61567709  1
  H  H140  1  0.12975576  0.89080692  0.60363569  1
  H  H141  1  0.62309340  0.21649999  0.61382007  1
  H  H142  1  0.63262790  0.55551545  0.59914662  1
  H  H143  1  0.63147962  0.88807692  0.60785464  1
  H  H144  1  0.28496763  0.41479206  -0.00651708  1
  H  H145  1  0.78634347  0.08278659  0.50548572  1
  H  H146  1  0.35525529  0.09053225  0.01660757  1
  H  H147  1  0.87988210  0.58556860  0.48136141  1
  H  H148  1  0.19639931  0.08347908  -0.00616949  1
  H  H149  1  0.32665493  0.58049132  0.50035954  1
  H  H150  1  0.14719537  0.08071874  0.49610489  1
  H  H151  1  0.92084609  0.06712044  0.99339253  1
  H  H152  1  0.66272728  0.58440054  0.98971478  1
  H  H153  1  0.61190349  0.58255923  0.47990124  1
  H  H154  1  0.33198068  0.23758712  0.50338409  1
  H  H155  1  0.61049556  0.25227021  0.48493837  1
  H  H156  1  0.36457952  0.58695034  0.98169659  1
  H  H157  1  0.78179302  0.08273474  -0.01204240  1
  H  H158  1  0.59332381  0.08531877  0.99545221  1
  H  H159  1  0.41126083  0.91926761  0.00372041  1
  H  H160  1  0.44922229  0.24513013  -0.00594671  1
  H  H161  1  0.04530159  0.58285687  -0.00464492  1
  H  H162  1  0.41370803  0.75394320  0.50246684  1
  H  H163  1  0.46413678  0.41846714  1.00884401  1
  H  H164  1  0.03295367  0.58087390  0.51277050  1
  H  H165  1  0.34743922  0.91782875  0.50642840  1
  H  H166  1  0.84541138  0.41558333  0.00284515  1
  H  H167  1  0.46058672  0.58623231  0.50608829  1
  H  H168  1  0.97631327  0.08578255  0.48840511  1
  H  H169  1  0.36757909  0.75323870  1.00896717  1
  H  H170  1  0.19715777  0.41299559  0.50365551  1
  H  H171  1  0.56272197  0.90140379  0.00499315  1
  H  H172  1  0.14549379  0.24851563  0.99043939  1
  H  H173  1  0.04474021  0.41780612  0.49530468  1
  H  H174  1  0.81033907  0.25128708  1.00242822  1
  H  H175  1  0.60651462  0.07804225  0.50523557  1
  H  H176  1  0.17371937  0.57510806  0.50719080  1
  H  H177  1  0.03967785  0.42056582  1.01333335  1
  H  H178  1  0.79571591  0.74752648  -0.00425668  1
  H  H179  1  0.96529146  0.75342363  1.00764978  1
  H  H180  1  0.88365024  0.74692378  0.51350860  1
  H  H181  1  0.61715620  0.40912245  0.97766062  1
  H  H182  1  0.46479922  0.25702427  0.51011385  1
  H  H183  1  0.64597739  0.24669754  0.99248614  1
  H  H184  1  0.21967177  0.58110906  1.01013932  1
  H  H185  1  0.04515785  0.24658316  0.50562824  1
  H  H186  1  0.35756122  0.41902061  0.48698984  1
  H  H187  1  0.07635228  0.91264422  0.49506156  1
  H  H188  1  0.21597739  0.75162347  0.50629547  1
  H  H189  1  0.04460906  0.75594396  0.49456517  1
  H  H190  1  0.07333489  0.07663179  1.00243457  1
  H  H191  1  0.17168155  0.24740666  0.50168765  1
  Pb  Pb192  1  0.25376523  0.04717686  0.75172631  1
  Pb  Pb193  1  0.25482886  0.38403838  0.75501798  1
  Pb  Pb194  1  0.25602174  0.71841071  0.73665354  1
  Pb  Pb195  1  0.75936344  0.05188526  0.73940308  1
  Pb  Pb196  1  0.75087805  0.38179355  0.74780024  1
  Pb  Pb197  1  0.75216208  0.71433643  0.76299390  1
  Pb  Pb198  1  0.24988418  0.28561662  0.25966608  1
  Pb  Pb199  1  0.24274714  0.61484789  0.25933924  1
  Pb  Pb200  1  0.24474107  0.94816389  0.24802596  1
  Pb  Pb201  1  0.74682463  0.28276429  0.24443019  1
  Pb  Pb202  1  0.74406099  0.61817081  0.24208016  1
  Pb  Pb203  1  0.74529422  0.95112732  0.25047129  1
  Pb  Pb204  1  0.00343825  0.21730848  0.74311387  1
  Pb  Pb205  1  0.00672573  0.55179478  0.75912939  1
  Pb  Pb206  1  0.00227067  0.88141404  0.75071345  1
  Pb  Pb207  1  0.49922339  0.21370219  0.74876546  1
  Pb  Pb208  1  0.50596282  0.54948637  0.74148531  1
  Pb  Pb209  1  0.50911078  0.88413457  0.75239699  1
  Pb  Pb210  1  -0.00423464  0.11668018  0.24112276  1
  Pb  Pb211  1  -0.00660907  0.45016683  0.25850987  1
  Pb  Pb212  1  -0.00453726  0.78202619  0.24622294  1
  Pb  Pb213  1  0.49104705  0.11586636  0.25888414  1
  Pb  Pb214  1  0.50088078  0.45268055  0.24003466  1
  Pb  Pb215  1  0.50009482  0.78509506  0.25664133  1
  C  C216  1  0.00760856  0.04391871  0.62681043  1
  C  C217  1  -0.00332887  0.37833951  0.63008077  1
  C  C218  1  -0.00510149  0.71304325  0.63358509  1
  C  C219  1  0.50134974  0.04438034  0.62898412  1
  C  C220  1  0.49935464  0.37884534  0.63400669  1
  C  C221  1  0.49616740  0.71414352  0.63208546  1
  C  C222  1  0.00834964  0.28815964  0.13142924  1
  C  C223  1  -0.00378313  0.62380441  0.12980140  1
  C  C224  1  -0.00306451  0.95264007  0.13265637  1
  C  C225  1  0.50278368  0.28637114  0.13304534  1
  C  C226  1  0.49227945  0.62254405  0.13047709  1
  C  C227  1  0.49784887  0.95330125  0.12679939  1
  C  C228  1  0.00386432  0.04214252  0.86626401  1
  C  C229  1  0.00328812  0.37944605  0.87142012  1
  C  C230  1  0.00076076  0.71407324  0.87020086  1
  C  C231  1  0.50370579  0.04508594  0.86717505  1
  C  C232  1  0.50002888  0.37698711  0.86695690  1
  C  C233  1  0.50339051  0.71368961  0.86833571  1
  C  C234  1  0.00550730  0.28914084  0.36972933  1
  C  C235  1  -0.00181477  0.62032959  0.37005827  1
  C  C236  1  -0.00395464  0.95444403  0.36644090  1
  C  C237  1  0.49990607  0.29035571  0.37282269  1
  C  C238  1  0.49394679  0.62397435  0.36785616  1
  C  C239  1  0.50392178  0.95525445  0.36885362  1
  C  C240  1  0.24625276  0.21014937  0.63583785  1
  C  C241  1  0.25350684  0.54432425  0.63492270  1
  C  C242  1  0.25186715  0.88087412  0.63237074  1
  C  C243  1  0.75015831  0.21289336  0.62635270  1
  C  C244  1  0.75418831  0.54384310  0.62820351  1
  C  C245  1  0.75614345  0.87731210  0.63100520  1
  C  C246  1  0.24214051  0.12255080  0.13515177  1
  C  C247  1  0.25231828  0.45463381  0.13134044  1
  C  C248  1  0.24687379  0.78621901  0.12434842  1
  C  C249  1  0.74982929  0.12094473  0.13200626  1
  C  C250  1  0.74800139  0.45328260  0.12499479  1
  C  C251  1  0.75140018  0.79111911  0.13044752  1
  C  C252  1  0.24262317  0.21293975  0.86872536  1
  C  C253  1  0.25306124  0.54531684  0.87252320  1
  C  C254  1  0.24917062  0.87689109  0.87209398  1
  C  C255  1  0.74549926  0.21200449  0.86619309  1
  C  C256  1  0.75436254  0.54516558  0.86966921  1
  C  C257  1  0.75713605  0.88003428  0.86773736  1
  C  C258  1  0.24459975  0.11926455  0.37279039  1
  C  C259  1  0.25250409  0.45355960  0.36503062  1
  C  C260  1  0.25397562  0.79134542  0.36886371  1
  C  C261  1  0.74880653  0.12365650  0.36815190  1
  C  C262  1  0.75359443  0.45344324  0.37501913  1
  C  C263  1  0.75404361  0.79015302  0.36847465  1
  C  C264  1  0.68423038  0.09112881  0.45090978  1
  C  C265  1  0.31030157  0.42820858  0.45337557  1
  C  C266  1  0.27234853  0.08508536  0.46694753  1
  C  C267  1  0.07712232  0.07080515  0.54415064  1
  C  C268  1  0.56148641  0.59293075  0.44930780  1
  C  C269  1  0.48919603  0.40665319  0.96378456  1
  C  C270  1  0.67802540  0.09900555  0.04929144  1
  C  C271  1  0.22495830  0.09527670  0.03742285  1
  C  C272  1  0.77512393  0.23941171  0.96186475  1
  C  C273  1  0.78771016  0.42467053  0.46752648  1
  C  C274  1  0.75656807  0.09467578  0.03285205  1
  C  C275  1  0.29101121  0.23192749  0.54210422  1
  C  C276  1  0.93279650  0.40256981  0.95454848  1
  C  C277  1  0.01183387  0.40796570  0.96963701  1
  C  C278  1  0.31942199  0.76428862  0.45372416  1
  C  C279  1  0.93319399  0.73826853  0.54673245  1
  C  C280  1  0.06319682  0.26155672  0.04383944  1
  C  C281  1  0.53052646  0.59489181  0.03748827  1
  C  C282  1  0.77210551  0.24617630  0.53230886  1
  C  C283  1  0.52680581  0.92411034  0.46331321  1
  C  C284  1  0.71856767  0.42225327  0.02979054  1
  C  C285  1  0.80303164  0.76072842  0.45706645  1
  C  C286  1  0.70747448  0.42666662  0.46500836  1
  C  C287  1  0.22117397  0.90857093  0.53716903  1
  C  C288  1  0.54778876  0.07436977  0.95765566  1
  C  C289  1  0.45605367  0.74294451  0.54057073  1
  C  C290  1  0.03596733  0.92431273  0.45715216  1
  C  C291  1  0.69339071  0.23734076  0.95686986  1
  C  C292  1  0.03894822  0.06910446  0.96038894  1
  C  C293  1  0.93855460  0.58937574  0.04439732  1
  C  C294  1  0.22888144  0.42526415  0.46154752  1
  C  C295  1  0.30561073  0.09896674  0.04840582  1
  C  C296  1  0.23260838  0.91074314  0.96646288  1
  C  C297  1  0.01421887  0.74240755  0.53696253  1
  C  C298  1  0.23520993  0.75630727  0.02729246  1
  C  C299  1  0.55856610  0.07011361  0.53978770  1
  C  C300  1  0.20913033  0.23565780  0.54108696  1
  C  C301  1  0.80037420  0.57101309  0.53760813  1
  C  C302  1  0.69070474  0.75552824  0.04682285  1
  C  C303  1  0.00865397  0.59126939  0.46711957  1
  C  C304  1  0.29090848  0.57244846  0.54171983  1
  C  C305  1  0.31496359  0.76081205  0.03972110  1
  C  C306  1  0.94162324  0.25677323  0.45361464  1
  C  C307  1  0.48123248  0.25784300  0.03595683  1
  C  C308  1  0.56174630  0.26095367  0.04548913  1
  C  C309  1  0.44816526  0.74046004  0.95570925  1
  C  C310  1  0.30242267  0.90753537  0.54138680  1
  C  C311  1  0.47768374  0.07337523  0.53318439  1
  N  N312  1  0.79726548  0.42491772  0.03612888  1
  N  N313  1  0.93149693  0.59250765  0.45192417  1
  N  N314  1  0.99981880  0.07723095  0.53257641  1
  N  N315  1  0.19167034  0.24040028  0.95587993  1
  N  N316  1  0.21138254  0.57368018  0.54460257  1
  N  N317  1  0.52455476  0.74374881  0.96556055  1
  N  N318  1  0.69516030  0.24100512  0.53712282  1
  N  N319  1  0.95733451  0.92574899  0.03945746  1
  N  N320  1  0.52786946  0.40807856  0.53921501  1
  N  N321  1  0.30926245  0.90854523  0.95799839  1
  N  N322  1  0.45258387  0.59546535  0.03633665  1
  N  N323  1  0.78252942  0.57713817  0.96399231  1
  N  N324  1  0.26248638  0.42242842  0.03781577  1
  N  N325  1  0.95681171  0.92347134  0.45932803  1
  N  N326  1  0.76866914  0.75549887  0.03794028  1
  N  N327  1  0.70507041  0.57577304  0.95610765  1
  N  N328  1  0.01819761  0.41137784  0.53808722  1
  N  N329  1  0.56654547  0.40417974  0.94904583  1
  N  N330  1  0.94060785  0.40918173  0.54360614  1
  N  N331  1  0.44981311  0.92715322  0.45827803  1
  N  N332  1  0.24059917  0.58247387  0.96458854  1
  N  N333  1  0.24161177  0.75968390  0.46344949  1
  N  N334  1  0.78677375  0.90771885  0.96283109  1
  N  N335  1  0.95934918  0.06995996  0.95656503  1
  N  N336  1  0.79331308  0.91181233  0.53990414  1
  N  N337  1  0.98868879  0.74558791  0.96372059  1
  N  N338  1  0.18573732  0.42628014  0.04821025  1
  N  N339  1  0.06545364  0.74255399  0.95411319  1
  N  N340  1  0.71045426  0.90658277  0.95905780  1
  N  N341  1  0.01684078  0.58972124  0.03717630  1
  N  N342  1  0.19428520  0.08876284  0.46084469  1
  N  N343  1  0.48351812  0.58874998  0.46183442  1
  N  N344  1  0.31722819  0.56915307  0.95582119  1
  N  N345  1  0.48649409  0.25419546  0.46543271  1
  N  N346  1  0.01952559  0.25433708  0.46300933  1
  N  N347  1  0.76172317  0.08891350  0.46163018  1
  N  N348  1  0.72610420  0.75862698  0.46400859  1
  N  N349  1  0.26913840  0.24235811  0.96394079  1
  N  N350  1  0.72278001  0.57307774  0.53254153  1
  N  N351  1  0.45249480  0.91848517  0.03990970  1
  N  N352  1  0.46861137  0.07545265  0.96139283  1
  N  N353  1  0.98641215  0.25842919  0.03445850  1
  N  N354  1  0.45195512  0.40663727  0.54344049  1
  N  N355  1  0.53067053  0.92979997  0.03271402  1
  N  N356  1  0.03361746  0.92466091  0.03917971  1
  N  N357  1  0.56292299  0.26816883  0.45729988  1
  N  N358  1  0.71716293  0.91120263  0.54020065  1
  N  N359  1  0.53528510  0.74287294  0.53827899  1
  N  N360  1  0.08210237  0.05215332  0.60352297  1
  N  N361  1  0.05416652  0.39027196  0.58945962  1
  N  N362  1  0.05132949  0.72644630  0.59145443  1
  N  N363  1  0.57182574  0.05246186  0.60079482  1
  N  N364  1  0.55880617  0.39124991  0.59522501  1
  N  N365  1  0.55854195  0.72493872  0.59552077  1
  N  N366  1  0.44539532  0.27436666  0.09187666  1
  N  N367  1  0.42864632  0.61291151  0.09546336  1
  N  N368  1  0.43175308  0.94298448  0.09442345  1
  N  N369  1  0.95228120  0.27549786  0.09034000  1
  N  N370  1  0.92563905  0.60969770  0.10205389  1
  N  N371  1  0.93304781  0.94259812  0.09749346  1
  N  N372  1  0.44276008  0.05710109  0.90459707  1
  N  N373  1  0.44743903  0.39042429  0.91261903  1
  N  N374  1  0.43232576  0.72266232  0.89672130  1
  N  N375  1  0.93786189  0.04994127  0.89922139  1
  N  N376  1  0.92841733  0.38545989  0.89501339  1
  N  N377  1  0.94751036  0.72605959  0.91398330  1
  N  N378  1  0.06023256  0.27639536  0.41219008  1
  N  N379  1  0.05068967  0.60795041  0.41616920  1
  N  N380  1  0.06175001  0.94297852  0.40037108  1
  N  N381  1  0.57166422  0.28159698  0.39744698  1
  N  N382  1  0.56770895  0.61304492  0.39076998  1
  N  N383  1  0.56228581  0.94111582  0.40970890  1
  N  N384  1  0.31270082  0.21637968  0.60133121  1
  N  N385  1  0.31740646  0.55601976  0.59827927  1
  N  N386  1  0.32022134  0.89015236  0.60158339  1
  N  N387  1  0.80794655  0.22896652  0.58568404  1
  N  N388  1  0.82196642  0.55393613  0.59592779  1
  N  N389  1  0.81915786  0.89094621  0.59616208  1
  N  N390  1  0.18648613  0.11000250  0.09200743  1
  N  N391  1  0.18015722  0.44414513  0.10701409  1
  N  N392  1  0.19409838  0.77147609  0.07826258  1
  N  N393  1  0.67435486  0.11452739  0.10918506  1
  N  N394  1  0.68769913  0.43977867  0.08504727  1
  N  N395  1  0.67989307  0.77684619  0.10430627  1
  N  N396  1  0.17426629  0.22236165  0.89831874  1
  N  N397  1  0.20028588  0.55756758  0.91681918  1
  N  N398  1  0.19353914  0.89188793  0.91491228  1
  N  N399  1  0.67667661  0.22059241  0.89704936  1
  N  N400  1  0.68644561  0.55602296  0.89929500  1
  N  N401  1  0.69078015  0.88954924  0.90013679  1
  N  N402  1  0.30407867  0.10412915  0.41283644  1
  N  N403  1  0.32328743  0.44560931  0.39336982  1
  N  N404  1  0.32712503  0.78247537  0.39464968  1
  N  N405  1  0.80254259  0.11230299  0.41158609  1
  N  N406  1  0.81669737  0.44078564  0.41258388  1
  N  N407  1  0.82317635  0.77909860  0.39902354  1
  N  N408  1  0.44644813  0.27742635  0.41642546  1
  N  N409  1  0.44172362  0.61209386  0.41253479  1
  N  N410  1  0.43529916  0.94682395  0.39826751  1
  N  N411  1  0.93287687  0.27758691  0.39568370  1
  N  N412  1  0.92564727  0.61016447  0.39223092  1
  N  N413  1  0.93357205  0.94216448  0.40239637  1
  N  N414  1  0.06678769  0.05399214  0.90394428  1
  N  N415  1  0.05508836  0.39334953  0.91623204  1
  N  N416  1  0.07245953  0.72455502  0.89535384  1
  N  N417  1  0.57043859  0.05631036  0.89980692  1
  N  N418  1  0.57271445  0.38390478  0.89029374  1
  N  N419  1  0.55916601  0.72641059  0.90965737  1
  N  N420  1  0.07924727  0.27899466  0.10315066  1
  N  N421  1  0.05355132  0.61330882  0.08876078  1
  N  N422  1  0.05971786  0.94137272  0.09673370  1
  N  N423  1  0.57459056  0.27797711  0.10422025  1
  N  N424  1  0.55660322  0.61083708  0.09455666  1
  N  N425  1  0.55937661  0.94015038  0.09049508  1
  N  N426  1  0.44335382  0.05788795  0.58683684  1
  N  N427  1  0.43254885  0.38845308  0.60205825  1
  N  N428  1  0.43063129  0.72567878  0.59818128  1
  N  N429  1  0.95633690  0.05763549  0.58245498  1
  N  N430  1  0.92783020  0.39028357  0.60127360  1
  N  N431  1  0.92293872  0.72024574  0.60687313  1
  N  N432  1  0.17645233  0.11024474  0.40255690  1
  N  N433  1  0.19428778  0.44114763  0.40602438  1
  N  N434  1  0.20028099  0.77907572  0.41204148  1
  N  N435  1  0.67569515  0.11116544  0.39261689  1
  N  N436  1  0.68603025  0.44403328  0.40861978  1
  N  N437  1  0.69548498  0.77778986  0.40754373  1
  N  N438  1  0.30032985  0.22585800  0.90931246  1
  N  N439  1  0.32522159  0.55538236  0.89587823  1
  N  N440  1  0.31955755  0.88699160  0.89802187  1
  N  N441  1  0.80637592  0.22377292  0.90513134  1
  N  N442  1  0.81277134  0.55887931  0.90948336  1
  N  N443  1  0.81708457  0.89135361  0.90642151  1
  N  N444  1  0.31457049  0.11569683  0.10907129  1
  N  N445  1  0.30459742  0.44194778  0.08713494  1
  N  N446  1  0.32033159  0.77895257  0.10127527  1
  N  N447  1  0.80085721  0.10907491  0.08598592  1
  N  N448  1  0.81557609  0.44417741  0.09474986  1
  N  N449  1  0.80717595  0.77944769  0.08847981  1
  N  N450  1  0.18268011  0.22217050  0.59973637  1
  N  N451  1  0.18837773  0.55345030  0.60116424  1
  N  N452  1  0.19069042  0.89258784  0.59211764  1
  N  N453  1  0.68123543  0.21995890  0.59701468  1
  N  N454  1  0.69411597  0.55506217  0.59009789  1
  N  N455  1  0.69248208  0.88962429  0.59647416  1
  Cl  Cl456  1  0.26166816  0.05399878  0.61827364  1
  Cl  Cl457  1  0.23955404  0.39346876  0.61987821  1
  Cl  Cl458  1  0.23790598  0.72588836  0.59954941  1
  Cl  Cl459  1  0.77410418  0.06642007  0.60076038  1
  Cl  Cl460  1  0.74378142  0.38326443  0.61670055  1
  Cl  Cl461  1  0.73939971  0.71324963  0.63322967  1
  Cl  Cl462  1  0.26075306  0.28189171  0.12754961  1
  Cl  Cl463  1  0.23798516  0.60137013  0.10641739  1
  Cl  Cl464  1  0.24750165  0.93849079  0.11329566  1
  Cl  Cl465  1  0.76626164  0.28051870  0.11018333  1
  Cl  Cl466  1  0.73974333  0.61427974  0.10836108  1
  Cl  Cl467  1  0.74407026  0.94890663  0.11723311  1
  Cl  Cl468  1  0.25300134  0.05477912  0.88654669  1
  Cl  Cl469  1  0.25890004  0.39517154  0.89883688  1
  Cl  Cl470  1  0.25183993  0.71017037  0.86652737  1
  Cl  Cl471  1  0.75561955  0.05795772  0.87418030  1
  Cl  Cl472  1  0.74959241  0.39554326  0.88199264  1
  Cl  Cl473  1  0.76057189  0.72696502  0.90166467  1
  Cl  Cl474  1  0.25460441  0.26925596  0.39547004  1
  Cl  Cl475  1  0.24128575  0.60611417  0.39960976  1
  Cl  Cl476  1  0.24772179  0.94827717  0.37997416  1
  Cl  Cl477  1  0.75110556  0.28595542  0.37619946  1
  Cl  Cl478  1  0.74688551  0.61750955  0.37267704  1
  Cl  Cl479  1  0.74719913  0.94868522  0.38249977  1
  Cl  Cl480  1  -0.00277562  0.22685838  0.60437270  1
  Cl  Cl481  1  0.00652637  0.55605338  0.62048371  1
  Cl  Cl482  1  0.00504755  0.89190603  0.61612734  1
  Cl  Cl483  1  0.49514459  0.22833704  0.61096132  1
  Cl  Cl484  1  0.50271728  0.56230935  0.60346427  1
  Cl  Cl485  1  0.50858171  0.88906657  0.62159440  1
  Cl  Cl486  1  -0.00670545  0.10607699  0.10509686  1
  Cl  Cl487  1  -0.00325646  0.45243698  0.12528422  1
  Cl  Cl488  1  -0.00684964  0.76978241  0.10323754  1
  Cl  Cl489  1  0.49574016  0.11490023  0.13159884  1
  Cl  Cl490  1  0.49458224  0.44379798  0.10287397  1
  Cl  Cl491  1  0.50159145  0.78765373  0.12951745  1
  Cl  Cl492  1  -0.00716769  0.21620898  0.87425156  1
  Cl  Cl493  1  0.01467865  0.56394454  0.89915499  1
  Cl  Cl494  1  0.00493938  0.88821292  0.88279478  1
  Cl  Cl495  1  0.48481692  0.22373162  0.88194757  1
  Cl  Cl496  1  0.50517585  0.54738254  0.87483352  1
  Cl  Cl497  1  0.50604119  0.89070784  0.88935967  1
  Cl  Cl498  1  -0.01350873  0.10714655  0.39669018  1
  Cl  Cl499  1  0.01001626  0.44106801  0.39587558  1
  Cl  Cl500  1  0.01557039  0.77361147  0.38097087  1
  Cl  Cl501  1  0.48946777  0.11390906  0.39380308  1
  Cl  Cl502  1  0.50455486  0.45253284  0.36842011  1
  Cl  Cl503  1  0.50947264  0.78142250  0.38933443  1
  Cl  Cl504  1  0.35664857  0.15282834  0.75170127  1
  Cl  Cl505  1  0.35798757  0.47926928  0.75409050  1
  Cl  Cl506  1  0.36179346  0.81279473  0.74974985  1
  Cl  Cl507  1  0.85343655  0.15120585  0.74865386  1
  Cl  Cl508  1  0.86082870  0.48053548  0.75026342  1
  Cl  Cl509  1  0.85956925  0.81375455  0.74751872  1
  Cl  Cl510  1  0.13553131  0.18636001  0.25917587  1
  Cl  Cl511  1  0.14297121  0.51964205  0.24939480  1
  Cl  Cl512  1  0.14672884  0.84883212  0.24688208  1
  Cl  Cl513  1  0.63754547  0.18817455  0.24981486  1
  Cl  Cl514  1  0.64593525  0.51648489  0.24450316  1
  Cl  Cl515  1  0.64436255  0.85046667  0.24811926  1
  Cl  Cl516  1  0.13690097  0.14614056  0.74967446  1
  Cl  Cl517  1  0.13939435  0.48275182  0.75616070  1
  Cl  Cl518  1  0.14154804  0.81620858  0.74936153  1
  Cl  Cl519  1  0.63386545  0.14447836  0.73758210  1
  Cl  Cl520  1  0.64050107  0.48291029  0.75111473  1
  Cl  Cl521  1  0.63805885  0.81363287  0.76167605  1
  Cl  Cl522  1  0.35691558  0.18262272  0.25110602  1
  Cl  Cl523  1  0.36337218  0.52021523  0.24881285  1
  Cl  Cl524  1  0.36652062  0.85384635  0.25186004  1
  Cl  Cl525  1  0.86139871  0.18357664  0.25323393  1
  Cl  Cl526  1  0.86356344  0.52167505  0.25090986  1
  Cl  Cl527  1  0.86499888  0.85377133  0.25367985  1
  Cl  Cl528  1  0.10623076  0.31415695  0.74940131  1
  Cl  Cl529  1  0.10829317  0.64830068  0.74757379  1
  Cl  Cl530  1  0.11466539  0.98181573  0.74492498  1
  Cl  Cl531  1  0.61487642  0.31133444  0.75886255  1
  Cl  Cl532  1  0.60152435  0.64863656  0.75447199  1
  Cl  Cl533  1  0.61318958  0.97974570  0.74496644  1
  Cl  Cl534  1  0.39076425  0.01905514  0.25108948  1
  Cl  Cl535  1  0.39348775  0.35083843  0.25463105  1
  Cl  Cl536  1  0.38772636  0.68823971  0.24916021  1
  Cl  Cl537  1  0.89495720  0.01977060  0.24941251  1
  Cl  Cl538  1  0.89597716  0.35150793  0.25231882  1
  Cl  Cl539  1  0.89223337  0.68712882  0.25189273  1
  Cl  Cl540  1  0.39002695  0.31684598  0.74467969  1
  Cl  Cl541  1  0.38282707  0.64347795  0.74223390  1
  Cl  Cl542  1  0.39370463  0.98311296  0.75255172  1
  Cl  Cl543  1  0.88710468  0.31516182  0.75228755  1
  Cl  Cl544  1  0.88816059  0.64835981  0.75359070  1
  Cl  Cl545  1  0.89493536  0.98535442  0.74981762  1
  Cl  Cl546  1  0.11307079  0.02055859  0.25141486  1
  Cl  Cl547  1  0.11458617  0.35497039  0.24871013  1
  Cl  Cl548  1  0.11098297  0.68221214  0.24729666  1
  Cl  Cl549  1  0.61044112  0.02030573  0.24980946  1
  Cl  Cl550  1  0.61374543  0.35227693  0.24545253  1
  Cl  Cl551  1  0.60720423  0.68233869  0.24986617  1
