# generated using pymatgen
data_H8PbC4(N3Cl2)2
_symmetry_space_group_name_H-M   'P 1'
_cell_length_a   16.63226691
_cell_length_b   22.52875064
_cell_length_c   21.60059273
_cell_angle_alpha   89.99863457
_cell_angle_beta   90.04412188
_cell_angle_gamma   90.00739916
_symmetry_Int_Tables_number   1
_chemical_formula_structural   H8PbC4(N3Cl2)2
_chemical_formula_sum   'H192 Pb24 C96 N144 Cl96'
_cell_volume   8093.83021275
_cell_formula_units_Z   24
loop_
 _symmetry_equiv_pos_site_id
 _symmetry_equiv_pos_as_xyz
  1  'x, y, z'
loop_
 _atom_site_type_symbol
 _atom_site_label
 _atom_site_symmetry_multiplicity
 _atom_site_fract_x
 _atom_site_fract_y
 _atom_site_fract_z
 _atom_site_occupancy
  H  H0  1  0.00494540  0.02792890  0.67623916  1
  H  H1  1  -0.02679703  0.35728999  0.67306387  1
  H  H2  1  0.00213509  0.69421106  0.67444247  1
  H  H3  1  0.50676072  0.02820503  0.67691346  1
  H  H4  1  0.52263826  0.35822066  0.67158611  1
  H  H5  1  0.48508944  0.69427026  0.67859625  1
  H  H6  1  0.01863062  0.30731451  0.17763558  1
  H  H7  1  -0.00762805  0.64250027  0.17518254  1
  H  H8  1  0.00622591  0.97202582  0.17928577  1
  H  H9  1  0.49189291  0.30716538  0.18000147  1
  H  H10  1  0.51013873  0.64728341  0.17090353  1
  H  H11  1  0.50312426  0.97257773  0.17770787  1
  H  H12  1  -0.00130661  0.03140768  0.82211843  1
  H  H13  1  0.00850886  0.36403592  0.82138449  1
  H  H14  1  0.00507806  0.69109283  0.82565489  1
  H  H15  1  0.50975935  0.03165104  0.81333471  1
  H  H16  1  0.49970943  0.36124559  0.83018070  1
  H  H17  1  0.48631698  0.70050079  0.82396352  1
  H  H18  1  0.00400749  0.30620832  0.32689846  1
  H  H19  1  0.01579419  0.63408066  0.32077190  1
  H  H20  1  0.01159278  0.97244745  0.32479319  1
  H  H21  1  0.48807245  0.29851794  0.32944813  1
  H  H22  1  0.48371656  0.63348062  0.32458925  1
  H  H23  1  0.49472121  0.97574020  0.31814396  1
  H  H24  1  0.26005533  0.19281834  0.67423757  1
  H  H25  1  0.23625640  0.53321574  0.68805179  1
  H  H26  1  0.27035301  0.86216096  0.67654865  1
  H  H27  1  0.74649651  0.19401581  0.67704483  1
  H  H28  1  0.75567775  0.53310796  0.67508462  1
  H  H29  1  0.73128497  0.86541570  0.67877525  1
  H  H30  1  0.26779087  0.13584993  0.17093229  1
  H  H31  1  0.26144157  0.47737686  0.17707891  1
  H  H32  1  0.24399782  0.81106847  0.17353155  1
  H  H33  1  0.72665722  0.14397025  0.17644541  1
  H  H34  1  0.74266210  0.46897700  0.17633150  1
  H  H35  1  0.75513182  0.80425306  0.18022345  1
  H  H36  1  0.25156894  0.19205467  0.82537210  1
  H  H37  1  0.25846884  0.52791083  0.82463174  1
  H  H38  1  0.26032127  0.85399431  0.82636826  1
  H  H39  1  0.75148227  0.19858120  0.81888211  1
  H  H40  1  0.74761859  0.52600572  0.81872776  1
  H  H41  1  0.75247850  0.85655071  0.82211153  1
  H  H42  1  0.25355585  0.14472981  0.32550938  1
  H  H43  1  0.24414659  0.46644525  0.32107624  1
  H  H44  1  0.26544606  0.80284055  0.32110539  1
  H  H45  1  0.75158482  0.13715207  0.32161551  1
  H  H46  1  0.74888801  0.47355174  0.31773948  1
  H  H47  1  0.73834738  0.80275006  0.32219441  1
  H  H48  1  0.11114371  0.05806286  0.59311309  1
  H  H49  1  0.11848815  0.37914481  0.62840722  1
  H  H50  1  0.12719603  0.72357041  0.60747222  1
  H  H51  1  0.61523673  0.06167754  0.59821920  1
  H  H52  1  0.61725872  0.39603592  0.58419357  1
  H  H53  1  0.63025985  0.71423863  0.63608437  1
  H  H54  1  0.37029230  0.27895186  0.10623598  1
  H  H55  1  0.36584728  0.62208434  0.12671456  1
  H  H56  1  0.37390148  0.94538140  0.11214874  1
  H  H57  1  0.87453354  0.28589324  0.13124591  1
  H  H58  1  0.86857980  0.61250955  0.10537626  1
  H  H59  1  0.87563316  0.94701953  0.11469844  1
  H  H60  1  0.38013776  0.05057792  0.87850758  1
  H  H61  1  0.37854684  0.38709025  0.90030647  1
  H  H62  1  0.38147392  0.72553404  0.90785595  1
  H  H63  1  0.88123722  0.05811001  0.89850882  1
  H  H64  1  0.87771631  0.38627070  0.88520306  1
  H  H65  1  0.88475218  0.72490019  0.89474254  1
  H  H66  1  0.13389513  0.27726821  0.38978943  1
  H  H67  1  0.12200637  0.61044675  0.40385429  1
  H  H68  1  0.12587196  0.94253763  0.40202611  1
  H  H69  1  0.63080791  0.28348818  0.37478277  1
  H  H70  1  0.62834418  0.61721735  0.37273834  1
  H  H71  1  0.62510073  0.94699685  0.37883067  1
  H  H72  1  0.36535259  0.22748052  0.59305909  1
  H  H73  1  0.36746012  0.55003858  0.62482418  1
  H  H74  1  0.37081662  0.89431383  0.59062590  1
  H  H75  1  0.86242485  0.22221681  0.60283324  1
  H  H76  1  0.86744568  0.56120268  0.59495013  1
  H  H77  1  0.87359061  0.87918855  0.63074347  1
  H  H78  1  0.12217537  0.12138818  0.12468727  1
  H  H79  1  0.12521086  0.45250844  0.11889286  1
  H  H80  1  0.12298160  0.77702861  0.10222398  1
  H  H81  1  0.62982669  0.10790561  0.08968521  1
  H  H82  1  0.62559648  0.44345251  0.09949252  1
  H  H83  1  0.62058110  0.78188824  0.12066250  1
  H  H84  1  0.14022300  0.22441534  0.90359906  1
  H  H85  1  0.13801096  0.55630946  0.89523122  1
  H  H86  1  0.12785018  0.88197044  0.88656806  1
  H  H87  1  0.63112080  0.22444026  0.89035367  1
  H  H88  1  0.64280103  0.55566407  0.90255251  1
  H  H89  1  0.62813988  0.88600956  0.89029242  1
  H  H90  1  0.38476333  0.11671949  0.38892343  1
  H  H91  1  0.37425482  0.44408697  0.38385287  1
  H  H92  1  0.36113324  0.77148597  0.41147785  1
  H  H93  1  0.88566639  0.11625276  0.38508974  1
  H  H94  1  0.87470019  0.45736518  0.38987890  1
  H  H95  1  0.86626686  0.77824888  0.38971408  1
  H  H96  1  0.38991081  0.26973643  0.41573173  1
  H  H97  1  0.38490651  0.60552350  0.41197539  1
  H  H98  1  0.37669613  0.94733792  0.39380473  1
  H  H99  1  0.88534572  0.27793702  0.39928705  1
  H  H100  1  0.87623797  0.61773399  0.37411624  1
  H  H101  1  0.87816507  0.94809033  0.38550977  1
  H  H102  1  0.12930705  0.05194421  0.88655689  1
  H  H103  1  0.12558660  0.38913691  0.89919996  1
  H  H104  1  0.13356848  0.71891316  0.89087572  1
  H  H105  1  0.62908025  0.05525797  0.88708231  1
  H  H106  1  0.62728852  0.38665498  0.89312243  1
  H  H107  1  0.62537811  0.71640675  0.87472374  1
  H  H108  1  0.11475916  0.27491358  0.08859978  1
  H  H109  1  0.11773259  0.61502833  0.10876277  1
  H  H110  1  0.12413414  0.94339996  0.10550707  1
  H  H111  1  0.61935890  0.28424860  0.11211451  1
  H  H112  1  0.60828758  0.60731160  0.08688002  1
  H  H113  1  0.62281444  0.94367420  0.10489427  1
  H  H114  1  0.36858615  0.05126526  0.62044402  1
  H  H115  1  0.37657218  0.37651885  0.62766709  1
  H  H116  1  0.38983671  0.72965693  0.58963681  1
  H  H117  1  0.86564381  0.05001074  0.62286777  1
  H  H118  1  0.87864478  0.39324298  0.58384378  1
  H  H119  1  0.87826939  0.72016727  0.60385270  1
  H  H120  1  0.13683367  0.11139974  0.39949864  1
  H  H121  1  0.12600098  0.44243183  0.39538737  1
  H  H122  1  0.12076076  0.78625890  0.36547924  1
  H  H123  1  0.63848017  0.11009542  0.40079037  1
  H  H124  1  0.62864772  0.43873852  0.38629644  1
  H  H125  1  0.61764358  0.77727476  0.39535362  1
  H  H126  1  0.38664757  0.22367934  0.87955363  1
  H  H127  1  0.38612965  0.54848828  0.88926867  1
  H  H128  1  0.37574573  0.88810499  0.89973573  1
  H  H129  1  0.87913165  0.21847437  0.88384297  1
  H  H130  1  0.88779936  0.55147006  0.87085682  1
  H  H131  1  0.87654135  0.88493357  0.89260722  1
  H  H132  1  0.36192442  0.10155544  0.08283555  1
  H  H133  1  0.37105890  0.44433317  0.09637961  1
  H  H134  1  0.37113334  0.77850672  0.10826669  1
  H  H135  1  0.87110254  0.12216062  0.13263208  1
  H  H136  1  0.87343895  0.44508966  0.11157386  1
  H  H137  1  0.86811289  0.77598585  0.10059814  1
  H  H138  1  0.12030072  0.21394266  0.62072961  1
  H  H139  1  0.11865949  0.55375390  0.61174636  1
  H  H140  1  0.12777615  0.88574120  0.62973403  1
  H  H141  1  0.61352160  0.21736031  0.61699408  1
  H  H142  1  0.62025549  0.55271393  0.61603944  1
  H  H143  1  0.63058182  0.89531927  0.59330066  1
  H  H144  1  0.06492882  0.42120737  0.99861778  1
  H  H145  1  0.86430362  0.08567019  0.02139153  1
  H  H146  1  0.85314485  0.08637966  0.49206953  1
  H  H147  1  0.57715409  0.07768353  0.99801149  1
  H  H148  1  0.17405189  0.57282617  0.50065666  1
  H  H149  1  0.02751879  0.25117034  -0.00732530  1
  H  H150  1  0.82545931  0.91358968  0.99534755  1
  H  H151  1  0.34433186  0.08727295  0.49425002  1
  H  H152  1  0.54521931  0.09545476  0.49534181  1
  H  H153  1  0.09454672  0.24759438  0.49634421  1
  H  H154  1  0.41652295  0.07021770  0.99285741  1
  H  H155  1  0.71378696  0.08786922  -0.00747870  1
  H  H156  1  0.61237608  0.74667971  -0.00911098  1
  H  H157  1  0.17812412  0.41325250  0.50354408  1
  H  H158  1  0.86474571  0.90920591  0.51623649  1
  H  H159  1  0.12924754  0.08378378  0.01711132  1
  H  H160  1  0.06686139  0.90921662  0.00017872  1
  H  H161  1  0.91558321  0.58664716  0.00072717  1
  H  H162  1  0.62703953  0.74734347  0.52243833  1
  H  H163  1  0.52964207  0.41952656  0.48829534  1
  H  H164  1  0.63419063  0.24892491  0.49600814  1
  H  H165  1  0.34247699  0.41445611  0.49627663  1
  H  H166  1  0.47464858  0.75137749  0.49420394  1
  H  H167  1  0.12526171  0.75680349  0.48014063  1
  H  H168  1  0.61844379  0.58768994  0.48376844  1
  H  H169  1  0.05074267  0.58317178  0.51002326  1
  H  H170  1  0.58826532  0.90976317  0.48872884  1
  H  H171  1  0.43789628  0.92772932  0.49878971  1
  H  H172  1  0.46552360  0.57668243  0.51294629  1
  H  H173  1  0.71665055  0.58865717  1.00271166  1
  H  H174  1  0.27422303  0.08468988  -0.01400623  1
  H  H175  1  0.84215325  0.24904194  -0.00335103  1
  H  H176  1  0.83214733  0.41375415  0.00645645  1
  H  H177  1  0.69322952  0.38893553  0.47672462  1
  H  H178  1  0.07354473  0.58450485  -0.00198487  1
  H  H179  1  0.70832428  0.92228393  0.49044361  1
  H  H180  1  0.33388439  0.57227145  0.50977830  1
  H  H181  1  0.52465360  0.57884421  -0.00953272  1
  H  H182  1  0.92936360  0.75045436  0.49936264  1
  H  H183  1  0.96847351  0.41863425  0.49029165  1
  H  H184  1  0.57465891  0.25435874  0.00257049  1
  H  H185  1  0.81472675  0.45400176  0.49567845  1
  H  H186  1  0.28836071  0.92074798  0.49350567  1
  H  H187  1  0.27723813  0.75163078  0.50773343  1
  H  H188  1  0.80337326  0.25110234  0.49354513  1
  H  H189  1  0.56686553  0.90713619  0.00023204  1
  H  H190  1  0.35122134  0.58163770  0.00188612  1
  H  H191  1  0.20939288  0.25304276  1.00495731  1
  Pb  Pb192  1  0.24823602  0.04831997  0.74916480  1
  Pb  Pb193  1  0.25661778  0.38219498  0.75555071  1
  Pb  Pb194  1  0.25466098  0.71596373  0.74458484  1
  Pb  Pb195  1  0.75604780  0.05158675  0.75568083  1
  Pb  Pb196  1  0.75249629  0.38236084  0.73795111  1
  Pb  Pb197  1  0.75931546  0.71572992  0.75166102  1
  Pb  Pb198  1  0.24939527  0.28479594  0.24724507  1
  Pb  Pb199  1  0.24693238  0.61762218  0.26445653  1
  Pb  Pb200  1  0.24407696  0.94998338  0.25632739  1
  Pb  Pb201  1  0.74938924  0.28527664  0.25318934  1
  Pb  Pb202  1  0.74663678  0.61954315  0.23776825  1
  Pb  Pb203  1  0.74869221  0.95200612  0.24618063  1
  Pb  Pb204  1  0.00720270  0.21843364  0.75393064  1
  Pb  Pb205  1  0.00520283  0.54873989  0.74811427  1
  Pb  Pb206  1  0.00299010  0.88031545  0.75515571  1
  Pb  Pb207  1  0.50107753  0.21573352  0.74731581  1
  Pb  Pb208  1  0.50943576  0.55040798  0.75783651  1
  Pb  Pb209  1  0.50392243  0.88403085  0.74268597  1
  Pb  Pb210  1  0.00066541  0.11941132  0.25459064  1
  Pb  Pb211  1  -0.00200499  0.45214542  0.25326365  1
  Pb  Pb212  1  -0.00722363  0.78369780  0.24784821  1
  Pb  Pb213  1  0.49704079  0.11654796  0.24149039  1
  Pb  Pb214  1  0.49983712  0.45148831  0.24956525  1
  Pb  Pb215  1  0.49681758  0.78391318  0.26014237  1
  C  C216  1  -0.00610057  0.04463928  0.63005594  1
  C  C217  1  -0.01025694  0.37555086  0.62832040  1
  C  C218  1  0.00218671  0.71174226  0.62763099  1
  C  C219  1  0.49656558  0.04639840  0.63100113  1
  C  C220  1  0.50589901  0.37562997  0.62650874  1
  C  C221  1  0.50184183  0.71103863  0.63312101  1
  C  C222  1  0.00275059  0.29121098  0.13189423  1
  C  C223  1  -0.00767794  0.62440858  0.12851954  1
  C  C224  1  0.00179173  0.95438764  0.13268332  1
  C  C225  1  0.49355743  0.29076057  0.13280266  1
  C  C226  1  0.49510273  0.62738304  0.12665013  1
  C  C227  1  0.49986405  0.95413169  0.13137710  1
  C  C228  1  0.00287139  0.04645237  0.86955493  1
  C  C229  1  0.00420153  0.38000825  0.86861844  1
  C  C230  1  0.00801116  0.71060687  0.87128022  1
  C  C231  1  0.50609918  0.04516767  0.86149266  1
  C  C232  1  0.50195294  0.37868263  0.87712953  1
  C  C233  1  0.49879582  0.71399904  0.87115862  1
  C  C234  1  0.00833109  0.28810114  0.37321602  1
  C  C235  1  0.00470543  0.62027679  0.36801655  1
  C  C236  1  0.00496956  0.95493724  0.37103265  1
  C  C237  1  0.50373914  0.28384368  0.37576779  1
  C  C238  1  0.49989325  0.61873794  0.37100906  1
  C  C239  1  0.49831506  0.95825648  0.36500722  1
  C  C240  1  0.24814862  0.21000721  0.62849551  1
  C  C241  1  0.24106895  0.54589209  0.63969436  1
  C  C242  1  0.25634381  0.87939998  0.63108936  1
  C  C243  1  0.74100945  0.21092552  0.63020582  1
  C  C244  1  0.74800830  0.54864778  0.62805912  1
  C  C245  1  0.74579501  0.87988860  0.63208750  1
  C  C246  1  0.25048243  0.11991793  0.12522186  1
  C  C247  1  0.25261988  0.45907700  0.13105655  1
  C  C248  1  0.24604508  0.79093099  0.12792485  1
  C  C249  1  0.74253386  0.12631799  0.13107654  1
  C  C250  1  0.74754445  0.45266477  0.12921645  1
  C  C251  1  0.74814761  0.78831021  0.13335798  1
  C  C252  1  0.25939271  0.21104883  0.87090860  1
  C  C253  1  0.26138640  0.54397393  0.87180868  1
  C  C254  1  0.25434551  0.87409925  0.87152887  1
  C  C255  1  0.75467294  0.21325821  0.86653067  1
  C  C256  1  0.75996084  0.54318339  0.86472170  1
  C  C257  1  0.75271446  0.87539016  0.86826449  1
  C  C258  1  0.25876689  0.12489442  0.37102115  1
  C  C259  1  0.24838617  0.45073951  0.36854909  1
  C  C260  1  0.24907390  0.78840463  0.36752504  1
  C  C261  1  0.75901688  0.12127255  0.36866229  1
  C  C262  1  0.75100508  0.45727001  0.36502963  1
  C  C263  1  0.74091716  0.78659607  0.36927344  1
  C  C264  1  0.43254607  0.40453347  0.54643935  1
  C  C265  1  0.74533630  0.57533940  0.95933918  1
  C  C266  1  0.54639067  0.40936415  0.96610513  1
  C  C267  1  0.21567726  0.42375947  0.46391033  1
  C  C268  1  0.04905635  0.07081666  0.96107770  1
  C  C269  1  0.28123335  0.91268489  0.96203830  1
  C  C270  1  0.29081721  0.56524911  0.54691810  1
  C  C271  1  0.79945543  0.23926607  0.95962263  1
  C  C272  1  0.54061963  0.06764689  0.95764703  1
  C  C273  1  0.46632693  0.40964094  0.96835143  1
  C  C274  1  0.69598806  0.57473432  0.53919662  1
  C  C275  1  0.03067669  0.92026725  0.46375839  1
  C  C276  1  0.97546451  0.74880284  0.96047387  1
  C  C277  1  0.48963257  0.58940964  0.46793599  1
  C  C278  1  0.03437550  0.59455484  0.03703391  1
  C  C279  1  0.54742224  0.92476964  0.45274378  1
  C  C280  1  0.71796437  0.24085513  0.96042843  1
  C  C281  1  0.68792232  0.23721684  0.54070222  1
  C  C282  1  0.48118416  0.74112679  0.96826883  1
  C  C283  1  0.97354554  0.25330350  0.46568681  1
  C  C284  1  0.53420413  0.26344767  0.04114230  1
  C  C285  1  0.45876214  0.06479911  0.95495720  1
  C  C286  1  0.76948518  0.23944826  0.53490342  1
  C  C287  1  0.03102658  0.92211720  0.04011590  1
  C  C288  1  0.20915419  0.56584947  0.54246127  1
  C  C289  1  0.81393147  0.90229995  0.54731210  1
  C  C290  1  0.73411519  0.90846763  0.53437524  1
  C  C291  1  0.53076252  0.92080995  0.03962704  1
  C  C292  1  0.70723652  0.75931466  0.46329525  1
  C  C293  1  0.42529295  0.59346936  0.04688121  1
  C  C294  1  0.49312433  0.25489134  0.47265595  1
  C  C295  1  0.26405646  0.24573590  0.53502786  1
  C  C296  1  0.04562117  0.74376098  0.53632819  1
  C  C297  1  0.56167896  0.73827346  0.95854236  1
  C  C298  1  0.69701639  0.76007796  0.04493296  1
  C  C299  1  0.31618599  0.24839466  0.95539437  1
  C  C300  1  0.93651029  0.07287393  0.54404562  1
  C  C301  1  0.29752226  0.42410822  0.46001233  1
  C  C302  1  0.94188900  0.59610813  0.45426325  1
  C  C303  1  0.57428595  0.73960580  0.55318110  1
  C  C304  1  0.57256452  0.25905645  0.45945533  1
  C  C305  1  0.30667395  0.57195576  0.96415284  1
  C  C306  1  0.02180278  0.59367694  0.46617665  1
  C  C307  1  0.17731715  0.76386965  0.44912375  1
  C  C308  1  0.22523263  0.57451336  0.96471194  1
  C  C309  1  0.81288378  0.09513121  0.05127547  1
  C  C310  1  0.51536098  0.08078556  0.53754814  1
  C  C311  1  0.18827061  0.91359553  0.55014558  1
  N  N312  1  0.28792335  0.75273800  0.03968583  1
  N  N313  1  0.49703937  0.74500878  0.53889459  1
  N  N314  1  0.46800289  0.92649719  0.45736882  1
  N  N315  1  0.50893861  0.41113624  0.53283520  1
  N  N316  1  0.95170655  0.92321171  0.04281266  1
  N  N317  1  0.97142517  0.07360609  0.96582159  1
  N  N318  1  0.73000733  0.09242070  0.46363960  1
  N  N319  1  0.43681511  0.07741894  0.54510880  1
  N  N320  1  0.95362327  0.92227067  0.45953008  1
  N  N321  1  0.20378109  0.91114923  0.95898990  1
  N  N322  1  0.25614077  0.08373665  0.03219342  1
  N  N323  1  0.30353056  0.09279671  0.45824049  1
  N  N324  1  0.18745911  0.24046977  0.54268235  1
  N  N325  1  0.27369657  0.42555218  0.03663534  1
  N  N326  1  0.23811146  0.24604305  0.96327675  1
  N  N327  1  0.98684192  0.41122676  0.53576836  1
  N  N328  1  0.05223302  0.25547040  0.46184718  1
  N  N329  1  0.79425430  0.43221097  0.45692863  1
  N  N330  1  0.06252534  0.40640450  0.54951642  1
  N  N331  1  0.18071714  0.09824585  0.04383094  1
  N  N332  1  0.19779728  0.42856043  0.04366904  1
  N  N333  1  0.80761545  0.09511559  0.45707741  1
  N  N334  1  0.93195590  0.26274712  0.05115212  1
  N  N335  1  0.73535943  0.09072450  0.03721516  1
  N  N336  1  0.78486519  0.75890913  0.46258500  1
  N  N337  1  0.95472314  0.59271137  0.03772484  1
  N  N338  1  0.56682606  0.59327195  0.45356235  1
  N  N339  1  0.77387093  0.75750089  0.03723969  1
  N  N340  1  0.25448248  0.75857923  0.46323524  1
  N  N341  1  0.77297645  0.57731565  0.53115925  1
  N  N342  1  0.45161364  0.92139533  0.04155935  1
  N  N343  1  0.70983092  0.90718426  0.95919810  1
  N  N344  1  0.95264453  0.40708199  0.95854979  1
  N  N345  1  0.22567603  0.09002181  0.46296599  1
  N  N346  1  0.01294487  0.07643741  0.53349725  1
  N  N347  1  0.26538700  0.91394340  0.53740432  1
  N  N348  1  0.05272466  0.74625385  0.96090111  1
  N  N349  1  0.03118403  0.40713210  0.96165900  1
  N  N350  1  0.79168106  0.42355260  0.04078766  1
  N  N351  1  0.71225589  0.42788937  0.45667723  1
  N  N352  1  0.96668997  0.74255861  0.53611928  1
  N  N353  1  0.45526097  0.26047348  0.03927501  1
  N  N354  1  0.78827564  0.90729739  0.95793780  1
  N  N355  1  0.50231796  0.58797303  0.03478082  1
  N  N356  1  0.82348766  0.57398466  0.94925549  1
  N  N357  1  0.71375289  0.42322161  0.03510825  1
  N  N358  1  0.00770048  0.25868465  0.03817400  1
  N  N359  1  0.21197207  0.75204453  0.03793971  1
  N  N360  1  0.04866957  0.05847748  0.58830778  1
  N  N361  1  0.06358236  0.38652080  0.60776708  1
  N  N362  1  0.06807722  0.72559386  0.59335096  1
  N  N363  1  0.55338981  0.06180410  0.58987530  1
  N  N364  1  0.55545889  0.39017441  0.58116345  1
  N  N365  1  0.57697913  0.72031212  0.61231746  1
  N  N366  1  0.43142993  0.27810319  0.09664206  1
  N  N367  1  0.42051779  0.61585406  0.10465750  1
  N  N368  1  0.43418596  0.94192924  0.09902061  1
  N  N369  1  0.92940125  0.28101344  0.11000842  1
  N  N370  1  0.92900083  0.61290959  0.09356110  1
  N  N371  1  0.93544083  0.94327580  0.10090348  1
  N  N372  1  0.43872993  0.05108392  0.89488876  1
  N  N373  1  0.43822747  0.39142629  0.91394578  1
  N  N374  1  0.44329464  0.72650441  0.91581215  1
  N  N375  1  0.94284022  0.05812767  0.90747724  1
  N  N376  1  0.93698175  0.38941374  0.90045213  1
  N  N377  1  0.94510495  0.72719734  0.90678264  1
  N  N378  1  0.07465874  0.27789899  0.40512150  1
  N  N379  1  0.06046280  0.60877575  0.41098417  1
  N  N380  1  0.06466230  0.94006919  0.41044980  1
  N  N381  1  0.57771778  0.27663326  0.39852187  1
  N  N382  1  0.57269640  0.61165186  0.39410459  1
  N  N383  1  0.56635251  0.94292369  0.39510278  1
  N  N384  1  0.30336719  0.22733092  0.58638138  1
  N  N385  1  0.30937904  0.55317251  0.60765143  1
  N  N386  1  0.30848828  0.89078179  0.58634873  1
  N  N387  1  0.80144820  0.22321443  0.59166027  1
  N  N388  1  0.80534665  0.56094712  0.58790485  1
  N  N389  1  0.81957238  0.88499806  0.60783984  1
  N  N390  1  0.17686790  0.11172616  0.10394079  1
  N  N391  1  0.18357518  0.44914096  0.10240691  1
  N  N392  1  0.18421423  0.77598769  0.09242646  1
  N  N393  1  0.69184984  0.11385739  0.08547665  1
  N  N394  1  0.68688950  0.44115822  0.09069883  1
  N  N395  1  0.67844604  0.77838398  0.10326529  1
  N  N396  1  0.20199072  0.22083482  0.91205560  1
  N  N397  1  0.19826779  0.55759703  0.90894637  1
  N  N398  1  0.18706999  0.88670432  0.90103437  1
  N  N399  1  0.69131898  0.22530070  0.90426862  1
  N  N400  1  0.70522598  0.55659855  0.90804060  1
  N  N401  1  0.68863007  0.88886590  0.90241018  1
  N  N402  1  0.32517347  0.11537837  0.40319199  1
  N  N403  1  0.31613427  0.44056600  0.40028481  1
  N  N404  1  0.29875005  0.77655475  0.41380516  1
  N  N405  1  0.82640723  0.11233600  0.39951242  1
  N  N406  1  0.81418711  0.45793834  0.40222802  1
  N  N407  1  0.80571610  0.77637329  0.40277885  1
  N  N408  1  0.45171748  0.26998559  0.42186217  1
  N  N409  1  0.44743896  0.60492182  0.41673121  1
  N  N410  1  0.43803351  0.95065351  0.40412151  1
  N  N411  1  0.94607143  0.27354570  0.41091249  1
  N  N412  1  0.93205024  0.61202695  0.39516772  1
  N  N413  1  0.93721009  0.94402145  0.40072125  1
  N  N414  1  0.07063649  0.05478326  0.90243437  1
  N  N415  1  0.06383449  0.39275936  0.90683750  1
  N  N416  1  0.07330214  0.72198287  0.90405724  1
  N  N417  1  0.56869412  0.05548448  0.89917811  1
  N  N418  1  0.56910971  0.39079570  0.91037680  1
  N  N419  1  0.57084975  0.72128952  0.89686842  1
  N  N420  1  0.05229411  0.27884197  0.08581896  1
  N  N421  1  0.05794993  0.61276054  0.09382698  1
  N  N422  1  0.06311140  0.94081756  0.09491791  1
  N  N423  1  0.55939225  0.28121987  0.09840569  1
  N  N424  1  0.54618979  0.61211909  0.08264951  1
  N  N425  1  0.56199376  0.94052304  0.09444558  1
  N  N426  1  0.42676949  0.05638266  0.60374799  1
  N  N427  1  0.43028238  0.38443344  0.60504356  1
  N  N428  1  0.45236376  0.72404584  0.58701383  1
  N  N429  1  0.92212641  0.05397307  0.60317853  1
  N  N430  1  0.94096277  0.38999027  0.58231908  1
  N  N431  1  0.93929900  0.72140621  0.59191020  1
  N  N432  1  0.19830314  0.10865224  0.40784647  1
  N  N433  1  0.18645734  0.44025205  0.40672099  1
  N  N434  1  0.17397006  0.78093664  0.38929098  1
  N  N435  1  0.70025883  0.10873460  0.40857816  1
  N  N436  1  0.68978724  0.43590486  0.39697207  1
  N  N437  1  0.67786149  0.77547232  0.40669598  1
  N  N438  1  0.32951914  0.22699240  0.89823889  1
  N  N439  1  0.32787773  0.55298078  0.90493180  1
  N  N440  1  0.31492811  0.89083676  0.90958629  1
  N  N441  1  0.82106793  0.22193721  0.89996668  1
  N  N442  1  0.83085061  0.55386130  0.89002194  1
  N  N443  1  0.81563190  0.88671900  0.90371923  1
  N  N444  1  0.30026420  0.10687681  0.07911990  1
  N  N445  1  0.30893408  0.44425933  0.09049159  1
  N  N446  1  0.31080444  0.77704845  0.09530471  1
  N  N447  1  0.81704518  0.11509420  0.10996918  1
  N  N448  1  0.81380707  0.44149584  0.09755070  1
  N  N449  1  0.80595962  0.77578907  0.09364678  1
  N  N450  1  0.17743343  0.21765747  0.60201981  1
  N  N451  1  0.17942729  0.55401121  0.60048558  1
  N  N452  1  0.18265701  0.89267012  0.60828941  1
  N  N453  1  0.67163624  0.22007340  0.59964266  1
  N  N454  1  0.67791456  0.55746796  0.59828061  1
  N  N455  1  0.69258415  0.89435142  0.58777577  1
  Cl  Cl456  1  0.23826454  0.05367105  0.61738332  1
  Cl  Cl457  1  0.24840081  0.38020072  0.62377025  1
  Cl  Cl458  1  0.26685120  0.73252565  0.60102531  1
  Cl  Cl459  1  0.73817504  0.06047693  0.62483333  1
  Cl  Cl460  1  0.75123825  0.39854800  0.59595313  1
  Cl  Cl461  1  0.75835966  0.71935596  0.61796692  1
  Cl  Cl462  1  0.23636980  0.27072078  0.10281532  1
  Cl  Cl463  1  0.23910192  0.61290602  0.13288311  1
  Cl  Cl464  1  0.24926861  0.94879010  0.12473261  1
  Cl  Cl465  1  0.74267650  0.28083523  0.12262349  1
  Cl  Cl466  1  0.73472417  0.60646261  0.10201517  1
  Cl  Cl467  1  0.75021832  0.94641985  0.11250556  1
  Cl  Cl468  1  0.25554404  0.06379179  0.88941632  1
  Cl  Cl469  1  0.24811179  0.38271579  0.88747702  1
  Cl  Cl470  1  0.25891321  0.72209106  0.87558343  1
  Cl  Cl471  1  0.75429844  0.06072053  0.89578520  1
  Cl  Cl472  1  0.75433236  0.38800867  0.87117019  1
  Cl  Cl473  1  0.75952798  0.72393227  0.87838403  1
  Cl  Cl474  1  0.26059464  0.27001615  0.37948073  1
  Cl  Cl475  1  0.25770344  0.60918727  0.39983055  1
  Cl  Cl476  1  0.25470469  0.93950705  0.39824333  1
  Cl  Cl477  1  0.76570714  0.28697687  0.38755171  1
  Cl  Cl478  1  0.75157905  0.61803526  0.36779926  1
  Cl  Cl479  1  0.74943340  0.94706577  0.38010642  1
  Cl  Cl480  1  -0.01030297  0.22259877  0.62160182  1
  Cl  Cl481  1  -0.00726009  0.55813217  0.61374203  1
  Cl  Cl482  1  0.00336346  0.88098931  0.62823140  1
  Cl  Cl483  1  0.48767421  0.22540373  0.61393784  1
  Cl  Cl484  1  0.49538886  0.55266846  0.62270179  1
  Cl  Cl485  1  0.49729415  0.89810744  0.59761534  1
  Cl  Cl486  1  -0.00114109  0.11857631  0.12285339  1
  Cl  Cl487  1  -0.00187449  0.44727340  0.11790917  1
  Cl  Cl488  1  -0.00454806  0.77423740  0.11544270  1
  Cl  Cl489  1  0.49865487  0.10308902  0.10623741  1
  Cl  Cl490  1  0.49788036  0.44643577  0.11640969  1
  Cl  Cl491  1  0.49368429  0.77583804  0.12859756  1
  Cl  Cl492  1  0.01956795  0.23130735  0.89928220  1
  Cl  Cl493  1  0.01570602  0.55901766  0.88312918  1
  Cl  Cl494  1  -0.00017574  0.88661373  0.89024643  1
  Cl  Cl495  1  0.51057933  0.22830754  0.87879931  1
  Cl  Cl496  1  0.52042734  0.55837146  0.89798532  1
  Cl  Cl497  1  0.50403614  0.88591661  0.87621840  1
  Cl  Cl498  1  0.01000008  0.11763239  0.38645610  1
  Cl  Cl499  1  -0.00517706  0.43876558  0.39438092  1
  Cl  Cl500  1  -0.01092131  0.77634881  0.38457599  1
  Cl  Cl501  1  0.51204095  0.11065741  0.38370604  1
  Cl  Cl502  1  0.50746235  0.44071292  0.39347306  1
  Cl  Cl503  1  0.48439039  0.77115129  0.40156557  1
  Cl  Cl504  1  0.36429403  0.14678153  0.75368255  1
  Cl  Cl505  1  0.35968355  0.48181857  0.75021822  1
  Cl  Cl506  1  0.36674478  0.81501940  0.74714134  1
  Cl  Cl507  1  0.86064096  0.14604743  0.75524788  1
  Cl  Cl508  1  0.86888313  0.48014986  0.75072345  1
  Cl  Cl509  1  0.85969325  0.81583070  0.74727156  1
  Cl  Cl510  1  0.14289442  0.18116881  0.24566612  1
  Cl  Cl511  1  0.13859996  0.51504667  0.25406009  1
  Cl  Cl512  1  0.14155696  0.85323108  0.25393173  1
  Cl  Cl513  1  0.64657021  0.18317641  0.25849592  1
  Cl  Cl514  1  0.64066486  0.51577456  0.25004783  1
  Cl  Cl515  1  0.63415956  0.85167300  0.25166263  1
  Cl  Cl516  1  0.14238750  0.15267729  0.74969075  1
  Cl  Cl517  1  0.13868429  0.47923273  0.75601524  1
  Cl  Cl518  1  0.14403072  0.81739597  0.74768770  1
  Cl  Cl519  1  0.63906338  0.14925431  0.75675230  1
  Cl  Cl520  1  0.64618027  0.48620300  0.74328845  1
  Cl  Cl521  1  0.63775184  0.81159455  0.74674924  1
  Cl  Cl522  1  0.36217137  0.18498110  0.23863186  1
  Cl  Cl523  1  0.36228290  0.51809628  0.25940603  1
  Cl  Cl524  1  0.36482196  0.85500536  0.25696104  1
  Cl  Cl525  1  0.86604551  0.18844516  0.24634471  1
  Cl  Cl526  1  0.86054871  0.51920469  0.24536241  1
  Cl  Cl527  1  0.85592368  0.84898256  0.24885778  1
  Cl  Cl528  1  0.10551505  0.31551403  0.74520514  1
  Cl  Cl529  1  0.11632972  0.64967717  0.73811631  1
  Cl  Cl530  1  0.10841758  0.98440234  0.75720927  1
  Cl  Cl531  1  0.61218213  0.31741779  0.74649106  1
  Cl  Cl532  1  0.61056719  0.64791481  0.75193034  1
  Cl  Cl533  1  0.60910209  0.98154055  0.74643579  1
  Cl  Cl534  1  0.39052522  0.02245585  0.25172200  1
  Cl  Cl535  1  0.38982976  0.34977484  0.25425044  1
  Cl  Cl536  1  0.38618148  0.68294349  0.25303131  1
  Cl  Cl537  1  0.88709008  0.01912185  0.25322323  1
  Cl  Cl538  1  0.88857715  0.35152064  0.24747433  1
  Cl  Cl539  1  0.89146189  0.68288194  0.24996280  1
  Cl  Cl540  1  0.39091545  0.31669625  0.75075412  1
  Cl  Cl541  1  0.39157572  0.64760379  0.75044599  1
  Cl  Cl542  1  0.38524203  0.98067171  0.74469293  1
  Cl  Cl543  1  0.88597899  0.31316953  0.75616396  1
  Cl  Cl544  1  0.89528076  0.64956172  0.75769481  1
  Cl  Cl545  1  0.88726938  0.97960570  0.74661290  1
  Cl  Cl546  1  0.10855337  0.01665420  0.25154452  1
  Cl  Cl547  1  0.10981496  0.35069537  0.25546738  1
  Cl  Cl548  1  0.11134870  0.68700327  0.25437776  1
  Cl  Cl549  1  0.60946505  0.01638525  0.24964251  1
  Cl  Cl550  1  0.61045434  0.35053164  0.26078078  1
  Cl  Cl551  1  0.60622769  0.68210191  0.25440938  1
