# generated using pymatgen
data_H8PbC4(N3Cl2)2
_symmetry_space_group_name_H-M   'P 1'
_cell_length_a   16.63918054
_cell_length_b   22.54520464
_cell_length_c   21.60897650
_cell_angle_alpha   90.00097527
_cell_angle_beta   89.99830686
_cell_angle_gamma   90.00775093
_symmetry_Int_Tables_number   1
_chemical_formula_structural   H8PbC4(N3Cl2)2
_chemical_formula_sum   'H192 Pb24 C96 N144 Cl96'
_cell_volume   8106.25588336
_cell_formula_units_Z   24
loop_
 _symmetry_equiv_pos_site_id
 _symmetry_equiv_pos_as_xyz
  1  'x, y, z'
loop_
 _atom_site_type_symbol
 _atom_site_label
 _atom_site_symmetry_multiplicity
 _atom_site_fract_x
 _atom_site_fract_y
 _atom_site_fract_z
 _atom_site_occupancy
  H  H0  1  0.01821756  0.02637158  0.67393616  1
  H  H1  1  0.02024073  0.35382171  0.66995068  1
  H  H2  1  0.01893123  0.68689606  0.67204894  1
  H  H3  1  0.48308226  0.03877484  0.68754235  1
  H  H4  1  0.48073295  0.35711338  0.68205368  1
  H  H5  1  0.47612138  0.69800039  0.67633763  1
  H  H6  1  0.00446354  0.29895768  0.18097777  1
  H  H7  1  0.00884096  0.64091808  0.17950033  1
  H  H8  1  0.00588701  0.97319699  0.17930036  1
  H  H9  1  0.50853364  0.30258532  0.17544707  1
  H  H10  1  0.50864289  0.64078346  0.17799869  1
  H  H11  1  0.48720656  0.97447546  0.17865356  1
  H  H12  1  0.01028754  0.02841418  0.82315067  1
  H  H13  1  -0.04471929  0.36448268  0.83900293  1
  H  H14  1  0.01139107  0.69638259  0.81698598  1
  H  H15  1  0.48435471  0.02796845  0.82385774  1
  H  H16  1  0.47100600  0.36622254  0.83947994  1
  H  H17  1  0.48679196  0.69092357  0.82582971  1
  H  H18  1  -0.01429883  0.31542973  0.32395189  1
  H  H19  1  0.00798190  0.63798503  0.32372886  1
  H  H20  1  -0.02345706  0.97167592  0.34852570  1
  H  H21  1  0.50636843  0.30372826  0.32359419  1
  H  H22  1  0.49074566  0.63856027  0.32264997  1
  H  H23  1  0.50337405  0.96708770  0.31354279  1
  H  H24  1  0.24377095  0.19407324  0.67404799  1
  H  H25  1  0.25413847  0.52359989  0.67248909  1
  H  H26  1  0.26820573  0.86407678  0.68503993  1
  H  H27  1  0.75624007  0.19468231  0.67870571  1
  H  H28  1  0.75214745  0.52092520  0.67473673  1
  H  H29  1  0.77019398  0.85959730  0.65592536  1
  H  H30  1  0.23247391  0.14661312  0.17302879  1
  H  H31  1  0.27776217  0.47138994  0.15338124  1
  H  H32  1  0.24772024  0.80579423  0.18154516  1
  H  H33  1  0.76254172  0.14227504  0.17904800  1
  H  H34  1  0.79360706  0.46186863  0.16193508  1
  H  H35  1  0.76469425  0.80653962  0.18110194  1
  H  H36  1  0.25093299  0.19026615  0.82409283  1
  H  H37  1  0.23897235  0.53161566  0.81736498  1
  H  H38  1  0.24192656  0.85406661  0.81993180  1
  H  H39  1  0.75207114  0.18609617  0.83004041  1
  H  H40  1  0.75233763  0.52928408  0.82186648  1
  H  H41  1  0.75293456  0.86085774  0.82395380  1
  H  H42  1  0.26922921  0.12733968  0.31164638  1
  H  H43  1  0.25383471  0.46504771  0.31967197  1
  H  H44  1  0.23563616  0.81933444  0.32139292  1
  H  H45  1  0.73576225  0.13956792  0.31943730  1
  H  H46  1  0.73612741  0.47355846  0.32869456  1
  H  H47  1  0.75440934  0.79891203  0.32162157  1
  H  H48  1  0.11969682  0.05944534  0.58957459  1
  H  H49  1  0.12418648  0.39342781  0.58983642  1
  H  H50  1  0.12029720  0.72236678  0.58740780  1
  H  H51  1  0.61622952  0.05353189  0.62536004  1
  H  H52  1  0.62273560  0.37941480  0.63207503  1
  H  H53  1  0.62190677  0.71442961  0.63383296  1
  H  H54  1  0.36613942  0.28064598  0.12841310  1
  H  H55  1  0.37304501  0.61388575  0.12131118  1
  H  H56  1  0.36508147  0.95070292  0.10840156  1
  H  H57  1  0.86767711  0.28046862  0.12314027  1
  H  H58  1  0.86813478  0.61612088  0.12864300  1
  H  H59  1  0.86555042  0.95041861  0.12618863  1
  H  H60  1  0.37710847  0.05752444  0.90404969  1
  H  H61  1  0.33623611  0.38717848  0.89656437  1
  H  H62  1  0.37852494  0.72757337  0.90431989  1
  H  H63  1  0.88113595  0.05391107  0.88846483  1
  H  H64  1  0.82265549  0.38649463  0.90336635  1
  H  H65  1  0.88530525  0.71899059  0.88783702  1
  H  H66  1  0.11435141  0.28542747  0.38862469  1
  H  H67  1  0.12972388  0.60566061  0.39459103  1
  H  H68  1  0.08597542  0.93145602  0.42351877  1
  H  H69  1  0.61647168  0.27313461  0.40308771  1
  H  H70  1  0.63251023  0.61436072  0.37204908  1
  H  H71  1  0.60526228  0.94132951  0.39858312  1
  H  H72  1  0.37888501  0.22016398  0.61603993  1
  H  H73  1  0.36319116  0.55754428  0.59300156  1
  H  H74  1  0.39163608  0.88679332  0.61087181  1
  H  H75  1  0.87848547  0.22497545  0.60692371  1
  H  H76  1  0.86637820  0.55608234  0.59882772  1
  H  H77  1  0.91022218  0.88215030  0.60707562  1
  H  H78  1  0.12222147  0.11047136  0.09646952  1
  H  H79  1  0.17008799  0.43228554  0.07666836  1
  H  H80  1  0.11689745  0.78067187  0.11652782  1
  H  H81  1  0.62592057  0.11593513  0.12191299  1
  H  H82  1  0.67504308  0.44241061  0.08825335  1
  H  H83  1  0.62574564  0.78939039  0.12889359  1
  H  H84  1  0.13741366  0.22145082  0.90198995  1
  H  H85  1  0.13213370  0.55717264  0.89962309  1
  H  H86  1  0.13519331  0.89289806  0.89841253  1
  H  H87  1  0.64336116  0.22689800  0.90517571  1
  H  H88  1  0.63601586  0.55553248  0.90007940  1
  H  H89  1  0.63097109  0.88770860  0.89395021  1
  H  H90  1  0.38296655  0.11789213  0.39325095  1
  H  H91  1  0.36580091  0.44309971  0.39900504  1
  H  H92  1  0.36731719  0.78292323  0.37534277  1
  H  H93  1  0.87629802  0.11455399  0.37173335  1
  H  H94  1  0.87283753  0.45207737  0.38279200  1
  H  H95  1  0.86848477  0.77228179  0.40112584  1
  H  H96  1  0.36989265  0.28504059  0.38260300  1
  H  H97  1  0.38804848  0.60447279  0.40493751  1
  H  H98  1  0.36204092  0.95257998  0.36275308  1
  H  H99  1  0.86643064  0.27859610  0.39521354  1
  H  H100  1  0.88170924  0.61137098  0.39312520  1
  H  H101  1  0.84049096  0.94552139  0.40087144  1
  H  H102  1  0.12983197  0.05973944  0.89422271  1
  H  H103  1  0.07149911  0.39282579  0.91356715  1
  H  H104  1  0.13419679  0.72472431  0.88673211  1
  H  H105  1  0.62270276  0.04608348  0.87693297  1
  H  H106  1  0.58338283  0.39222675  0.91679016  1
  H  H107  1  0.62331277  0.71494293  0.88270377  1
  H  H108  1  0.11393490  0.27499831  0.09803424  1
  H  H109  1  0.11283174  0.60685382  0.09856894  1
  H  H110  1  0.11071814  0.94587223  0.09496129  1
  H  H111  1  0.60920363  0.27145011  0.08941416  1
  H  H112  1  0.61815592  0.60871691  0.09736233  1
  H  H113  1  0.61395183  0.94700954  0.11367540  1
  H  H114  1  0.36807253  0.05261066  0.60784100  1
  H  H115  1  0.37909265  0.39056570  0.59774999  1
  H  H116  1  0.38241344  0.73035621  0.58538823  1
  H  H117  1  0.87655144  0.05037386  0.62688128  1
  H  H118  1  0.88006603  0.37892963  0.62010171  1
  H  H119  1  0.87787083  0.71517869  0.62685332  1
  H  H120  1  0.13560598  0.10982702  0.37202267  1
  H  H121  1  0.11820254  0.44900014  0.37884294  1
  H  H122  1  0.12016598  0.78345394  0.39608158  1
  H  H123  1  0.63161457  0.11366114  0.40484965  1
  H  H124  1  0.62650363  0.44084826  0.40654520  1
  H  H125  1  0.62100751  0.77776632  0.38319527  1
  H  H126  1  0.38382610  0.22040187  0.88453182  1
  H  H127  1  0.37733983  0.54991234  0.86982310  1
  H  H128  1  0.38075019  0.88184598  0.87221939  1
  H  H129  1  0.88904681  0.21012793  0.88632419  1
  H  H130  1  0.88377223  0.55253117  0.88737142  1
  H  H131  1  0.87989706  0.89006374  0.89049409  1
  H  H132  1  0.36896371  0.11754687  0.11844676  1
  H  H133  1  0.41640064  0.44750136  0.10083175  1
  H  H134  1  0.36464070  0.77640110  0.10493840  1
  H  H135  1  0.87216763  0.10935604  0.09773668  1
  H  H136  1  0.92358031  0.44045129  0.09781238  1
  H  H137  1  0.87065790  0.77588586  0.10042918  1
  H  H138  1  0.13086296  0.22746393  0.59886072  1
  H  H139  1  0.11728523  0.55043794  0.61945526  1
  H  H140  1  0.14373705  0.88718763  0.61360086  1
  H  H141  1  0.63028792  0.22254245  0.60980497  1
  H  H142  1  0.61931710  0.54985520  0.61399642  1
  H  H143  1  0.66668627  0.89764811  0.57506599  1
  H  H144  1  0.88692913  0.58837663  0.01956410  1
  H  H145  1  0.73971349  0.92131772  0.47458854  1
  H  H146  1  0.52835586  0.24757978  -0.00930255  1
  H  H147  1  0.60491435  0.07619074  -0.00930233  1
  H  H148  1  0.83761226  0.91772100  0.99607768  1
  H  H149  1  0.30219029  0.41780243  0.50791203  1
  H  H150  1  0.18604768  0.75705933  0.49823589  1
  H  H151  1  0.86378249  0.24597431  0.99370366  1
  H  H152  1  0.58557948  0.07519338  0.51030977  1
  H  H153  1  0.69066749  0.40904823  0.51132909  1
  H  H154  1  0.01852157  0.90702169  0.52722805  1
  H  H155  1  0.67966881  0.92355861  1.00170852  1
  H  H156  1  0.46288631  0.57084595  0.50602027  1
  H  H157  1  0.03966700  0.08026918  0.49013555  1
  H  H158  1  0.42690460  0.06198111  0.49644401  1
  H  H159  1  0.03625053  0.91518760  -0.00629542  1
  H  H160  1  0.03825352  0.74957042  0.49055063  1
  H  H161  1  0.29012558  0.58555643  0.49225285  1
  H  H162  1  0.20156790  0.58785422  1.00423382  1
  H  H163  1  0.44385812  0.08294908  1.01026967  1
  H  H164  1  0.20733123  0.92833998  0.99876197  1
  H  H165  1  0.37293201  0.92380002  0.47756051  1
  H  H166  1  0.32206014  0.10824092  0.50411816  1
  H  H167  1  0.45810917  0.41980727  0.49733897  1
  H  H168  1  0.89005537  0.08840854  0.51554069  1
  H  H169  1  0.34823939  0.25042078  0.50871561  1
  H  H170  1  0.08429267  0.75342971  0.99521007  1
  H  H171  1  0.36038261  0.58149764  0.98353758  1
  H  H172  1  0.64181030  0.75706356  1.01525557  1
  H  H173  1  0.46879686  0.75198624  0.49098325  1
  H  H174  1  0.01667374  0.42312707  1.02158501  1
  H  H175  1  0.85188219  0.42019760  0.49576340  1
  H  H176  1  0.23749181  0.40765729  -0.02596416  1
  H  H177  1  0.33481320  0.73557059  0.48091899  1
  H  H178  1  0.16422719  0.09535888  0.48920312  1
  H  H179  1  0.70875510  0.08871854  0.50802251  1
  H  H180  1  0.62034905  0.74528831  0.51906399  1
  H  H181  1  0.52512804  0.42399803  1.02389345  1
  H  H182  1  0.72484256  0.41254495  -0.02274901  1
  H  H183  1  0.45062381  0.75326715  1.00492633  1
  H  H184  1  0.80085964  0.74647380  -0.00451852  1
  H  H185  1  0.53143079  0.91445872  0.50239920  1
  H  H186  1  0.03995039  0.57507012  -0.00426438  1
  H  H187  1  0.35093011  0.24400966  0.99387001  1
  H  H188  1  0.19251284  0.26282756  0.49431982  1
  H  H189  1  0.41232608  0.91758166  0.99918742  1
  H  H190  1  0.61542094  0.58675215  0.48140151  1
  H  H191  1  0.54657371  0.58452508  -0.00325889  1
  Pb  Pb192  1  0.25382174  0.04939404  0.74582320  1
  Pb  Pb193  1  0.24597595  0.38501196  0.74759735  1
  Pb  Pb194  1  0.25471444  0.71605070  0.73845980  1
  Pb  Pb195  1  0.75472213  0.04947289  0.74880446  1
  Pb  Pb196  1  0.74991673  0.37969757  0.75657003  1
  Pb  Pb197  1  0.75264059  0.71592006  0.75470775  1
  Pb  Pb198  1  0.24247817  0.28472933  0.25097600  1
  Pb  Pb199  1  0.24986886  0.61315183  0.25214193  1
  Pb  Pb200  1  0.23615898  0.95314061  0.24820166  1
  Pb  Pb201  1  0.74333201  0.28500693  0.24616690  1
  Pb  Pb202  1  0.74501588  0.61621820  0.24779521  1
  Pb  Pb203  1  0.74377094  0.95038935  0.24975976  1
  Pb  Pb204  1  0.00635606  0.21649038  0.75050347  1
  Pb  Pb205  1  -0.00185440  0.54965379  0.75324254  1
  Pb  Pb206  1  0.00438243  0.88180844  0.75680222  1
  Pb  Pb207  1  0.50490844  0.21617569  0.75670056  1
  Pb  Pb208  1  0.50452549  0.54811882  0.75079225  1
  Pb  Pb209  1  0.51265782  0.88344000  0.74047094  1
  Pb  Pb210  1  -0.00424154  0.11707068  0.24741558  1
  Pb  Pb211  1  -0.00079748  0.45153355  0.24057524  1
  Pb  Pb212  1  -0.00298314  0.78163080  0.25328767  1
  Pb  Pb213  1  0.49506411  0.11920735  0.25789638  1
  Pb  Pb214  1  0.50058680  0.44923351  0.25486238  1
  Pb  Pb215  1  0.49169466  0.78467098  0.24902443  1
  C  C216  1  0.00461208  0.04374674  0.62814815  1
  C  C217  1  0.00791997  0.37396171  0.62568690  1
  C  C218  1  0.00590766  0.70593871  0.62723778  1
  C  C219  1  0.48945480  0.04829909  0.63849893  1
  C  C220  1  0.49454251  0.37454168  0.63646751  1
  C  C221  1  0.49342746  0.71282721  0.63023443  1
  C  C222  1  -0.00472655  0.28509743  0.13359921  1
  C  C223  1  -0.00449228  0.62347346  0.13364494  1
  C  C224  1  -0.00645109  0.95694163  0.13294437  1
  C  C225  1  0.49465600  0.28639880  0.12931397  1
  C  C226  1  0.50014759  0.62291689  0.13187506  1
  C  C227  1  0.48830502  0.95745246  0.13182653  1
  C  C228  1  0.00686724  0.04664253  0.86925792  1
  C  C229  1  -0.05065039  0.38096224  0.88609777  1
  C  C230  1  0.01012002  0.71272517  0.86419680  1
  C  C231  1  0.49527315  0.04372482  0.87063905  1
  C  C232  1  0.46301352  0.38219778  0.88655247  1
  C  C233  1  0.49598869  0.70976826  0.87143871  1
  C  C234  1  -0.01132006  0.29431571  0.36899374  1
  C  C235  1  0.00661937  0.61989161  0.37020052  1
  C  C236  1  -0.03192871  0.95131550  0.39368823  1
  C  C237  1  0.49724612  0.28767384  0.37014381  1
  C  C238  1  0.50485687  0.62089961  0.36826687  1
  C  C239  1  0.48930523  0.95348206  0.36060478  1
  C  C240  1  0.25195065  0.21274990  0.62801970  1
  C  C241  1  0.24522141  0.54243338  0.62696629  1
  C  C242  1  0.26805255  0.87943076  0.63740010  1
  C  C243  1  0.75503224  0.21236704  0.63201033  1
  C  C244  1  0.74590919  0.54106909  0.62931144  1
  C  C245  1  0.78218972  0.87816885  0.61031831  1
  C  C246  1  0.24162622  0.12621799  0.12835705  1
  C  C247  1  0.28788429  0.45120427  0.10830266  1
  C  C248  1  0.24306443  0.78898467  0.13463390  1
  C  C249  1  0.75372379  0.12370641  0.13319947  1
  C  C250  1  0.79740262  0.44817140  0.11380051  1
  C  C251  1  0.75301629  0.79087338  0.13432438  1
  C  C252  1  0.25824358  0.20839984  0.87020480  1
  C  C253  1  0.25015542  0.54648104  0.86445934  1
  C  C254  1  0.25283265  0.87528129  0.86421724  1
  C  C255  1  0.76188913  0.20515509  0.87536303  1
  C  C256  1  0.75754785  0.54461672  0.86942462  1
  C  C257  1  0.75529983  0.87821728  0.87090488  1
  C  C258  1  0.26212756  0.11926287  0.36099179  1
  C  C259  1  0.24606653  0.45309605  0.36779753  1
  C  C260  1  0.24063469  0.79719147  0.36587458  1
  C  C261  1  0.74843392  0.12369922  0.36584168  1
  C  C262  1  0.74534874  0.45626496  0.37508878  1
  C  C263  1  0.74825357  0.78375780  0.36885031  1
  C  C264  1  0.40812482  0.40764179  0.97682200  1
  C  C265  1  0.55619373  0.06778076  0.95813240  1
  C  C266  1  0.72287367  0.42364447  0.47028135  1
  C  C267  1  0.18494751  0.57762870  0.54286955  1
  C  C268  1  0.93879794  0.07730891  0.54712511  1
  C  C269  1  0.26995355  0.42889918  0.46565161  1
  C  C270  1  0.45190801  0.92781666  0.03785031  1
  C  C271  1  0.90902192  0.91940992  0.47970494  1
  C  C272  1  0.51843467  0.25455870  0.46420769  1
  C  C273  1  0.49075270  0.41139073  0.98278118  1
  C  C274  1  0.01256794  0.58969968  0.03895039  1
  C  C275  1  0.42696383  0.25687276  0.04674918  1
  C  C276  1  0.84674249  0.90766812  0.52563062  1
  C  C277  1  0.77155002  0.76036234  0.03802759  1
  C  C278  1  0.23634427  0.91256566  0.95661270  1
  C  C279  1  -0.01808692  0.41178821  0.98036450  1
  C  C280  1  0.23108502  0.57558025  0.96122784  1
  C  C281  1  0.54166014  0.06534013  0.54608473  1
  C  C282  1  0.46047680  0.06165467  0.53949551  1
  C  C283  1  0.71737107  0.91046685  0.96264737  1
  C  C284  1  0.47512961  0.07155887  0.96774621  1
  C  C285  1  0.53314695  0.92693064  0.04113032  1
  C  C286  1  0.00793508  0.92698069  0.03755135  1
  C  C287  1  0.76146166  0.42265528  0.01788148  1
  C  C288  1  0.03844697  0.08258278  0.95973159  1
  C  C289  1  0.34738274  0.41925819  0.02304349  1
  C  C290  1  0.84448324  0.42247242  0.02169836  1
  C  C291  1  0.02216625  0.41435695  0.53413457  1
  C  C292  1  0.18907925  0.43182974  0.45739661  1
  C  C293  1  0.48964026  0.58606866  0.46273269  1
  C  C294  1  0.50339016  0.92670960  0.45852520  1
  C  C295  1  0.73837001  0.24548433  0.96749832  1
  C  C296  1  0.22500025  0.24806358  0.53535912  1
  C  C297  1  0.29249206  0.75505779  0.44831092  1
  C  C298  1  0.22051453  0.08621814  0.03771380  1
  C  C299  1  0.42310439  0.93130304  0.44612041  1
  C  C300  1  0.73495181  0.09773944  0.46269377  1
  C  C301  1  0.80404147  0.42892515  0.46241532  1
  C  C302  1  0.20821622  0.10389829  0.45315713  1
  C  C303  1  0.93818773  0.74123674  0.54659429  1
  C  C304  1  0.56737726  0.73831514  0.54983656  1
  C  C305  1  0.69874626  0.75800759  0.45874327  1
  C  C306  1  0.94139287  0.25933158  0.04556099  1
  C  C307  1  0.28942073  0.10845838  0.46061907  1
  C  C308  1  0.69060495  0.76551487  0.04786513  1
  C  C309  1  0.31200877  0.57280139  0.95081927  1
  C  C310  1  0.04561811  0.74184288  0.95647110  1
  C  C311  1  0.48430889  0.40675081  0.54155076  1
  N  N312  1  0.19633834  0.75953485  0.04425719  1
  N  N313  1  0.04232067  0.58371028  0.46092999  1
  N  N314  1  0.95681200  0.25495189  0.45902732  1
  N  N315  1  0.30684157  0.23768923  0.95752023  1
  N  N316  1  0.55507413  0.74094537  0.95666686  1
  N  N317  1  0.81597875  0.23805468  0.96063745  1
  N  N318  1  0.26307294  0.57839006  0.53470294  1
  N  N319  1  0.77423198  0.08911954  0.03917450  1
  N  N320  1  0.01817774  0.25780671  0.03605980  1
  N  N321  1  0.21350919  0.75779603  0.45564662  1
  N  N322  1  0.79692285  0.91056330  0.96032031  1
  N  N323  1  0.56744333  0.59068353  0.45072765  1
  N  N324  1  0.22829561  0.90710861  0.54463308  1
  N  N325  1  0.50455222  0.25348126  0.03504746  1
  N  N326  1  0.81269719  0.09775928  0.45146472  1
  N  N327  1  0.47779879  0.74589775  0.96265623  1
  N  N328  1  0.72841916  0.57315925  0.96418874  1
  N  N329  1  0.44144448  0.25857453  0.45854587  1
  N  N330  1  0.44177138  0.59351910  0.04573756  1
  N  N331  1  0.03300885  0.25718270  0.45690365  1
  N  N332  1  0.30401441  0.24530943  0.54226095  1
  N  N333  1  0.49043940  0.74430716  0.53502512  1
  N  N334  1  0.96632345  0.74061106  0.95700738  1
  N  N335  1  0.77560654  0.75598930  0.46590202  1
  N  N336  1  0.01674321  0.07893902  0.53451378  1
  N  N337  1  0.29756497  0.08853297  0.04329820  1
  N  N338  1  0.94596148  0.40914552  0.54271026  1
  N  N339  1  0.26747482  0.41190831  0.01704947  1
  N  N340  1  0.22934509  0.23960961  0.96422301  1
  N  N341  1  0.92987561  0.92796356  0.04789486  1
  N  N342  1  0.79067581  0.24596759  0.54023867  1
  N  N343  1  0.77224945  0.57858933  0.53749665  1
  N  N344  1  0.56199701  0.40344860  0.55297812  1
  N  N345  1  0.71451272  0.24480113  0.54102184  1
  N  N346  1  0.80467968  0.57299540  0.95983890  1
  N  N347  1  0.90092591  0.41023359  0.97607340  1
  N  N348  1  0.27259705  0.75788691  0.04063823  1
  N  N349  1  0.76712570  0.91579721  0.51774509  1
  N  N350  1  0.01534040  0.74221082  0.53424748  1
  N  N351  1  0.69895749  0.09112623  0.04701727  1
  N  N352  1  0.96634898  0.58605555  0.46070632  1
  N  N353  1  0.51920392  0.59065713  0.03920819  1
  N  N354  1  -0.01084593  0.91223949  0.48493903  1
  N  N355  1  0.96122168  0.08082622  0.95916931  1
  N  N356  1  0.69634898  0.57559855  0.54223009  1
  N  N357  1  0.93451337  0.59369454  0.05028546  1
  N  N358  1  0.30448249  0.90663281  0.54402592  1
  N  N359  1  0.31452152  0.90873067  0.94826019  1
  N  N360  1  0.05736502  0.05440987  0.58355773  1
  N  N361  1  0.06244741  0.39342556  0.58408109  1
  N  N362  1  0.05827727  0.71837080  0.58301833  1
  N  N363  1  0.55841226  0.05689812  0.60779212  1
  N  N364  1  0.56644164  0.38343056  0.61194340  1
  N  N365  1  0.56902279  0.72018948  0.60935605  1
  N  N366  1  0.42056564  0.27569096  0.10590465  1
  N  N367  1  0.43055082  0.61106156  0.10422925  1
  N  N368  1  0.42495894  0.94679630  0.09565552  1
  N  N369  1  0.92455542  0.27595204  0.10494112  1
  N  N370  1  0.92424146  0.61671857  0.10776444  1
  N  N371  1  0.92265776  0.94666024  0.10770483  1
  N  N372  1  0.43867392  0.05662810  0.91286635  1
  N  N373  1  0.39302741  0.38923001  0.91588259  1
  N  N374  1  0.44013952  0.72404249  0.91231519  1
  N  N375  1  0.94128014  0.05832721  0.90151269  1
  N  N376  1  0.88234259  0.39060260  0.91669776  1
  N  N377  1  0.94608102  0.72251835  0.89916851  1
  N  N378  1  0.05422586  0.28113175  0.40101954  1
  N  N379  1  0.06901944  0.60475931  0.40495323  1
  N  N380  1  0.02510487  0.93622008  0.43344962  1
  N  N381  1  0.55483818  0.27234925  0.41126998  1
  N  N382  1  0.57654634  0.61428189  0.39341847  1
  N  N383  1  0.54303638  0.94059737  0.40484984  1
  N  N384  1  0.32043163  0.22144717  0.59846846  1
  N  N385  1  0.30136252  0.55453517  0.58551794  1
  N  N386  1  0.33079669  0.88939956  0.60109439  1
  N  N387  1  0.81736573  0.22607932  0.59664777  1
  N  N388  1  0.80447984  0.55711058  0.59119854  1
  N  N389  1  0.85507665  0.88691266  0.58497657  1
  N  N390  1  0.18370546  0.10890178  0.08843975  1
  N  N391  1  0.23174389  0.43578283  0.06806915  1
  N  N392  1  0.17673060  0.77857238  0.10258247  1
  N  N393  1  0.68443180  0.11229987  0.10534625  1
  N  N394  1  0.73491417  0.43855206  0.07542887  1
  N  N395  1  0.68067986  0.78413033  0.10778150  1
  N  N396  1  0.19947058  0.22216400  0.90961529  1
  N  N397  1  0.19396462  0.55912485  0.90700531  1
  N  N398  1  0.19702983  0.89267518  0.90521954  1
  N  N399  1  0.70456174  0.22534716  0.91478686  1
  N  N400  1  0.69798602  0.55461692  0.90877994  1
  N  N401  1  0.69133960  0.89107270  0.90696663  1
  N  N402  1  0.32173939  0.11806303  0.40294283  1
  N  N403  1  0.30456217  0.44260107  0.40871010  1
  N  N404  1  0.30937936  0.77822490  0.39233298  1
  N  N405  1  0.81952050  0.11403102  0.39113416  1
  N  N406  1  0.81634908  0.44893718  0.40322255  1
  N  N407  1  0.80669229  0.77268552  0.40840367  1
  N  N408  1  0.42813089  0.27919364  0.39862258  1
  N  N409  1  0.45044124  0.60425635  0.41133358  1
  N  N410  1  0.41590956  0.94782626  0.38547150  1
  N  N411  1  0.92782271  0.27820358  0.40472874  1
  N  N412  1  0.94257435  0.60888476  0.40473869  1
  N  N413  1  0.89676714  0.94142926  0.42131618  1
  N  N414  1  0.06939227  0.06186265  0.90580925  1
  N  N415  1  0.01084024  0.39400402  0.92522582  1
  N  N416  1  0.07403149  0.72496239  0.89979225  1
  N  N417  1  0.56707163  0.05087650  0.89762045  1
  N  N418  1  0.52203621  0.39553483  0.92661736  1
  N  N419  1  0.56585707  0.72091795  0.89893549  1
  N  N420  1  0.05145017  0.27419322  0.09211410  1
  N  N421  1  0.05079117  0.60750235  0.09090503  1
  N  N422  1  0.04826240  0.94422901  0.08933763  1
  N  N423  1  0.54680686  0.27500349  0.08486889  1
  N  N424  1  0.55618158  0.61149922  0.09015889  1
  N  N425  1  0.55480404  0.94445358  0.09795909  1
  N  N426  1  0.42901651  0.05147235  0.59744223  1
  N  N427  1  0.44136707  0.38961423  0.59253058  1
  N  N428  1  0.44466672  0.72560403  0.58363490  1
  N  N429  1  0.93136607  0.05689828  0.60545294  1
  N  N430  1  0.93685205  0.38357422  0.60061831  1
  N  N431  1  0.93234085  0.72012221  0.60453869  1
  N  N432  1  0.19266975  0.11071397  0.39119634  1
  N  N433  1  0.17527226  0.44610781  0.39830249  1
  N  N434  1  0.18172641  0.78647397  0.40549349  1
  N  N435  1  0.69399639  0.11282074  0.41032486  1
  N  N436  1  0.68766038  0.44080104  0.41552320  1
  N  N437  1  0.67904607  0.77463799  0.40000372  1
  N  N438  1  0.32590351  0.21725484  0.90093892  1
  N  N439  1  0.32223638  0.55487838  0.89076557  1
  N  N440  1  0.32313236  0.88593633  0.89037775  1
  N  N441  1  0.83121923  0.21149935  0.90425492  1
  N  N442  1  0.82410257  0.55583305  0.90090209  1
  N  N443  1  0.82014392  0.88866193  0.90448043  1
  N  N444  1  0.31074671  0.11375463  0.10131690  1
  N  N445  1  0.35967501  0.44103456  0.08157986  1
  N  N446  1  0.30282040  0.77654091  0.09631515  1
  N  N447  1  0.80985981  0.10941174  0.09233085  1
  N  N448  1  0.86501223  0.43879290  0.08164346  1
  N  N449  1  0.80894050  0.77630580  0.09214325  1
  N  N450  1  0.19230315  0.22883338  0.58899156  1
  N  N451  1  0.17371183  0.55634601  0.60036148  1
  N  N452  1  0.20451801  0.89080649  0.60257482  1
  N  N453  1  0.69080618  0.22341116  0.59759296  1
  N  N454  1  0.67836869  0.55255750  0.59914119  1
  N  N455  1  0.72798612  0.89300515  0.56827454  1
  Cl  Cl456  1  0.24068242  0.06402072  0.60928621  1
  Cl  Cl457  1  0.25364560  0.39277222  0.61173547  1
  Cl  Cl458  1  0.24914920  0.72800705  0.59333513  1
  Cl  Cl459  1  0.74427116  0.05287255  0.61333807  1
  Cl  Cl460  1  0.75279924  0.38813596  0.62874678  1
  Cl  Cl461  1  0.75121232  0.72130688  0.62787486  1
  Cl  Cl462  1  0.23565403  0.27926292  0.11893246  1
  Cl  Cl463  1  0.23737493  0.60655453  0.11795575  1
  Cl  Cl464  1  0.23338816  0.94784504  0.11044637  1
  Cl  Cl465  1  0.73293519  0.27267704  0.11066413  1
  Cl  Cl466  1  0.73897520  0.60496346  0.11623315  1
  Cl  Cl467  1  0.73829791  0.94241684  0.11772887  1
  Cl  Cl468  1  0.25483210  0.06016646  0.87811135  1
  Cl  Cl469  1  0.20209846  0.39274079  0.88802082  1
  Cl  Cl470  1  0.26023315  0.73000214  0.87131406  1
  Cl  Cl471  1  0.75687667  0.04872763  0.87623686  1
  Cl  Cl472  1  0.70014905  0.37992965  0.88845407  1
  Cl  Cl473  1  0.75718616  0.72038426  0.88938961  1
  Cl  Cl474  1  0.24109200  0.28424001  0.38693268  1
  Cl  Cl475  1  0.26453182  0.60655029  0.39599651  1
  Cl  Cl476  1  0.21306269  0.93780296  0.37758737  1
  Cl  Cl477  1  0.74090373  0.27616848  0.37788961  1
  Cl  Cl478  1  0.75922136  0.61060584  0.37925884  1
  Cl  Cl479  1  0.72154048  0.94348472  0.38591026  1
  Cl  Cl480  1  0.00595615  0.22426262  0.61756213  1
  Cl  Cl481  1  -0.01163323  0.55202049  0.62290062  1
  Cl  Cl482  1  0.02732990  0.88428777  0.61856355  1
  Cl  Cl483  1  0.50470194  0.22584594  0.62454636  1
  Cl  Cl484  1  0.48716268  0.55813320  0.61312913  1
  Cl  Cl485  1  0.52956267  0.88875469  0.60568221  1
  Cl  Cl486  1  -0.00381288  0.10914778  0.11537205  1
  Cl  Cl487  1  0.05389380  0.44393824  0.10950750  1
  Cl  Cl488  1  -0.00644451  0.77607255  0.12109872  1
  Cl  Cl489  1  0.49694591  0.11375141  0.12516649  1
  Cl  Cl490  1  0.54209425  0.45186788  0.12079835  1
  Cl  Cl491  1  0.48542392  0.77129634  0.11180258  1
  Cl  Cl492  1  0.01511151  0.22128040  0.88268633  1
  Cl  Cl493  1  0.00903889  0.55421485  0.89058750  1
  Cl  Cl494  1  0.00804967  0.89532739  0.89025266  1
  Cl  Cl495  1  0.51741726  0.23233123  0.89718471  1
  Cl  Cl496  1  0.51668394  0.56220617  0.89076679  1
  Cl  Cl497  1  0.50923400  0.88338381  0.87293792  1
  Cl  Cl498  1  0.00762564  0.09731190  0.38425637  1
  Cl  Cl499  1  -0.00560242  0.44056340  0.36738579  1
  Cl  Cl500  1  -0.00180021  0.77286443  0.39623243  1
  Cl  Cl501  1  0.50845933  0.11246334  0.39360636  1
  Cl  Cl502  1  0.49391777  0.44108459  0.39098320  1
  Cl  Cl503  1  0.49255084  0.77183662  0.38837676  1
  Cl  Cl504  1  0.37623753  0.14262205  0.73663314  1
  Cl  Cl505  1  0.37584989  0.47290770  0.76803006  1
  Cl  Cl506  1  0.37766657  0.80918452  0.73909802  1
  Cl  Cl507  1  0.86956203  0.14739900  0.75345360  1
  Cl  Cl508  1  0.86428905  0.47955379  0.76279342  1
  Cl  Cl509  1  0.86935260  0.81443973  0.74632937  1
  Cl  Cl510  1  0.13787333  0.17966799  0.25699885  1
  Cl  Cl511  1  0.12958293  0.52119127  0.26595109  1
  Cl  Cl512  1  0.13182228  0.84827301  0.24231395  1
  Cl  Cl513  1  0.63724972  0.18065573  0.24697726  1
  Cl  Cl514  1  0.63258517  0.51822663  0.27034180  1
  Cl  Cl515  1  0.62747631  0.85157911  0.24662870  1
  Cl  Cl516  1  0.15094452  0.15508079  0.74908483  1
  Cl  Cl517  1  0.15041455  0.48469223  0.74253311  1
  Cl  Cl518  1  0.14539775  0.81759278  0.74465349  1
  Cl  Cl519  1  0.64513307  0.15166996  0.75671350  1
  Cl  Cl520  1  0.64155412  0.48295026  0.74556795  1
  Cl  Cl521  1  0.65338366  0.82140044  0.74690042  1
  Cl  Cl522  1  0.36131150  0.19009318  0.23800150  1
  Cl  Cl523  1  0.35283296  0.51806705  0.23408900  1
  Cl  Cl524  1  0.36009258  0.85847410  0.25487193  1
  Cl  Cl525  1  0.86291136  0.18972644  0.25430267  1
  Cl  Cl526  1  0.86258219  0.52033468  0.24156843  1
  Cl  Cl527  1  0.85213294  0.85525853  0.25842756  1
  Cl  Cl528  1  0.10984479  0.32246324  0.74765866  1
  Cl  Cl529  1  0.11808652  0.64677443  0.74578573  1
  Cl  Cl530  1  0.11153593  0.98525624  0.74990996  1
  Cl  Cl531  1  0.60930967  0.31827779  0.74705482  1
  Cl  Cl532  1  0.60942175  0.65343317  0.75155150  1
  Cl  Cl533  1  0.61093533  0.99036596  0.75240725  1
  Cl  Cl534  1  0.36757222  0.02878533  0.26376851  1
  Cl  Cl535  1  0.37874518  0.35442978  0.24480580  1
  Cl  Cl536  1  0.38619773  0.68042396  0.25175060  1
  Cl  Cl537  1  0.87618912  0.02043579  0.25904684  1
  Cl  Cl538  1  0.87509251  0.35925732  0.22771842  1
  Cl  Cl539  1  0.87799709  0.68653295  0.24377433  1
  Cl  Cl540  1  0.38464831  0.30823315  0.77122298  1
  Cl  Cl541  1  0.38598396  0.64397014  0.75284353  1
  Cl  Cl542  1  0.38768480  0.97569115  0.75486800  1
  Cl  Cl543  1  0.88933909  0.31478832  0.75144814  1
  Cl  Cl544  1  0.89730035  0.64982459  0.75334027  1
  Cl  Cl545  1  0.88935515  0.97835835  0.73737135  1
  Cl  Cl546  1  0.09475820  0.01177836  0.25322917  1
  Cl  Cl547  1  0.10096372  0.34649961  0.25340735  1
  Cl  Cl548  1  0.10414924  0.68667817  0.25263230  1
  Cl  Cl549  1  0.59533009  0.01490214  0.24483230  1
  Cl  Cl550  1  0.59953708  0.34728128  0.25119243  1
  Cl  Cl551  1  0.60929001  0.68758528  0.25296695  1
