# generated using pymatgen
data_H8PbC4(N3Cl2)2
_symmetry_space_group_name_H-M   'P 1'
_cell_length_a   16.62064744
_cell_length_b   22.49918339
_cell_length_c   21.58796687
_cell_angle_alpha   89.99890451
_cell_angle_beta   89.99932676
_cell_angle_gamma   89.99703315
_symmetry_Int_Tables_number   1
_chemical_formula_structural   H8PbC4(N3Cl2)2
_chemical_formula_sum   'H192 Pb24 C96 N144 Cl96'
_cell_volume   8072.84167109
_cell_formula_units_Z   24
loop_
 _symmetry_equiv_pos_site_id
 _symmetry_equiv_pos_as_xyz
  1  'x, y, z'
loop_
 _atom_site_type_symbol
 _atom_site_label
 _atom_site_symmetry_multiplicity
 _atom_site_fract_x
 _atom_site_fract_y
 _atom_site_fract_z
 _atom_site_occupancy
  H  H0  1  -0.00409999  0.03239042  0.68177794  1
  H  H1  1  -0.00677158  0.36541035  0.67971892  1
  H  H2  1  0.00155960  0.69977518  0.68262422  1
  H  H3  1  0.49786396  0.03140490  0.67922698  1
  H  H4  1  0.50778213  0.36579663  0.68005225  1
  H  H5  1  0.50148459  0.70010464  0.68036689  1
  H  H6  1  0.00052207  0.30077267  0.18148040  1
  H  H7  1  0.00104653  0.63472748  0.18080543  1
  H  H8  1  0.00128165  0.96851181  0.18253892  1
  H  H9  1  0.50063306  0.29988474  0.18068372  1
  H  H10  1  0.50532320  0.63394091  0.17871369  1
  H  H11  1  0.49706821  0.96718049  0.18204337  1
  H  H12  1  -0.00055136  0.03302847  0.81895075  1
  H  H13  1  0.00060853  0.36692540  0.81868121  1
  H  H14  1  0.00667088  0.69919131  0.81756127  1
  H  H15  1  0.50409359  0.03310381  0.81931092  1
  H  H16  1  0.50371996  0.36630278  0.82228833  1
  H  H17  1  0.49916341  0.69918735  0.81778971  1
  H  H18  1  0.00617464  0.30017931  0.31859570  1
  H  H19  1  0.00294952  0.63392944  0.31595300  1
  H  H20  1  -0.00428086  0.96758215  0.31817596  1
  H  H21  1  0.49755042  0.30016204  0.32094641  1
  H  H22  1  0.49402009  0.63517960  0.32151339  1
  H  H23  1  0.50563692  0.96787795  0.32127649  1
  H  H24  1  0.24593555  0.19950429  0.68112349  1
  H  H25  1  0.24758213  0.52751878  0.67978517  1
  H  H26  1  0.24898641  0.86669092  0.68113298  1
  H  H27  1  0.75177273  0.19798648  0.67783600  1
  H  H28  1  0.75629923  0.53373508  0.67949654  1
  H  H29  1  0.74411067  0.86584500  0.67998664  1
  H  H30  1  0.24841196  0.13464584  0.17960334  1
  H  H31  1  0.24385089  0.46584866  0.18033529  1
  H  H32  1  0.24512407  0.80023114  0.18164341  1
  H  H33  1  0.74882755  0.13270403  0.18154999  1
  H  H34  1  0.75119045  0.46705586  0.18016434  1
  H  H35  1  0.74976083  0.80190513  0.18140873  1
  H  H36  1  0.25560178  0.20055077  0.82159124  1
  H  H37  1  0.25274217  0.53255710  0.82023891  1
  H  H38  1  0.25737323  0.86664394  0.81780239  1
  H  H39  1  0.74488651  0.19958732  0.81900392  1
  H  H40  1  0.74397979  0.53281319  0.81758299  1
  H  H41  1  0.74966690  0.86554146  0.81607482  1
  H  H42  1  0.25146682  0.13438461  0.32002081  1
  H  H43  1  0.25211357  0.46579900  0.31935043  1
  H  H44  1  0.24530771  0.80197629  0.31954776  1
  H  H45  1  0.74389341  0.13370455  0.31974869  1
  H  H46  1  0.75036031  0.46769977  0.31891909  1
  H  H47  1  0.74548711  0.80221821  0.31988025  1
  H  H48  1  0.12451635  0.05264872  0.61285602  1
  H  H49  1  0.12738584  0.38534360  0.61922247  1
  H  H50  1  0.11931643  0.72174693  0.60734163  1
  H  H51  1  0.62458880  0.05292976  0.60953415  1
  H  H52  1  0.62085985  0.39091183  0.59952072  1
  H  H53  1  0.62017080  0.72233328  0.60373840  1
  H  H54  1  0.36884632  0.28039550  0.11655416  1
  H  H55  1  0.37072004  0.61632497  0.11749136  1
  H  H56  1  0.38032200  0.94388258  0.10377979  1
  H  H57  1  0.87214027  0.28166201  0.11369982  1
  H  H58  1  0.87506851  0.61290222  0.11235483  1
  H  H59  1  0.87577073  0.94849230  0.11394413  1
  H  H60  1  0.37040902  0.05358966  0.88021486  1
  H  H61  1  0.36984981  0.38385336  0.88515022  1
  H  H62  1  0.37300615  0.72099042  0.88918537  1
  H  H63  1  0.87477169  0.05462148  0.89192307  1
  H  H64  1  0.86969032  0.38585418  0.88376119  1
  H  H65  1  0.86988735  0.71663216  0.87560102  1
  H  H66  1  0.12386851  0.27880226  0.39749588  1
  H  H67  1  0.12531514  0.61142938  0.38723397  1
  H  H68  1  0.12449679  0.94749141  0.38479776  1
  H  H69  1  0.62542209  0.27775338  0.38712171  1
  H  H70  1  0.63000490  0.61822733  0.38145727  1
  H  H71  1  0.62048463  0.94439284  0.40075540  1
  H  H72  1  0.37571472  0.21959565  0.61308219  1
  H  H73  1  0.37292297  0.55379838  0.61107776  1
  H  H74  1  0.37917999  0.88626056  0.61575929  1
  H  H75  1  0.87284022  0.22378571  0.60550076  1
  H  H76  1  0.86492060  0.55815599  0.59642757  1
  H  H77  1  0.87568241  0.88636564  0.61455755  1
  H  H78  1  0.12959511  0.11242699  0.10315902  1
  H  H79  1  0.13639958  0.44335166  0.09827136  1
  H  H80  1  0.12995775  0.77800803  0.10428540  1
  H  H81  1  0.63148501  0.11183660  0.10653539  1
  H  H82  1  0.62790379  0.44534041  0.10872218  1
  H  H83  1  0.62666660  0.77908082  0.10857679  1
  H  H84  1  0.12675761  0.21875843  0.88650105  1
  H  H85  1  0.12968296  0.55484406  0.89282804  1
  H  H86  1  0.12237698  0.88484438  0.87928844  1
  H  H87  1  0.63040396  0.22389928  0.89825985  1
  H  H88  1  0.63293019  0.55424541  0.89768284  1
  H  H89  1  0.62448735  0.88810128  0.88857727  1
  H  H90  1  0.37322367  0.11269391  0.39392043  1
  H  H91  1  0.37462947  0.44300173  0.39125338  1
  H  H92  1  0.37939234  0.78229957  0.38073730  1
  H  H93  1  0.87487450  0.11323694  0.38570010  1
  H  H94  1  0.87468088  0.44656598  0.39067237  1
  H  H95  1  0.87645356  0.78123192  0.38551502  1
  H  H96  1  0.37647063  0.27888242  0.39555535  1
  H  H97  1  0.38343469  0.60606911  0.40259725  1
  H  H98  1  0.37258913  0.94759828  0.38508123  1
  H  H99  1  0.87571687  0.27913175  0.38597324  1
  H  H100  1  0.87598632  0.61485559  0.38327061  1
  H  H101  1  0.87512022  0.94689885  0.39055251  1
  H  H102  1  0.12345560  0.05517456  0.89214695  1
  H  H103  1  0.11902522  0.38585536  0.89328119  1
  H  H104  1  0.11727990  0.72195733  0.89727072  1
  H  H105  1  0.61937543  0.05661922  0.89851428  1
  H  H106  1  0.61760656  0.39058770  0.90034984  1
  H  H107  1  0.62153926  0.72159456  0.89236522  1
  H  H108  1  0.12176003  0.27953866  0.10965075  1
  H  H109  1  0.12459550  0.61216176  0.10868683  1
  H  H110  1  0.12516011  0.94793484  0.11200276  1
  H  H111  1  0.61820232  0.27957435  0.10572974  1
  H  H112  1  0.61772754  0.60725529  0.09977108  1
  H  H113  1  0.62951896  0.94820859  0.11946628  1
  H  H114  1  0.37542890  0.05533974  0.60719216  1
  H  H115  1  0.37298576  0.38601820  0.62004542  1
  H  H116  1  0.37146827  0.72159705  0.61488448  1
  H  H117  1  0.87543526  0.05379575  0.60736554  1
  H  H118  1  0.87963548  0.39046115  0.59956978  1
  H  H119  1  0.87003945  0.71850972  0.61946395  1
  H  H120  1  0.12421106  0.11255161  0.39031636  1
  H  H121  1  0.12576231  0.44525436  0.39043763  1
  H  H122  1  0.13053615  0.77720445  0.39835937  1
  H  H123  1  0.62597665  0.11019853  0.39556626  1
  H  H124  1  0.62567116  0.44286615  0.38874700  1
  H  H125  1  0.62780789  0.77847951  0.39599438  1
  H  H126  1  0.37497448  0.22167508  0.89473229  1
  H  H127  1  0.37854202  0.55347684  0.88993858  1
  H  H128  1  0.36908049  0.89124900  0.90026260  1
  H  H129  1  0.87917062  0.21786696  0.88008066  1
  H  H130  1  0.88065505  0.55050913  0.87596678  1
  H  H131  1  0.87274571  0.88723550  0.89026127  1
  H  H132  1  0.37822887  0.11506417  0.11301401  1
  H  H133  1  0.38279982  0.44940300  0.12599867  1
  H  H134  1  0.37890720  0.78102307  0.11835304  1
  H  H135  1  0.88063589  0.11483657  0.11735645  1
  H  H136  1  0.87697968  0.44559667  0.10856112  1
  H  H137  1  0.87620981  0.78053865  0.11334131  1
  H  H138  1  0.12762452  0.22343026  0.60325261  1
  H  H139  1  0.12422889  0.55296854  0.60941373  1
  H  H140  1  0.12980672  0.88840905  0.60783529  1
  H  H141  1  0.62436930  0.21766025  0.60944208  1
  H  H142  1  0.61848652  0.55239588  0.62335764  1
  H  H143  1  0.62679480  0.88879756  0.60336339  1
  H  H144  1  0.40038345  0.58106056  0.01245105  1
  H  H145  1  0.06480666  0.41151489  1.00478026  1
  H  H146  1  0.07684999  0.59133410  0.50019812  1
  H  H147  1  0.69697166  0.57978005  1.00608350  1
  H  H148  1  0.82033804  0.41065459  0.49218493  1
  H  H149  1  0.08071642  0.92023099  0.00137134  1
  H  H150  1  0.40711168  0.91929067  0.49146855  1
  H  H151  1  0.66484112  0.25076025  0.50735725  1
  H  H152  1  0.45541004  0.59242794  0.50530533  1
  H  H153  1  0.92904897  0.08138569  0.49930712  1
  H  H154  1  0.59682231  0.91837115  0.00739243  1
  H  H155  1  0.19439456  0.75797498  0.50285723  1
  H  H156  1  0.90230073  0.74776431  0.50736091  1
  H  H157  1  0.44129349  0.91950152  0.00001171  1
  H  H158  1  0.07515965  0.58312045  0.00484790  1
  H  H159  1  0.85327021  0.24772438  0.99252515  1
  H  H160  1  0.83830763  0.75080576  0.00235391  1
  H  H161  1  0.79316507  0.58532224  0.49548202  1
  H  H162  1  0.67783077  0.42981976  0.49665354  1
  H  H163  1  0.31700766  0.57068013  0.50419429  1
  H  H164  1  0.68772995  0.08426448  -0.00444443  1
  H  H165  1  0.92372648  0.91745127  0.50049194  1
  H  H166  1  0.06379654  0.74837999  0.49722106  1
  H  H167  1  0.91356243  0.58297873  0.00180321  1
  H  H168  1  0.17210079  0.08545202  0.49493747  1
  H  H169  1  0.07453783  0.25028949  -0.00043308  1
  H  H170  1  0.29793191  0.91792531  1.00087686  1
  H  H171  1  0.55606105  0.08211456  1.00172152  1
  H  H172  1  0.42980909  0.24850324  0.49816422  1
  H  H173  1  0.39908605  0.08420518  0.99250443  1
  H  H174  1  0.18975387  0.75307102  -0.00520626  1
  H  H175  1  0.55234888  0.41474022  0.49638059  1
  H  H176  1  0.67710995  0.75281036  0.00404715  1
  H  H177  1  0.69440593  0.25065724  1.00096713  1
  H  H178  1  0.05247668  0.74906196  1.00547980  1
  H  H179  1  0.34511241  0.75109326  0.01200554  1
  H  H180  1  0.94766963  0.41379538  0.49595272  1
  H  H181  1  0.39892440  0.41496452  0.99333002  1
  H  H182  1  0.81839932  0.23991595  0.50087761  1
  H  H183  1  0.91695134  0.59029230  0.49675292  1
  H  H184  1  0.60396054  0.58531262  0.48911814  1
  H  H185  1  0.20517133  0.41617880  -0.00853652  1
  H  H186  1  0.54961747  0.59346855  -0.00335020  1
  H  H187  1  0.35092751  0.75399527  0.49355948  1
  H  H188  1  0.91751936  0.92070668  0.00257726  1
  H  H189  1  0.17981873  0.91719601  0.49825093  1
  H  H190  1  0.18752533  0.55937704  0.50284249  1
  H  H191  1  0.56215230  0.25306741  -0.00566316  1
  Pb  Pb192  1  0.24705115  0.04655557  0.74702465  1
  Pb  Pb193  1  0.24959911  0.37712399  0.75303987  1
  Pb  Pb194  1  0.24929380  0.71787186  0.75139033  1
  Pb  Pb195  1  0.75145667  0.04875404  0.75083351  1
  Pb  Pb196  1  0.75006466  0.38101466  0.74378283  1
  Pb  Pb197  1  0.74656193  0.71215926  0.75174261  1
  Pb  Pb198  1  0.24795786  0.28728951  0.25314545  1
  Pb  Pb199  1  0.25197064  0.61967524  0.25658601  1
  Pb  Pb200  1  0.25353431  0.95164116  0.24418444  1
  Pb  Pb201  1  0.75149629  0.28263016  0.24829590  1
  Pb  Pb202  1  0.75128105  0.61851165  0.24969333  1
  Pb  Pb203  1  0.75033824  0.95588355  0.25378972  1
  Pb  Pb204  1  0.00055117  0.21248617  0.74716241  1
  Pb  Pb205  1  0.00385836  0.54747689  0.74735985  1
  Pb  Pb206  1  -0.00500743  0.88064121  0.74925277  1
  Pb  Pb207  1  0.49991363  0.21249358  0.74886140  1
  Pb  Pb208  1  0.49667513  0.54688606  0.75421973  1
  Pb  Pb209  1  0.50200855  0.88337304  0.75367241  1
  Pb  Pb210  1  0.00565397  0.11906935  0.25146119  1
  Pb  Pb211  1  0.00226992  0.45161401  0.25084705  1
  Pb  Pb212  1  0.00018487  0.78757100  0.25100470  1
  Pb  Pb213  1  0.49626626  0.11988367  0.24677997  1
  Pb  Pb214  1  0.50179116  0.45046079  0.25351108  1
  Pb  Pb215  1  0.50470431  0.78619165  0.25037012  1
  C  C216  1  -0.00116555  0.04673819  0.63388133  1
  C  C217  1  -0.00031599  0.37953993  0.63210356  1
  C  C218  1  -0.00330661  0.71387559  0.63465200  1
  C  C219  1  0.49948692  0.04661895  0.63178918  1
  C  C220  1  0.50094224  0.38017145  0.63251497  1
  C  C221  1  0.49775354  0.71469566  0.63280165  1
  C  C222  1  -0.00151308  0.28712655  0.13340695  1
  C  C223  1  0.00059565  0.61945388  0.13305288  1
  C  C224  1  0.00082971  0.95418599  0.13451811  1
  C  C225  1  0.49615528  0.28624065  0.13268156  1
  C  C226  1  0.49778396  0.61943555  0.13099942  1
  C  C227  1  0.50202026  0.95308504  0.13400263  1
  C  C228  1  -0.00092950  0.04746230  0.86688221  1
  C  C229  1  -0.00331841  0.38004294  0.86683462  1
  C  C230  1  -0.00190203  0.71262403  0.86527726  1
  C  C231  1  0.49823742  0.04747417  0.86723034  1
  C  C232  1  0.49656446  0.38051687  0.86996459  1
  C  C233  1  0.49786978  0.71374169  0.86567201  1
  C  C234  1  0.00192166  0.28610290  0.36650025  1
  C  C235  1  0.00147745  0.61963043  0.36399390  1
  C  C236  1  -0.00194238  0.95358258  0.36611231  1
  C  C237  1  0.49950202  0.28533266  0.36868243  1
  C  C238  1  0.50260542  0.61990159  0.36889780  1
  C  C239  1  0.49909353  0.95319708  0.36886922  1
  C  C240  1  0.24962452  0.21367760  0.63322538  1
  C  C241  1  0.24813453  0.54372701  0.63230057  1
  C  C242  1  0.25226704  0.88061691  0.63318938  1
  C  C243  1  0.74955134  0.21359627  0.63021380  1
  C  C244  1  0.74680659  0.54770295  0.63192269  1
  C  C245  1  0.74916753  0.88022616  0.63238740  1
  C  C246  1  0.25202592  0.12059533  0.13184394  1
  C  C247  1  0.25420885  0.45291383  0.13264622  1
  C  C248  1  0.25195654  0.78565168  0.13387444  1
  C  C249  1  0.75336825  0.11965768  0.13340798  1
  C  C250  1  0.75238084  0.45269823  0.13236302  1
  C  C251  1  0.75051382  0.78681040  0.13355575  1
  C  C252  1  0.25241910  0.21393019  0.86962399  1
  C  C253  1  0.25352297  0.54694417  0.86797438  1
  C  C254  1  0.24994261  0.88067531  0.86551962  1
  C  C255  1  0.75125718  0.21390304  0.86690432  1
  C  C256  1  0.75233383  0.54600829  0.86538704  1
  C  C257  1  0.74875199  0.87992547  0.86402491  1
  C  C258  1  0.24919186  0.12002867  0.36787053  1
  C  C259  1  0.25045775  0.45179198  0.36719242  1
  C  C260  1  0.25152869  0.78714583  0.36732328  1
  C  C261  1  0.74852137  0.11914148  0.36729957  1
  C  C262  1  0.75021029  0.45208031  0.36663150  1
  C  C263  1  0.75028976  0.78718872  0.36729176  1
  C  C264  1  0.94757925  0.40266405  0.95852697  1
  C  C265  1  0.71552027  0.42698405  0.03896869  1
  C  C266  1  0.68608076  0.57210548  0.54415743  1
  C  C267  1  0.04443135  0.92845536  0.45814382  1
  C  C268  1  0.30526516  0.76242173  0.45705426  1
  C  C269  1  0.28712103  0.23894472  0.96411200  1
  C  C270  1  0.95851982  0.92998307  0.04063362  1
  C  C271  1  0.52505122  0.40860940  0.96635766  1
  C  C272  1  0.96639532  0.07165315  0.53946333  1
  C  C273  1  0.81062611  0.56894733  0.95425508  1
  C  C274  1  0.29661207  0.09553288  0.03993559  1
  C  C275  1  0.44557141  0.26181834  0.04159779  1
  C  C276  1  0.95679684  0.59391029  0.04008855  1
  C  C277  1  0.44426164  0.40731665  0.54346875  1
  C  C278  1  0.80582543  0.23785120  0.95670149  1
  C  C279  1  0.30110771  0.90549344  0.54150030  1
  C  C280  1  0.28647438  0.42589068  0.46073414  1
  C  C281  1  0.02022631  0.73834750  0.96300544  1
  C  C282  1  0.31639013  0.42992299  0.04562780  1
  C  C283  1  0.03398570  0.26116876  0.03802748  1
  C  C284  1  0.03941678  0.59741991  0.45950782  1
  C  C285  1  0.44466211  0.07371495  0.95652061  1
  C  C286  1  0.46447487  0.07601382  0.53931556  1
  C  C287  1  0.72277804  0.09473151  0.03674360  1
  C  C288  1  0.55356146  0.92758705  0.04398115  1
  C  C289  1  0.72053351  0.75881280  0.46143634  1
  C  C290  1  0.72961362  0.57041991  0.96341674  1
  C  C291  1  0.04076405  0.92994942  0.03998798  1
  C  C292  1  0.52700747  0.26180252  0.03590054  1
  C  C293  1  0.20583918  0.23776121  0.96127351  1
  C  C294  1  0.54683114  0.25838276  0.46088845  1
  C  C295  1  0.72013770  0.90754698  0.53788463  1
  C  C296  1  0.45285269  0.74102960  0.54141219  1
  C  C297  1  0.02874864  0.40311016  0.96369832  1
  C  C298  1  0.96295148  0.92771771  0.46162389  1
  C  C299  1  0.02852838  0.73856442  0.53841996  1
  C  C300  1  0.21929291  0.90649922  0.53735519  1
  C  C301  1  0.93915713  0.73628350  0.95384388  1
  C  C302  1  0.22234641  0.76126254  0.03767077  1
  C  C303  1  0.05564227  0.40603418  0.54273352  1
  C  C304  1  0.79493499  0.76119359  0.04080186  1
  C  C305  1  0.95743412  0.59787915  0.45796729  1
  C  C306  1  0.71866590  0.09075653  0.46128680  1
  C  C307  1  0.95221201  0.26251636  0.04085688  1
  C  C308  1  0.80397510  0.09616996  0.04234952  1
  C  C309  1  0.94660585  0.73787512  0.54304488  1
  C  C310  1  0.29368110  0.57161307  0.96140042  1
  C  C311  1  0.23604761  0.42742462  0.03437008  1
  N  N312  1  0.52412937  0.07438698  0.96187104  1
  N  N313  1  0.52253561  0.58575589  0.03861623  1
  N  N314  1  0.53401972  0.73839558  0.96054046  1
  N  N315  1  0.78427001  0.24708564  0.53983298  1
  N  N316  1  0.97716652  0.40677784  0.53703922  1
  N  N317  1  0.79766579  0.90687469  0.54027993  1
  N  N318  1  0.79284336  0.42691098  0.03777253  1
  N  N319  1  0.96062584  0.07231713  0.96109600  1
  N  N320  1  0.71031048  0.42263860  0.45703442  1
  N  N321  1  0.21568669  0.57263203  0.96348726  1
  N  N322  1  0.03665301  0.59476860  0.03975979  1
  N  N323  1  0.79798488  0.75947084  0.45914774  1
  N  N324  1  0.52287029  0.40803367  0.53755366  1
  N  N325  1  0.22572127  0.75979540  0.46199827  1
  N  N326  1  0.78859173  0.43539688  0.46068711  1
  N  N327  1  0.21889161  0.24055876  0.53800501  1
  N  N328  1  0.45692416  0.73817822  0.95950511  1
  N  N329  1  0.29544810  0.23895189  0.54113965  1
  N  N330  1  0.20909619  0.42749519  0.46208303  1
  N  N331  1  0.04586735  0.07150763  0.54089330  1
  N  N332  1  0.20760370  0.57934667  0.54296684  1
  N  N333  1  0.28969889  0.58236594  0.54527019  1
  N  N334  1  0.76449352  0.57420754  0.53598988  1
  N  N335  1  0.44444642  0.59857204  0.04211822  1
  N  N336  1  0.79621403  0.09232048  0.45970032  1
  N  N337  1  0.21919481  0.09400346  0.03560993  1
  N  N338  1  0.30164275  0.76202584  0.04400008  1
  N  N339  1  0.19268952  0.90334181  0.95454843  1
  N  N340  1  0.78603974  0.90530226  0.95848151  1
  N  N341  1  0.21040699  0.09394635  0.45870784  1
  N  N342  1  0.45128674  0.92793709  0.45761969  1
  N  N343  1  0.27024164  0.90529725  0.96043461  1
  N  N344  1  0.95591289  0.26120995  0.45872782  1
  N  N345  1  0.03668006  0.07257517  0.96123924  1
  N  N346  1  0.55815201  0.60018988  0.45727928  1
  N  N347  1  0.52913770  0.92644434  0.46445619  1
  N  N348  1  0.44672712  0.40593652  0.95960536  1
  N  N349  1  0.46751168  0.25866008  0.46229699  1
  N  N350  1  0.48081757  0.58754546  0.46213665  1
  N  N351  1  0.71508587  0.76005572  0.04063785  1
  N  N352  1  0.70930788  0.90539197  0.95800584  1
  N  N353  1  0.70652536  0.23185879  0.53751468  1
  N  N354  1  0.72641961  0.23976972  0.96203140  1
  N  N355  1  0.28856529  0.09354218  0.46155574  1
  N  N356  1  0.54197092  0.07524652  0.53869074  1
  N  N357  1  0.47406212  0.92573215  0.03978252  1
  N  N358  1  0.03241783  0.26058228  0.46220146  1
  N  N359  1  0.53029953  0.74137937  0.53654303  1
  N  N360  1  0.06407482  0.05592687  0.60009302  1
  N  N361  1  0.06978640  0.38979976  0.60154464  1
  N  N362  1  0.05843618  0.72353492  0.59592796  1
  N  N363  1  0.56395623  0.05661648  0.59752355  1
  N  N364  1  0.55915668  0.38986167  0.59192495  1
  N  N365  1  0.55840527  0.72494893  0.59484717  1
  N  N366  1  0.42760533  0.27653997  0.10008312  1
  N  N367  1  0.42907628  0.60976570  0.10182401  1
  N  N368  1  0.44233576  0.94350114  0.09480746  1
  N  N369  1  0.93138476  0.27824305  0.09877490  1
  N  N370  1  0.93450478  0.60970105  0.09819405  1
  N  N371  1  0.93539661  0.94480953  0.09964797  1
  N  N372  1  0.42867330  0.05761287  0.89750147  1
  N  N373  1  0.42871283  0.38872826  0.90038690  1
  N  N374  1  0.43362576  0.72300417  0.90070367  1
  N  N375  1  0.93556893  0.05672568  0.90275328  1
  N  N376  1  0.92844699  0.38900245  0.90007983  1
  N  N377  1  0.92677472  0.72078176  0.89462682  1
  N  N378  1  0.06220451  0.27599357  0.40532294  1
  N  N379  1  0.06565260  0.61067265  0.40056403  1
  N  N380  1  0.06533969  0.94391176  0.40041338  1
  N  N381  1  0.56659353  0.27453968  0.40278033  1
  N  N382  1  0.57207636  0.61082518  0.39733002  1
  N  N383  1  0.55852835  0.94212900  0.40874355  1
  N  N384  1  0.31560862  0.22218368  0.60003294  1
  N  N385  1  0.31228518  0.55481709  0.59798318  1
  N  N386  1  0.32015133  0.88987528  0.59977842  1
  N  N387  1  0.81198443  0.22345410  0.59361499  1
  N  N388  1  0.80290584  0.55822899  0.59005474  1
  N  N389  1  0.81583634  0.88957942  0.60063813  1
  N  N390  1  0.19125949  0.11020141  0.09401729  1
  N  N391  1  0.19806453  0.44229087  0.08999518  1
  N  N392  1  0.19115540  0.77600298  0.09343404  1
  N  N393  1  0.69213554  0.10980364  0.09473811  1
  N  N394  1  0.68799909  0.44244279  0.09589508  1
  N  N395  1  0.68782318  0.77638400  0.09760506  1
  N  N396  1  0.18532374  0.22264853  0.90349699  1
  N  N397  1  0.19086387  0.55688234  0.90394714  1
  N  N398  1  0.18074958  0.88817709  0.89544035  1
  N  N399  1  0.69263648  0.22489147  0.90669923  1
  N  N400  1  0.69436440  0.55607018  0.90678950  1
  N  N401  1  0.68506353  0.88967677  0.89947948  1
  N  N402  1  0.31222431  0.10952987  0.40450649  1
  N  N403  1  0.31469339  0.44088112  0.40378840  1
  N  N404  1  0.32111782  0.77772723  0.39777982  1
  N  N405  1  0.81490288  0.11022095  0.39951765  1
  N  N406  1  0.81388615  0.44051542  0.40145649  1
  N  N407  1  0.81678240  0.77734363  0.39909169  1
  N  N408  1  0.43771317  0.27560969  0.40554635  1
  N  N409  1  0.44546889  0.60941032  0.41033922  1
  N  N410  1  0.43180496  0.94424986  0.39998348  1
  N  N411  1  0.93581556  0.27687409  0.39929418  1
  N  N412  1  0.93529129  0.61151516  0.39824106  1
  N  N413  1  0.93521650  0.94347829  0.40309058  1
  N  N414  1  0.06226556  0.05743984  0.90277277  1
  N  N415  1  0.05848093  0.38896301  0.90520462  1
  N  N416  1  0.05594139  0.72329033  0.90662478  1
  N  N417  1  0.55724707  0.05673229  0.90723658  1
  N  N418  1  0.55646487  0.39276138  0.91087208  1
  N  N419  1  0.56019718  0.72351267  0.90252671  1
  N  N420  1  0.06141102  0.27683883  0.09676859  1
  N  N421  1  0.06354179  0.60958091  0.09719226  1
  N  N422  1  0.06554184  0.94481046  0.09871173  1
  N  N423  1  0.55755764  0.27703274  0.09396093  1
  N  N424  1  0.55611164  0.60936854  0.09051429  1
  N  N425  1  0.57102716  0.94368102  0.10267474  1
  N  N426  1  0.43561227  0.05867007  0.59525606  1
  N  N427  1  0.43069220  0.39053865  0.60229943  1
  N  N428  1  0.43035075  0.72473906  0.59976067  1
  N  N429  1  0.93623574  0.05680072  0.59613020  1
  N  N430  1  0.94125838  0.38894372  0.59164769  1
  N  N431  1  0.92839961  0.72262081  0.60294111  1
  N  N432  1  0.18478532  0.11048145  0.40232617  1
  N  N433  1  0.18635821  0.44345892  0.40226036  1
  N  N434  1  0.19264697  0.77775052  0.40736885  1
  N  N435  1  0.68670757  0.10729780  0.40612787  1
  N  N436  1  0.68590697  0.44463693  0.40205886  1
  N  N437  1  0.68879219  0.77536691  0.40629068  1
  N  N438  1  0.31509034  0.22448460  0.90790098  1
  N  N439  1  0.31888109  0.55641359  0.90337887  1
  N  N440  1  0.30687594  0.89154814  0.90664725  1
  N  N441  1  0.82102642  0.22193088  0.89749165  1
  N  N442  1  0.82352177  0.55431942  0.89487429  1
  N  N443  1  0.81150677  0.88962075  0.90055338  1
  N  N444  1  0.31925364  0.11137429  0.09839631  1
  N  N445  1  0.32668829  0.44519558  0.10529285  1
  N  N446  1  0.31961538  0.77576088  0.10360126  1
  N  N447  1  0.82208263  0.11113227  0.10060365  1
  N  N448  1  0.81623210  0.44314243  0.09727346  1
  N  N449  1  0.81676210  0.77722688  0.09888962  1
  N  N450  1  0.18918035  0.22497580  0.59493306  1
  N  N451  1  0.18455867  0.55370561  0.59707425  1
  N  N452  1  0.19020569  0.89066858  0.59555868  1
  N  N453  1  0.68420602  0.22375698  0.59692708  1
  N  N454  1  0.67493099  0.55625527  0.60375280  1
  N  N455  1  0.68781749  0.89144445  0.59302701  1
  Cl  Cl456  1  0.24849685  0.05285488  0.61348081  1
  Cl  Cl457  1  0.25073784  0.38736735  0.62318740  1
  Cl  Cl458  1  0.24442088  0.72378978  0.61147515  1
  Cl  Cl459  1  0.74928340  0.05232264  0.61949901  1
  Cl  Cl460  1  0.75077390  0.39431735  0.59683538  1
  Cl  Cl461  1  0.74295569  0.71479968  0.62110343  1
  Cl  Cl462  1  0.24554673  0.28259422  0.12231236  1
  Cl  Cl463  1  0.24724244  0.61654728  0.12359112  1
  Cl  Cl464  1  0.25858418  0.94307773  0.10623077  1
  Cl  Cl465  1  0.74392873  0.27744625  0.11173278  1
  Cl  Cl466  1  0.74188757  0.61286208  0.11629544  1
  Cl  Cl467  1  0.75211830  0.94974377  0.12198207  1
  Cl  Cl468  1  0.24648309  0.05102408  0.87889388  1
  Cl  Cl469  1  0.24503838  0.38537576  0.88696498  1
  Cl  Cl470  1  0.24749800  0.72259933  0.88806156  1
  Cl  Cl471  1  0.74377814  0.05625568  0.88672338  1
  Cl  Cl472  1  0.74179835  0.38407043  0.87511399  1
  Cl  Cl473  1  0.74289074  0.72130073  0.88858094  1
  Cl  Cl474  1  0.25146527  0.28223172  0.38496736  1
  Cl  Cl475  1  0.26005988  0.60378192  0.40002704  1
  Cl  Cl476  1  0.24982846  0.94704191  0.37737816  1
  Cl  Cl477  1  0.75120121  0.27739656  0.39059256  1
  Cl  Cl478  1  0.75315512  0.60962949  0.39090195  1
  Cl  Cl479  1  0.74390252  0.94812809  0.38572580  1
  Cl  Cl480  1  -0.00223154  0.22111004  0.61625114  1
  Cl  Cl481  1  -0.00477991  0.55351970  0.61214018  1
  Cl  Cl482  1  0.00147143  0.88682693  0.61884599  1
  Cl  Cl483  1  0.50019055  0.22221693  0.61128161  1
  Cl  Cl484  1  0.49222745  0.55723836  0.60781925  1
  Cl  Cl485  1  0.50294640  0.88567849  0.62199807  1
  Cl  Cl486  1  0.00596747  0.11559987  0.12308146  1
  Cl  Cl487  1  0.00647807  0.44709539  0.11757843  1
  Cl  Cl488  1  0.00477739  0.77797096  0.11874572  1
  Cl  Cl489  1  0.50518160  0.10988301  0.10776004  1
  Cl  Cl490  1  0.50716605  0.44817717  0.12094914  1
  Cl  Cl491  1  0.50305697  0.78207274  0.11637867  1
  Cl  Cl492  1  0.00250378  0.22058186  0.87963955  1
  Cl  Cl493  1  0.00680483  0.55496001  0.88405931  1
  Cl  Cl494  1  -0.00351382  0.88606057  0.88472839  1
  Cl  Cl495  1  0.50757688  0.22013695  0.88278647  1
  Cl  Cl496  1  0.50516502  0.55642920  0.89281328  1
  Cl  Cl497  1  0.49269301  0.89340352  0.89728057  1
  Cl  Cl498  1  0.00034648  0.11109904  0.38656245  1
  Cl  Cl499  1  -0.00467100  0.44270900  0.39259711  1
  Cl  Cl500  1  0.00749282  0.77890652  0.38584526  1
  Cl  Cl501  1  0.49765403  0.11710805  0.37887406  1
  Cl  Cl502  1  0.50422741  0.44192914  0.39316681  1
  Cl  Cl503  1  0.50368768  0.78119853  0.38091711  1
  Cl  Cl504  1  0.36515689  0.14343295  0.75138307  1
  Cl  Cl505  1  0.36293102  0.47713189  0.74887000  1
  Cl  Cl506  1  0.35960512  0.80829129  0.74954463  1
  Cl  Cl507  1  0.85961165  0.14370866  0.75041003  1
  Cl  Cl508  1  0.85849040  0.47623481  0.75067438  1
  Cl  Cl509  1  0.86291896  0.80839859  0.74911349  1
  Cl  Cl510  1  0.13837603  0.19020666  0.25172974  1
  Cl  Cl511  1  0.13689095  0.52301842  0.25381459  1
  Cl  Cl512  1  0.14070939  0.85584786  0.25007730  1
  Cl  Cl513  1  0.64019636  0.19169860  0.25151214  1
  Cl  Cl514  1  0.63835663  0.52356945  0.25277932  1
  Cl  Cl515  1  0.63783419  0.85580707  0.24716683  1
  Cl  Cl516  1  0.13710205  0.14348251  0.75016898  1
  Cl  Cl517  1  0.13877619  0.47860996  0.74959964  1
  Cl  Cl518  1  0.13943447  0.80851117  0.75254539  1
  Cl  Cl519  1  0.63749131  0.14474963  0.74885602  1
  Cl  Cl520  1  0.63435670  0.47798967  0.74341509  1
  Cl  Cl521  1  0.63719392  0.80976025  0.75250397  1
  Cl  Cl522  1  0.36363009  0.18976034  0.24923131  1
  Cl  Cl523  1  0.36392839  0.52302061  0.24816652  1
  Cl  Cl524  1  0.36161953  0.85671042  0.24838162  1
  Cl  Cl525  1  0.86112448  0.19196119  0.25015940  1
  Cl  Cl526  1  0.85928823  0.52475712  0.25213677  1
  Cl  Cl527  1  0.86286756  0.85500335  0.25067633  1
  Cl  Cl528  1  0.11160545  0.31177185  0.74785342  1
  Cl  Cl529  1  0.10890582  0.64221317  0.74761785  1
  Cl  Cl530  1  0.11393975  0.97596514  0.75010277  1
  Cl  Cl531  1  0.61317500  0.31151127  0.74775454  1
  Cl  Cl532  1  0.61112785  0.64199786  0.74891723  1
  Cl  Cl533  1  0.60835499  0.97542644  0.75264412  1
  Cl  Cl534  1  0.38900066  0.02354083  0.25074745  1
  Cl  Cl535  1  0.38985742  0.35816090  0.24807405  1
  Cl  Cl536  1  0.38665803  0.68920981  0.24849525  1
  Cl  Cl537  1  0.88630240  0.02396161  0.24937481  1
  Cl  Cl538  1  0.88660908  0.35809330  0.25215894  1
  Cl  Cl539  1  0.88877473  0.68882897  0.25014349  1
  Cl  Cl540  1  0.38908982  0.31195971  0.74944604  1
  Cl  Cl541  1  0.38920885  0.64118364  0.74732340  1
  Cl  Cl542  1  0.38778245  0.97560404  0.75160495  1
  Cl  Cl543  1  0.88430292  0.31055205  0.74963912  1
  Cl  Cl544  1  0.88484929  0.64357196  0.75284394  1
  Cl  Cl545  1  0.88864799  0.97544271  0.75082716  1
  Cl  Cl546  1  0.11176266  0.02328200  0.25225034  1
  Cl  Cl547  1  0.11105477  0.35811789  0.25162796  1
  Cl  Cl548  1  0.11484673  0.68862700  0.25146291  1
  Cl  Cl549  1  0.61192941  0.02163561  0.24829637  1
  Cl  Cl550  1  0.61058629  0.35735840  0.25519716  1
  Cl  Cl551  1  0.60901900  0.68841781  0.25072328  1
