# generated using pymatgen
data_H8PbC4(N3Cl2)2
_symmetry_space_group_name_H-M   'P 1'
_cell_length_a   16.62120410
_cell_length_b   22.50156417
_cell_length_c   21.58839877
_cell_angle_alpha   89.99884526
_cell_angle_beta   90.01175936
_cell_angle_gamma   90.00291953
_symmetry_Int_Tables_number   1
_chemical_formula_structural   H8PbC4(N3Cl2)2
_chemical_formula_sum   'H192 Pb24 C96 N144 Cl96'
_cell_volume   8074.12767880
_cell_formula_units_Z   24
loop_
 _symmetry_equiv_pos_site_id
 _symmetry_equiv_pos_as_xyz
  1  'x, y, z'
loop_
 _atom_site_type_symbol
 _atom_site_label
 _atom_site_symmetry_multiplicity
 _atom_site_fract_x
 _atom_site_fract_y
 _atom_site_fract_z
 _atom_site_occupancy
  H  H0  1  0.00166792  0.03176796  0.68097133  1
  H  H1  1  -0.00236485  0.36602646  0.68258879  1
  H  H2  1  0.00132983  0.69838760  0.67817652  1
  H  H3  1  0.49902377  0.03118894  0.68165156  1
  H  H4  1  0.50031884  0.36493395  0.67954803  1
  H  H5  1  0.50458569  0.70043583  0.68056316  1
  H  H6  1  0.00444429  0.30158196  0.18026574  1
  H  H7  1  0.00405717  0.63432254  0.18001653  1
  H  H8  1  -0.00164077  0.96877830  0.18323569  1
  H  H9  1  0.50162864  0.30119310  0.18016717  1
  H  H10  1  0.49954002  0.63347068  0.17700129  1
  H  H11  1  0.50496623  0.97004722  0.18098939  1
  H  H12  1  0.00355303  0.03156649  0.82166274  1
  H  H13  1  -0.00206124  0.36632242  0.82070125  1
  H  H14  1  -0.00550727  0.69991411  0.81977382  1
  H  H15  1  0.49508400  0.03208805  0.81797707  1
  H  H16  1  0.49658005  0.36533386  0.81983567  1
  H  H17  1  0.50446226  0.69758046  0.81931873  1
  H  H18  1  -0.00684733  0.29914689  0.32013917  1
  H  H19  1  0.00795591  0.63488577  0.32083674  1
  H  H20  1  -0.00600438  0.96862862  0.32156330  1
  H  H21  1  0.50032445  0.30251679  0.31899781  1
  H  H22  1  0.49130062  0.63325207  0.32040209  1
  H  H23  1  0.50810428  0.96675762  0.31943619  1
  H  H24  1  0.25059437  0.19895563  0.67918253  1
  H  H25  1  0.24788561  0.52622351  0.67745172  1
  H  H26  1  0.25425610  0.86474742  0.67824102  1
  H  H27  1  0.75379105  0.19873007  0.68105969  1
  H  H28  1  0.75450426  0.53364911  0.67868236  1
  H  H29  1  0.74617705  0.86367777  0.67937971  1
  H  H30  1  0.25283230  0.13490870  0.18144027  1
  H  H31  1  0.25657839  0.46776253  0.18020441  1
  H  H32  1  0.25112653  0.80153948  0.17968975  1
  H  H33  1  0.74614903  0.13396242  0.18033822  1
  H  H34  1  0.74103711  0.46940845  0.17887836  1
  H  H35  1  0.75051444  0.79902998  0.18158936  1
  H  H36  1  0.24095844  0.19921561  0.81757809  1
  H  H37  1  0.24732366  0.53282428  0.82098891  1
  H  H38  1  0.24818757  0.86510609  0.81655081  1
  H  H39  1  0.76087396  0.20010757  0.82185338  1
  H  H40  1  0.75153543  0.53070079  0.82012755  1
  H  H41  1  0.74594515  0.86536961  0.81764813  1
  H  H42  1  0.25595395  0.13378481  0.31870409  1
  H  H43  1  0.25464626  0.46735970  0.31945848  1
  H  H44  1  0.24335102  0.80065735  0.32280356  1
  H  H45  1  0.74060974  0.13497735  0.32019241  1
  H  H46  1  0.75318739  0.46730118  0.31835043  1
  H  H47  1  0.74868573  0.80093322  0.31804116  1
  H  H48  1  0.12305323  0.05454778  0.60603773  1
  H  H49  1  0.12945854  0.38485101  0.61987393  1
  H  H50  1  0.12149399  0.72386825  0.60519016  1
  H  H51  1  0.62420582  0.05388151  0.61293235  1
  H  H52  1  0.62936329  0.38686548  0.61347746  1
  H  H53  1  0.61850128  0.72237212  0.60312200  1
  H  H54  1  0.37686573  0.27870502  0.11105603  1
  H  H55  1  0.37272295  0.61284700  0.11062694  1
  H  H56  1  0.37284820  0.94852332  0.11920434  1
  H  H57  1  0.87204124  0.28133933  0.11558584  1
  H  H58  1  0.87101247  0.61470946  0.11658607  1
  H  H59  1  0.87294238  0.94624958  0.11168217  1
  H  H60  1  0.37583800  0.05667433  0.89470913  1
  H  H61  1  0.38128823  0.39026576  0.89899158  1
  H  H62  1  0.37642676  0.71798301  0.88756288  1
  H  H63  1  0.87189766  0.05367633  0.88488444  1
  H  H64  1  0.88249391  0.38776172  0.89730660  1
  H  H65  1  0.88123020  0.72246034  0.89883351  1
  H  H66  1  0.13328490  0.28335881  0.37331380  1
  H  H67  1  0.12143239  0.60977231  0.40110878  1
  H  H68  1  0.12514212  0.94618248  0.38712065  1
  H  H69  1  0.62709459  0.27860903  0.38867644  1
  H  H70  1  0.62943095  0.61522870  0.37790387  1
  H  H71  1  0.61735883  0.94207514  0.40356606  1
  H  H72  1  0.36946706  0.22277913  0.60427458  1
  H  H73  1  0.37351269  0.55391385  0.61000513  1
  H  H74  1  0.37526789  0.88911225  0.60467034  1
  H  H75  1  0.87031898  0.22358047  0.60384265  1
  H  H76  1  0.86756946  0.55887042  0.59798119  1
  H  H77  1  0.87823415  0.88537195  0.61554384  1
  H  H78  1  0.12640836  0.11269933  0.11159627  1
  H  H79  1  0.11885398  0.44844191  0.12258274  1
  H  H80  1  0.12153205  0.77950341  0.11342433  1
  H  H81  1  0.63046857  0.11208075  0.10474117  1
  H  H82  1  0.62488537  0.44521692  0.10129170  1
  H  H83  1  0.61984523  0.77985495  0.11661836  1
  H  H84  1  0.13113862  0.22210352  0.89819812  1
  H  H85  1  0.13215664  0.55758218  0.89942381  1
  H  H86  1  0.12667277  0.88762909  0.88983686  1
  H  H87  1  0.62545490  0.21880026  0.88228609  1
  H  H88  1  0.62726688  0.55365717  0.89275573  1
  H  H89  1  0.62948814  0.88749814  0.89398358  1
  H  H90  1  0.36986480  0.11242891  0.39653409  1
  H  H91  1  0.37236939  0.44335886  0.39498073  1
  H  H92  1  0.37862481  0.78145639  0.38282071  1
  H  H93  1  0.87742870  0.11434331  0.37680386  1
  H  H94  1  0.86802918  0.44665470  0.39642301  1
  H  H95  1  0.87686691  0.77894611  0.38758063  1
  H  H96  1  0.37839334  0.27939501  0.39110717  1
  H  H97  1  0.38244115  0.60903357  0.40290588  1
  H  H98  1  0.37139110  0.94833385  0.37805626  1
  H  H99  1  0.88738568  0.27518692  0.40364053  1
  H  H100  1  0.87365904  0.61381365  0.38088220  1
  H  H101  1  0.87730719  0.94339161  0.39919043  1
  H  H102  1  0.12006154  0.05651145  0.89720187  1
  H  H103  1  0.13109291  0.38587271  0.88213854  1
  H  H104  1  0.12976754  0.71794807  0.88136387  1
  H  H105  1  0.62404570  0.05427749  0.88615430  1
  H  H106  1  0.62948725  0.38502497  0.88455076  1
  H  H107  1  0.62563163  0.72082975  0.89518524  1
  H  H108  1  0.12027786  0.27698063  0.10104991  1
  H  H109  1  0.11884802  0.60936691  0.09998454  1
  H  H110  1  0.12138070  0.94526259  0.10947342  1
  H  H111  1  0.62628317  0.27893251  0.10901298  1
  H  H112  1  0.62135505  0.61304143  0.10621882  1
  H  H113  1  0.62133016  0.94319758  0.10421270  1
  H  H114  1  0.37428921  0.05471486  0.61027413  1
  H  H115  1  0.38065880  0.38865729  0.60377921  1
  H  H116  1  0.37009307  0.71912403  0.62002156  1
  H  H117  1  0.87428834  0.05303868  0.61259444  1
  H  H118  1  0.88030549  0.38831768  0.60695851  1
  H  H119  1  0.87229994  0.71925472  0.61110922  1
  H  H120  1  0.12177872  0.11427772  0.37902637  1
  H  H121  1  0.12358057  0.44698428  0.38556094  1
  H  H122  1  0.13155256  0.77466652  0.40214632  1
  H  H123  1  0.63052556  0.10874760  0.40274066  1
  H  H124  1  0.61954125  0.44805520  0.37818848  1
  H  H125  1  0.62831401  0.77843801  0.39400647  1
  H  H126  1  0.37848203  0.21703235  0.87451127  1
  H  H127  1  0.38078913  0.55337147  0.88290251  1
  H  H128  1  0.37576249  0.88719997  0.88586109  1
  H  H129  1  0.87266897  0.22399946  0.90302112  1
  H  H130  1  0.87591682  0.55449827  0.89296819  1
  H  H131  1  0.87839453  0.88492346  0.87916204  1
  H  H132  1  0.37574367  0.11280037  0.10805939  1
  H  H133  1  0.36619896  0.44455075  0.09772665  1
  H  H134  1  0.37010973  0.77630295  0.10558700  1
  H  H135  1  0.87896563  0.11598529  0.11786763  1
  H  H136  1  0.87306877  0.44786467  0.11548206  1
  H  H137  1  0.86888173  0.77860333  0.10748190  1
  H  H138  1  0.12022807  0.21983826  0.61312468  1
  H  H139  1  0.12492816  0.55643621  0.60821481  1
  H  H140  1  0.12628689  0.88587850  0.61124024  1
  H  H141  1  0.62115873  0.21914950  0.61834208  1
  H  H142  1  0.62056901  0.55295100  0.61780167  1
  H  H143  1  0.63052211  0.88907848  0.60010249  1
  H  H144  1  0.91595930  0.08087450  0.50233780  1
  H  H145  1  0.45087047  0.58398129  0.50903576  1
  H  H146  1  0.09766432  0.41213627  0.50708390  1
  H  H147  1  0.70233971  0.08307939  0.50405478  1
  H  H148  1  0.54320734  0.91280060  0.50226049  1
  H  H149  1  0.68631743  0.08453506  -0.00475764  1
  H  H150  1  0.44771131  0.42098486  0.99992855  1
  H  H151  1  0.29813118  0.41630402  -0.00758365  1
  H  H152  1  0.35234428  0.75134592  0.49160777  1
  H  H153  1  0.15293150  0.24957035  0.50589679  1
  H  H154  1  0.57858633  0.08145727  0.50113296  1
  H  H155  1  0.93621721  0.41376487  0.49683710  1
  H  H156  1  0.05042365  0.58258594  -0.00189949  1
  H  H157  1  0.90525631  0.08340519  0.99214017  1
  H  H158  1  0.41668808  0.24797473  0.00113084  1
  H  H159  1  0.17249505  0.08481568  0.00228061  1
  H  H160  1  0.41971134  0.74527871  0.99803852  1
  H  H161  1  0.81465693  0.75230747  -0.00417579  1
  H  H162  1  0.08653408  0.91882751  0.49286438  1
  H  H163  1  0.80814599  0.42276174  0.50610040  1
  H  H164  1  0.17949517  0.91572999  0.99822126  1
  H  H165  1  0.57958893  0.25076865  0.00449638  1
  H  H166  1  0.31756399  0.57413902  0.50243182  1
  H  H167  1  0.13925291  0.41977572  0.01294627  1
  H  H168  1  0.56001889  0.92411305  -0.00089925  1
  H  H169  1  0.30861480  0.08627627  0.50661611  1
  H  H170  1  0.18616377  0.56865335  0.50143180  1
  H  H171  1  0.93790528  0.41626094  1.00531067  1
  H  H172  1  0.94414878  0.74762525  1.00749162  1
  H  H173  1  0.05397245  0.25083049  -0.00145265  1
  H  H174  1  0.31571858  0.25248908  0.49650751  1
  H  H175  1  0.60781928  0.58738234  0.48741879  1
  H  H176  1  0.84809313  0.91333997  0.99201760  1
  H  H177  1  0.09909972  0.74805120  0.98830986  1
  H  H178  1  0.40484686  0.91832730  0.00728889  1
  H  H179  1  0.68680798  0.91213916  1.00417364  1
  H  H180  1  0.56054529  0.75034696  0.49494612  1
  H  H181  1  0.69738331  0.91336432  0.49759289  1
  H  H182  1  0.32288812  0.91681168  0.50119693  1
  H  H183  1  0.19739326  0.58426769  1.00301346  1
  H  H184  1  0.65421895  0.24943575  0.50676425  1
  H  H185  1  0.95773265  0.24978781  0.50936199  1
  H  H186  1  0.05372481  0.58629236  0.50429187  1
  H  H187  1  0.64613396  0.41969198  0.49218600  1
  H  H188  1  0.19729316  0.24894752  1.00595023  1
  H  H189  1  0.91470821  0.75014647  0.50556811  1
  H  H190  1  0.42578855  0.07550252  0.50321106  1
  H  H191  1  0.80947030  0.24724870  0.49946131  1
  Pb  Pb192  1  0.25005571  0.04520230  0.75104189  1
  Pb  Pb193  1  0.25630515  0.38217310  0.75275002  1
  Pb  Pb194  1  0.25140001  0.71269604  0.74809608  1
  Pb  Pb195  1  0.75485097  0.04792267  0.74632893  1
  Pb  Pb196  1  0.75165150  0.37803021  0.74928051  1
  Pb  Pb197  1  0.75299018  0.71406990  0.75147859  1
  Pb  Pb198  1  0.25256541  0.28654069  0.24838613  1
  Pb  Pb199  1  0.24481195  0.61620205  0.25170389  1
  Pb  Pb200  1  0.24674874  0.95354191  0.25085107  1
  Pb  Pb201  1  0.74667504  0.28542360  0.25728875  1
  Pb  Pb202  1  0.74881857  0.62247960  0.24834167  1
  Pb  Pb203  1  0.74927320  0.95156059  0.25244362  1
  Pb  Pb204  1  0.00546399  0.21519373  0.75503913  1
  Pb  Pb205  1  -0.00266096  0.54788949  0.75038591  1
  Pb  Pb206  1  0.00293357  0.87898389  0.74764087  1
  Pb  Pb207  1  0.50055358  0.21176369  0.75053326  1
  Pb  Pb208  1  0.50515380  0.54779172  0.74660654  1
  Pb  Pb209  1  0.50404170  0.88091912  0.75040399  1
  Pb  Pb210  1  0.00014216  0.12139959  0.24618561  1
  Pb  Pb211  1  -0.00611848  0.45186323  0.25431668  1
  Pb  Pb212  1  -0.00119917  0.78677245  0.25138717  1
  Pb  Pb213  1  0.50078828  0.11727545  0.25671862  1
  Pb  Pb214  1  0.50152363  0.45435056  0.24208381  1
  Pb  Pb215  1  0.49527797  0.78507914  0.24967304  1
  C  C216  1  -0.00026990  0.04649145  0.63322847  1
  C  C217  1  0.00274220  0.38026490  0.63466036  1
  C  C218  1  -0.00205998  0.71369258  0.63073684  1
  C  C219  1  0.49861379  0.04632487  0.63382260  1
  C  C220  1  0.50326785  0.38006761  0.63210279  1
  C  C221  1  0.49799781  0.71430993  0.63276133  1
  C  C222  1  -0.00073631  0.28682955  0.13256242  1
  C  C223  1  -0.00167939  0.61976166  0.13232651  1
  C  C224  1  -0.00238018  0.95406310  0.13540146  1
  C  C225  1  0.50192085  0.28624259  0.13226323  1
  C  C226  1  0.49781152  0.61918733  0.12891405  1
  C  C227  1  0.49995068  0.95468562  0.13338308  1
  C  C228  1  -0.00194820  0.04692553  0.86907197  1
  C  C229  1  0.00352130  0.38032753  0.86852271  1
  C  C230  1  0.00244921  0.71428356  0.86751094  1
  C  C231  1  0.49823029  0.04702934  0.86567280  1
  C  C232  1  0.50223258  0.38036217  0.86737770  1
  C  C233  1  0.50230940  0.71241724  0.86710607  1
  C  C234  1  0.00459724  0.28622522  0.36777000  1
  C  C235  1  0.00142085  0.62051032  0.36839577  1
  C  C236  1  -0.00086944  0.95274534  0.36882135  1
  C  C237  1  0.50237574  0.28719193  0.36633736  1
  C  C238  1  0.50167471  0.61918354  0.36801069  1
  C  C239  1  0.49924613  0.95239630  0.36691991  1
  C  C240  1  0.24616295  0.21391929  0.63133735  1
  C  C241  1  0.24878644  0.54378345  0.63050446  1
  C  C242  1  0.25238786  0.87999473  0.63065435  1
  C  C243  1  0.74859698  0.21352274  0.63319859  1
  C  C244  1  0.74774452  0.54791052  0.63108988  1
  C  C245  1  0.75127089  0.87886002  0.63189223  1
  C  C246  1  0.25168088  0.12001123  0.13368981  1
  C  C247  1  0.24649216  0.45310985  0.13272930  1
  C  C248  1  0.24725550  0.78622212  0.13240459  1
  C  C249  1  0.75160299  0.12034294  0.13242654  1
  C  C250  1  0.74654656  0.45408569  0.13167950  1
  C  C251  1  0.74667007  0.78590200  0.13345489  1
  C  C252  1  0.25011250  0.21283726  0.86518937  1
  C  C253  1  0.25318080  0.54725237  0.86864736  1
  C  C254  1  0.25039546  0.87986405  0.86435128  1
  C  C255  1  0.75268331  0.21380147  0.86944012  1
  C  C256  1  0.75180883  0.54582813  0.86777811  1
  C  C257  1  0.75154792  0.87963747  0.86553809  1
  C  C258  1  0.24937562  0.11994858  0.36648205  1
  C  C259  1  0.24980135  0.45267419  0.36696787  1
  C  C260  1  0.25173601  0.78565175  0.37007471  1
  C  C261  1  0.74909988  0.12019341  0.36758624  1
  C  C262  1  0.74659515  0.45306252  0.36616946  1
  C  C263  1  0.75131956  0.78671787  0.36599352  1
  C  C264  1  0.98849688  0.26081000  0.46632914  1
  C  C265  1  0.54744214  0.40728014  0.54067997  1
  C  C266  1  0.27907317  0.75734108  0.03839886  1
  C  C267  1  0.44824263  0.92784116  0.04369447  1
  C  C268  1  0.53485372  0.59379688  0.03602225  1
  C  C269  1  0.26794177  0.42704964  0.03580610  1
  C  C270  1  0.06861994  0.26373472  0.45423312  1
  C  C271  1  0.69759453  0.76301290  0.04184636  1
  C  C272  1  0.44298450  0.73827062  0.54296559  1
  C  C273  1  0.95855860  0.07162925  0.54075687  1
  C  C274  1  0.27996911  0.42434530  0.46117949  1
  C  C275  1  0.97548787  0.73918922  0.96407753  1
  C  C276  1  0.80944393  0.09225285  0.45506633  1
  C  C277  1  0.21692120  0.90536650  0.95828571  1
  C  C278  1  0.72132332  0.90371332  0.96229300  1
  C  C279  1  0.80318539  0.90356978  0.95672396  1
  C  C280  1  0.19490468  0.09540365  0.45600491  1
  C  C281  1  0.97141690  0.40435044  0.53813943  1
  C  C282  1  0.05323725  0.40327526  0.54290570  1
  C  C283  1  0.69652931  0.57290199  0.54121359  1
  C  C284  1  0.31003541  0.23604797  0.95341547  1
  C  C285  1  0.69286700  0.42932607  0.45681493  1
  C  C286  1  0.71904297  0.42376515  0.03790261  1
  C  C287  1  0.69747753  0.23996865  0.54333779  1
  C  C288  1  0.94544540  0.59256808  0.45730733  1
  C  C289  1  0.77474456  0.42979176  0.46339279  1
  C  C290  1  0.54092559  0.07317960  0.54145402  1
  C  C291  1  0.77533696  0.24077376  0.96530980  1
  C  C292  1  0.22562996  0.75637750  0.46651618  1
  C  C293  1  0.97546186  0.40616283  0.96541139  1
  C  C294  1  0.27577307  0.09520808  0.46398733  1
  C  C295  1  0.46086060  0.73668654  0.95953019  1
  C  C296  1  0.45439739  0.59382932  0.03746072  1
  C  C297  1  0.02982336  0.07628717  0.96452866  1
  C  C298  1  0.72304108  0.09476363  0.03554875  1
  C  C299  1  0.05671364  0.40499446  0.95872330  1
  C  C300  1  0.03469919  0.74388507  0.53681820  1
  C  C301  1  0.30740977  0.57496794  0.95837155  1
  C  C302  1  0.27885520  0.24133168  0.53666943  1
  C  C303  1  0.21281982  0.09474429  0.04094361  1
  C  C304  1  0.52422889  0.73998272  0.53547326  1
  C  C305  1  0.46671203  0.25936975  0.45978378  1
  C  C306  1  0.77871100  0.76213037  0.03669793  1
  C  C307  1  0.80470690  0.09654161  0.04178005  1
  C  C308  1  0.20539481  0.90727137  0.53838704  1
  C  C309  1  0.22903634  0.23830783  0.96314976  1
  C  C310  1  0.48043121  0.59386352  0.46528085  1
  C  C311  1  0.45974220  0.25882030  0.03945925  1
  N  N312  1  0.73091691  0.09117445  0.46276353  1
  N  N313  1  0.46992972  0.40846507  0.53645820  1
  N  N314  1  0.55917843  0.59572002  0.45563767  1
  N  N315  1  0.43890408  0.92922413  0.45470547  1
  N  N316  1  0.78984316  0.57397221  0.96110842  1
  N  N317  1  0.72679318  0.90671313  0.53871919  1
  N  N318  1  0.96619507  0.92614946  0.46398699  1
  N  N319  1  0.05456605  0.73826568  0.95649821  1
  N  N320  1  0.18918505  0.42855485  0.04524500  1
  N  N321  1  0.77360499  0.57441593  0.53340964  1
  N  N322  1  0.53999499  0.73794014  0.96230884  1
  N  N323  1  0.29065168  0.58343200  0.54434810  1
  N  N324  1  0.77694552  0.24206252  0.53951702  1
  N  N325  1  0.55508637  0.40562063  0.95731268  1
  N  N326  1  0.94391080  0.59505210  0.04264385  1
  N  N327  1  0.30392800  0.75949661  0.45878101  1
  N  N328  1  0.79451818  0.76130515  0.45881075  1
  N  N329  1  0.52781703  0.92533769  0.03955655  1
  N  N330  1  0.47729179  0.40698934  0.96092332  1
  N  N331  1  0.95762179  0.92821527  0.04193081  1
  N  N332  1  0.19933791  0.23986143  0.54066604  1
  N  N333  1  0.51645496  0.92769371  0.46222578  1
  N  N334  1  0.95569454  0.74146133  0.53977019  1
  N  N335  1  0.20964880  0.58311833  0.54298272  1
  N  N336  1  0.29630594  0.90501220  0.95744348  1
  N  N337  1  0.02397494  0.59258445  0.46319803  1
  N  N338  1  0.04428618  0.92693001  0.45830243  1
  N  N339  1  0.80453194  0.90597868  0.54262574  1
  N  N340  1  0.71778352  0.76124649  0.46107945  1
  N  N341  1  0.46126308  0.07492561  0.54188274  1
  N  N342  1  0.94661281  0.26221583  0.04247894  1
  N  N343  1  0.53965435  0.25929758  0.03990977  1
  N  N344  1  0.28483904  0.90768480  0.53727732  1
  N  N345  1  0.29210519  0.09461348  0.03910583  1
  N  N346  1  0.71366673  0.57390663  0.96104101  1
  N  N347  1  0.69807062  0.23874686  0.96029963  1
  N  N348  1  0.54258558  0.07215267  0.95830288  1
  N  N349  1  0.20119811  0.75879463  0.03982704  1
  N  N350  1  0.02165154  0.59306864  0.03860247  1
  N  N351  1  0.95098947  0.07451765  0.95884881  1
  N  N352  1  0.22864386  0.57530186  0.96312800  1
  N  N353  1  0.79651239  0.42446111  0.04091219  1
  N  N354  1  0.20243175  0.42580705  0.45935181  1
  N  N355  1  0.03789020  0.07268154  0.53823904  1
  N  N356  1  0.03413139  0.92755787  0.04124488  1
  N  N357  1  0.46604276  0.07349501  0.96081355  1
  N  N358  1  0.02423374  0.26044393  0.03884488  1
  N  N359  1  0.54453696  0.25892473  0.45987004  1
  N  N360  1  0.06180583  0.05691389  0.59623181  1
  N  N361  1  0.07121536  0.38854905  0.60304398  1
  N  N362  1  0.06105208  0.72651670  0.59292861  1
  N  N363  1  0.56438295  0.05705307  0.59885592  1
  N  N364  1  0.57027032  0.39037764  0.59875214  1
  N  N365  1  0.55738409  0.72482201  0.59282936  1
  N  N366  1  0.43639469  0.27547270  0.09713782  1
  N  N367  1  0.43116725  0.60917651  0.09436298  1
  N  N368  1  0.43095058  0.94427190  0.10228604  1
  N  N369  1  0.93143103  0.27790209  0.10107820  1
  N  N370  1  0.92997490  0.61089824  0.10148557  1
  N  N371  1  0.93355846  0.94472635  0.10005914  1
  N  N372  1  0.43724131  0.05792394  0.90356493  1
  N  N373  1  0.44322764  0.39225159  0.90659588  1
  N  N374  1  0.43619831  0.72182429  0.90121393  1
  N  N375  1  0.93100573  0.05624461  0.90026423  1
  N  N376  1  0.94350041  0.39058956  0.90783021  1
  N  N377  1  0.94270902  0.72429246  0.90880658  1
  N  N378  1  0.07763780  0.27896224  0.39445847  1
  N  N379  1  0.05979092  0.61172535  0.40906567  1
  N  N380  1  0.06544196  0.94323611  0.40097410  1
  N  N381  1  0.56682874  0.27667112  0.40041508  1
  N  N382  1  0.57145775  0.61116699  0.39578086  1
  N  N383  1  0.55485421  0.94044882  0.40881870  1
  N  N384  1  0.30834012  0.22527285  0.59292403  1
  N  N385  1  0.31324000  0.55528771  0.59654423  1
  N  N386  1  0.31437795  0.89030722  0.59407629  1
  N  N387  1  0.80849469  0.22342676  0.59418178  1
  N  N388  1  0.80565508  0.55823383  0.59068733  1
  N  N389  1  0.81917002  0.88988869  0.60130071  1
  N  N390  1  0.18655791  0.10999693  0.09870463  1
  N  N391  1  0.17683128  0.44413837  0.10495830  1
  N  N392  1  0.18142263  0.77698147  0.09966544  1
  N  N393  1  0.69125843  0.10971651  0.09332582  1
  N  N394  1  0.68569915  0.44170947  0.09216888  1
  N  N395  1  0.67848362  0.77711071  0.10016381  1
  N  N396  1  0.19279132  0.22375777  0.90689120  1
  N  N397  1  0.19398147  0.55675038  0.90836060  1
  N  N398  1  0.18742735  0.89031902  0.90150641  1
  N  N399  1  0.68407259  0.22141084  0.89898377  1
  N  N400  1  0.68840311  0.55648874  0.90330890  1
  N  N401  1  0.69048410  0.88893056  0.90497764  1
  N  N402  1  0.30901141  0.11055358  0.40682168  1
  N  N403  1  0.31135351  0.44066825  0.40589543  1
  N  N404  1  0.32039477  0.77734987  0.39934495  1
  N  N405  1  0.82053724  0.10948187  0.39595660  1
  N  N406  1  0.80687588  0.44411707  0.40658117  1
  N  N407  1  0.81645568  0.77743943  0.40001401  1
  N  N408  1  0.43885441  0.27621993  0.40344233  1
  N  N409  1  0.44423547  0.60841840  0.41095006  1
  N  N410  1  0.42905770  0.94511315  0.39554891  1
  N  N411  1  0.94936495  0.27531608  0.41100557  1
  N  N412  1  0.93135118  0.60940014  0.39860849  1
  N  N413  1  0.93849158  0.94161751  0.40771317  1
  N  N414  1  0.05931139  0.05920832  0.90872654  1
  N  N415  1  0.07319945  0.38955942  0.89971110  1
  N  N416  1  0.07088564  0.72398764  0.89678154  1
  N  N417  1  0.56373920  0.05610760  0.89929174  1
  N  N418  1  0.57008960  0.38891618  0.89887378  1
  N  N419  1  0.56418312  0.72251609  0.90451264  1
  N  N420  1  0.05833817  0.27600287  0.09302103  1
  N  N421  1  0.05670174  0.60886838  0.09237536  1
  N  N422  1  0.06017903  0.94350841  0.09900525  1
  N  N423  1  0.56537814  0.27680662  0.09685558  1
  N  N424  1  0.56185980  0.60907616  0.09165780  1
  N  N425  1  0.55967045  0.94505517  0.09422540  1
  N  N426  1  0.43527606  0.05518017  0.59808740  1
  N  N427  1  0.44233094  0.39096305  0.59461341  1
  N  N428  1  0.42790354  0.72294627  0.60207858  1
  N  N429  1  0.93381288  0.05599674  0.59890352  1
  N  N430  1  0.94125056  0.39016003  0.59574271  1
  N  N431  1  0.93232207  0.72262487  0.59765982  1
  N  N432  1  0.17947035  0.11030443  0.39730624  1
  N  N433  1  0.18340312  0.44348474  0.39912374  1
  N  N434  1  0.19282406  0.77261789  0.41159109  1
  N  N435  1  0.69266292  0.11014001  0.40933490  1
  N  N436  1  0.67723055  0.44369746  0.39607282  1
  N  N437  1  0.68984584  0.77666727  0.40362772  1
  N  N438  1  0.32173945  0.22097882  0.89407378  1
  N  N439  1  0.32272220  0.55780778  0.89987794  1
  N  N440  1  0.31542436  0.88900185  0.89848604  1
  N  N441  1  0.81126065  0.22567072  0.91112317  1
  N  N442  1  0.81511940  0.55641167  0.90336595  1
  N  N443  1  0.82032066  0.88879541  0.89646197  1
  N  N444  1  0.31456557  0.11049915  0.09721779  1
  N  N445  1  0.30397391  0.44227499  0.09000976  1
  N  N446  1  0.30923084  0.77382563  0.09426425  1
  N  N447  1  0.82087006  0.11180877  0.10063270  1
  N  N448  1  0.81361152  0.44364107  0.10085260  1
  N  N449  1  0.80846095  0.77675553  0.09514287  1
  N  N450  1  0.17986453  0.22278926  0.59888229  1
  N  N451  1  0.18547281  0.55533211  0.59542472  1
  N  N452  1  0.18547749  0.89037504  0.59623828  1
  N  N453  1  0.67960647  0.22338231  0.60187344  1
  N  N454  1  0.67829449  0.55688996  0.60062920  1
  N  N455  1  0.69243079  0.88851708  0.59199490  1
  Cl  Cl456  1  0.25098455  0.05229956  0.61471661  1
  Cl  Cl457  1  0.25746482  0.38493189  0.62128325  1
  Cl  Cl458  1  0.24508905  0.72159480  0.61429598  1
  Cl  Cl459  1  0.74626623  0.05696095  0.60765126  1
  Cl  Cl460  1  0.75525129  0.38636939  0.61441549  1
  Cl  Cl461  1  0.74773336  0.71806310  0.62025476  1
  Cl  Cl462  1  0.24316618  0.28060584  0.11430704  1
  Cl  Cl463  1  0.23896735  0.60931192  0.10977127  1
  Cl  Cl464  1  0.24448681  0.94611099  0.11886226  1
  Cl  Cl465  1  0.74812375  0.28195457  0.12466671  1
  Cl  Cl466  1  0.74737540  0.61787967  0.12071619  1
  Cl  Cl467  1  0.74517447  0.94400318  0.11785468  1
  Cl  Cl468  1  0.24703207  0.05464121  0.88336068  1
  Cl  Cl469  1  0.25973100  0.38947355  0.89003254  1
  Cl  Cl470  1  0.25279798  0.71443306  0.88036057  1
  Cl  Cl471  1  0.74774863  0.05445885  0.87906148  1
  Cl  Cl472  1  0.75442903  0.38250783  0.87992875  1
  Cl  Cl473  1  0.75501662  0.72264764  0.88599126  1
  Cl  Cl474  1  0.25869308  0.27968427  0.38331208  1
  Cl  Cl475  1  0.25038104  0.60453894  0.40075998  1
  Cl  Cl476  1  0.24708337  0.94454829  0.38774943  1
  Cl  Cl477  1  0.75943909  0.27225787  0.39559360  1
  Cl  Cl478  1  0.75067606  0.61431622  0.37982853  1
  Cl  Cl479  1  0.74075552  0.94437475  0.39479884  1
  Cl  Cl480  1  -0.00702714  0.22157158  0.61874037  1
  Cl  Cl481  1  0.00171389  0.56232690  0.60834767  1
  Cl  Cl482  1  0.00377426  0.88338156  0.61321716  1
  Cl  Cl483  1  0.49330440  0.21666387  0.61986050  1
  Cl  Cl484  1  0.49442674  0.55592804  0.61025057  1
  Cl  Cl485  1  0.50719452  0.89158127  0.60557964  1
  Cl  Cl486  1  0.00318364  0.11361112  0.11144658  1
  Cl  Cl487  1  -0.00317540  0.44867128  0.12002821  1
  Cl  Cl488  1  -0.00374679  0.77613266  0.11500755  1
  Cl  Cl489  1  0.50160658  0.11576739  0.12525130  1
  Cl  Cl490  1  0.49060907  0.44456860  0.10498174  1
  Cl  Cl491  1  0.49240002  0.78055233  0.11806596  1
  Cl  Cl492  1  0.00456315  0.22150110  0.89246955  1
  Cl  Cl493  1  0.00878934  0.55831855  0.89079461  1
  Cl  Cl494  1  0.00343614  0.88327769  0.87792034  1
  Cl  Cl495  1  0.50297944  0.22418767  0.88609428  1
  Cl  Cl496  1  0.50470297  0.54984016  0.87725314  1
  Cl  Cl497  1  0.50386325  0.89114893  0.88796864  1
  Cl  Cl498  1  -0.00168906  0.11548777  0.37678358  1
  Cl  Cl499  1  -0.00527591  0.44915543  0.38748956  1
  Cl  Cl500  1  0.00218980  0.77643337  0.38690263  1
  Cl  Cl501  1  0.50260347  0.10731049  0.39750818  1
  Cl  Cl502  1  0.49344424  0.45133149  0.37283515  1
  Cl  Cl503  1  0.50481632  0.78085276  0.38517014  1
  Cl  Cl504  1  0.36319871  0.14502808  0.75097790  1
  Cl  Cl505  1  0.35946048  0.47710365  0.75128501  1
  Cl  Cl506  1  0.36190707  0.81096494  0.74785114  1
  Cl  Cl507  1  0.85777081  0.14311198  0.74980418  1
  Cl  Cl508  1  0.86451034  0.47895781  0.74821888  1
  Cl  Cl509  1  0.86249714  0.81093775  0.74852884  1
  Cl  Cl510  1  0.13579948  0.18977298  0.25353979  1
  Cl  Cl511  1  0.14003533  0.52475737  0.24999886  1
  Cl  Cl512  1  0.13830184  0.85438860  0.25115632  1
  Cl  Cl513  1  0.63965671  0.19024312  0.25243696  1
  Cl  Cl514  1  0.63619118  0.52254029  0.25375012  1
  Cl  Cl515  1  0.63713621  0.85693854  0.24802266  1
  Cl  Cl516  1  0.13757358  0.14562300  0.74664305  1
  Cl  Cl517  1  0.14030880  0.47659180  0.74939126  1
  Cl  Cl518  1  0.13731276  0.81134176  0.74817843  1
  Cl  Cl519  1  0.63559524  0.14436884  0.74750390  1
  Cl  Cl520  1  0.63725239  0.47783704  0.74704534  1
  Cl  Cl521  1  0.63755721  0.81164094  0.75043593  1
  Cl  Cl522  1  0.35772183  0.18901656  0.24885060  1
  Cl  Cl523  1  0.35682230  0.52273119  0.24820043  1
  Cl  Cl524  1  0.36328570  0.85546429  0.25493473  1
  Cl  Cl525  1  0.86385504  0.18834204  0.24884316  1
  Cl  Cl526  1  0.86128976  0.52213855  0.24786076  1
  Cl  Cl527  1  0.86267817  0.85710487  0.25156437  1
  Cl  Cl528  1  0.11078056  0.30938937  0.75074953  1
  Cl  Cl529  1  0.11527240  0.64504549  0.74964148  1
  Cl  Cl530  1  0.11194192  0.97879289  0.74864614  1
  Cl  Cl531  1  0.61411442  0.31110093  0.75033668  1
  Cl  Cl532  1  0.60718928  0.64440479  0.74899556  1
  Cl  Cl533  1  0.60835746  0.97617273  0.74900985  1
  Cl  Cl534  1  0.38714903  0.02189509  0.25273179  1
  Cl  Cl535  1  0.38720275  0.35527823  0.24604334  1
  Cl  Cl536  1  0.39153820  0.68865241  0.25194354  1
  Cl  Cl537  1  0.88648487  0.02225191  0.25148261  1
  Cl  Cl538  1  0.89271245  0.35537278  0.24978938  1
  Cl  Cl539  1  0.88849373  0.68781017  0.25067858  1
  Cl  Cl540  1  0.38887993  0.31092774  0.75212226  1
  Cl  Cl541  1  0.38479501  0.64345692  0.74525888  1
  Cl  Cl542  1  0.38607528  0.97717674  0.74729438  1
  Cl  Cl543  1  0.88738629  0.31108461  0.74884504  1
  Cl  Cl544  1  0.89303567  0.64380945  0.75025036  1
  Cl  Cl545  1  0.88703438  0.97820024  0.75068371  1
  Cl  Cl546  1  0.11272534  0.02189781  0.25364207  1
  Cl  Cl547  1  0.11456229  0.35668975  0.25292447  1
  Cl  Cl548  1  0.11323319  0.68828460  0.25124380  1
  Cl  Cl549  1  0.60912941  0.02282164  0.25203192  1
  Cl  Cl550  1  0.61202129  0.35629729  0.25156325  1
  Cl  Cl551  1  0.61250134  0.68875765  0.25104473  1
