# generated using pymatgen
data_H8PbC4(N3Cl2)2
_symmetry_space_group_name_H-M   'P 1'
_cell_length_a   16.62884015
_cell_length_b   22.52009361
_cell_length_c   21.59551441
_cell_angle_alpha   90.00193139
_cell_angle_beta   90.01280059
_cell_angle_gamma   90.00420681
_symmetry_Int_Tables_number   1
_chemical_formula_structural   H8PbC4(N3Cl2)2
_chemical_formula_sum   'H192 Pb24 C96 N144 Cl96'
_cell_volume   8087.15358841
_cell_formula_units_Z   24
loop_
 _symmetry_equiv_pos_site_id
 _symmetry_equiv_pos_as_xyz
  1  'x, y, z'
loop_
 _atom_site_type_symbol
 _atom_site_label
 _atom_site_symmetry_multiplicity
 _atom_site_fract_x
 _atom_site_fract_y
 _atom_site_fract_z
 _atom_site_occupancy
  H  H0  1  -0.01283552  0.03088368  0.67680972  1
  H  H1  1  -0.00865203  0.35793354  0.67451746  1
  H  H2  1  0.01757932  0.69871870  0.68222896  1
  H  H3  1  0.49916917  0.02818200  0.68308447  1
  H  H4  1  0.50328988  0.36245757  0.67646502  1
  H  H5  1  0.48205116  0.69680705  0.67414159  1
  H  H6  1  0.00103192  0.30452986  0.17603908  1
  H  H7  1  0.01268930  0.63827756  0.17714511  1
  H  H8  1  0.01136173  0.97391339  0.17834151  1
  H  H9  1  0.50663272  0.30399366  0.18202869  1
  H  H10  1  0.49469788  0.63299676  0.18120072  1
  H  H11  1  0.49408628  0.97352671  0.17375018  1
  H  H12  1  -0.00610051  0.02671664  0.82843381  1
  H  H13  1  -0.00208772  0.36490578  0.82099353  1
  H  H14  1  -0.02101293  0.69530548  0.82276213  1
  H  H15  1  0.50067049  0.02753358  0.82428609  1
  H  H16  1  0.50010026  0.36119173  0.81939439  1
  H  H17  1  0.51775627  0.69649012  0.82156669  1
  H  H18  1  -0.01014839  0.30592778  0.32236381  1
  H  H19  1  -0.00115693  0.63543127  0.31613251  1
  H  H20  1  0.01299483  0.97182277  0.32884123  1
  H  H21  1  0.50017292  0.30510348  0.32163501  1
  H  H22  1  0.49026892  0.63809482  0.32274107  1
  H  H23  1  0.50713126  0.97250484  0.31893465  1
  H  H24  1  0.26477938  0.19581233  0.68075366  1
  H  H25  1  0.25072796  0.52799398  0.68192905  1
  H  H26  1  0.25535797  0.86453900  0.67955843  1
  H  H27  1  0.73766793  0.19532839  0.67896719  1
  H  H28  1  0.76251925  0.52905615  0.68005723  1
  H  H29  1  0.74646857  0.86146201  0.67853122  1
  H  H30  1  0.26038573  0.13390226  0.17690488  1
  H  H31  1  0.25518923  0.47034764  0.17568304  1
  H  H32  1  0.25163614  0.80397957  0.18040825  1
  H  H33  1  0.74053484  0.13277283  0.17303445  1
  H  H34  1  0.75166344  0.47110566  0.18082078  1
  H  H35  1  0.75039662  0.80656549  0.18344943  1
  H  H36  1  0.24726869  0.19502204  0.81727963  1
  H  H37  1  0.25635462  0.53144589  0.81933609  1
  H  H38  1  0.24084302  0.86089086  0.82026866  1
  H  H39  1  0.74647860  0.19133460  0.82681979  1
  H  H40  1  0.75641472  0.53003129  0.81978555  1
  H  H41  1  0.76262716  0.86673080  0.82272265  1
  H  H42  1  0.25270292  0.13695849  0.31560288  1
  H  H43  1  0.24452400  0.47326496  0.32423590  1
  H  H44  1  0.24389171  0.80948466  0.32285965  1
  H  H45  1  0.76549836  0.13431718  0.32246741  1
  H  H46  1  0.73873012  0.47232186  0.32258429  1
  H  H47  1  0.76522050  0.80458915  0.31981531  1
  H  H48  1  0.12541528  0.04807308  0.62495104  1
  H  H49  1  0.11906706  0.38659774  0.61120795  1
  H  H50  1  0.12050853  0.72552804  0.59594232  1
  H  H51  1  0.62971572  0.05201179  0.61592329  1
  H  H52  1  0.61285373  0.39274155  0.59543978  1
  H  H53  1  0.62170999  0.71533773  0.62497505  1
  H  H54  1  0.36988484  0.28157860  0.12342841  1
  H  H55  1  0.38851660  0.60869486  0.09826537  1
  H  H56  1  0.38493217  0.94296996  0.09470530  1
  H  H57  1  0.86460858  0.28141829  0.11913865  1
  H  H58  1  0.88928655  0.61117293  0.10702451  1
  H  H59  1  0.88152406  0.95097369  0.11173739  1
  H  H60  1  0.37921212  0.05500239  0.89570487  1
  H  H61  1  0.38741821  0.39001540  0.89718396  1
  H  H62  1  0.37665941  0.71807285  0.87176902  1
  H  H63  1  0.87991900  0.05788348  0.90407841  1
  H  H64  1  0.88622679  0.39133553  0.89978632  1
  H  H65  1  0.88380327  0.72593626  0.91361633  1
  H  H66  1  0.12301438  0.28257726  0.38444695  1
  H  H67  1  0.13349657  0.61785457  0.37562067  1
  H  H68  1  0.11687615  0.93958479  0.41106504  1
  H  H69  1  0.62388049  0.27731534  0.39028418  1
  H  H70  1  0.62445915  0.61751835  0.37972699  1
  H  H71  1  0.62207528  0.94649838  0.39657417  1
  H  H72  1  0.37283651  0.22035532  0.59834479  1
  H  H73  1  0.37039003  0.55674973  0.60719901  1
  H  H74  1  0.38018589  0.88627805  0.60834712  1
  H  H75  1  0.87717667  0.21479735  0.62289218  1
  H  H76  1  0.86730961  0.55599155  0.59423968  1
  H  H77  1  0.88231274  0.88558272  0.62189277  1
  H  H78  1  0.12189964  0.11540752  0.12031345  1
  H  H79  1  0.11453602  0.44930399  0.12442686  1
  H  H80  1  0.12517735  0.77910178  0.11193598  1
  H  H81  1  0.62170835  0.10905910  0.10032237  1
  H  H82  1  0.61548322  0.44788972  0.12274063  1
  H  H83  1  0.62501134  0.78217854  0.11476084  1
  H  H84  1  0.13806707  0.22038891  0.89842874  1
  H  H85  1  0.11636734  0.55122208  0.87432582  1
  H  H86  1  0.11961034  0.88940542  0.89333425  1
  H  H87  1  0.64059307  0.22264521  0.90913214  1
  H  H88  1  0.62188485  0.55308783  0.88089965  1
  H  H89  1  0.62054596  0.88191073  0.87354127  1
  H  H90  1  0.37046703  0.11351733  0.39402881  1
  H  H91  1  0.37947596  0.45017917  0.38426167  1
  H  H92  1  0.37909827  0.77943014  0.37738580  1
  H  H93  1  0.87061788  0.10861905  0.40695730  1
  H  H94  1  0.87257056  0.44633264  0.38168030  1
  H  H95  1  0.87792615  0.77850392  0.39941227  1
  H  H96  1  0.37586311  0.28312781  0.39186571  1
  H  H97  1  0.37783318  0.61396334  0.40166598  1
  H  H98  1  0.37386253  0.94692499  0.38042720  1
  H  H99  1  0.87520082  0.27447929  0.39804107  1
  H  H100  1  0.88518280  0.61069034  0.39425011  1
  H  H101  1  0.87263837  0.95379840  0.38180246  1
  H  H102  1  0.12774214  0.05145056  0.88823074  1
  H  H103  1  0.13358993  0.38806850  0.87988381  1
  H  H104  1  0.12377616  0.71670981  0.86756198  1
  H  H105  1  0.62822663  0.05459814  0.89150383  1
  H  H106  1  0.63529605  0.38482076  0.87883607  1
  H  H107  1  0.62087628  0.72756423  0.90678718  1
  H  H108  1  0.11084169  0.27273037  0.09616472  1
  H  H109  1  0.13769187  0.61038547  0.10739777  1
  H  H110  1  0.12975873  0.94344848  0.10270517  1
  H  H111  1  0.61681945  0.27280868  0.10252323  1
  H  H112  1  0.63345557  0.61709832  0.12853022  1
  H  H113  1  0.63106437  0.95372727  0.11652933  1
  H  H114  1  0.38101343  0.05635073  0.60660546  1
  H  H115  1  0.36667865  0.38627942  0.62117813  1
  H  H116  1  0.37776502  0.72393829  0.58874541  1
  H  H117  1  0.88040138  0.05830916  0.59428527  1
  H  H118  1  0.87062571  0.38757601  0.60201452  1
  H  H119  1  0.87576837  0.71749501  0.62945815  1
  H  H120  1  0.12193785  0.11362159  0.38266125  1
  H  H121  1  0.13147685  0.44218967  0.40110478  1
  H  H122  1  0.13227214  0.77958083  0.40223200  1
  H  H123  1  0.62613567  0.11785330  0.37324119  1
  H  H124  1  0.62622900  0.44300064  0.40201724  1
  H  H125  1  0.63027550  0.78031849  0.37954266  1
  H  H126  1  0.38439915  0.21348150  0.87215089  1
  H  H127  1  0.36219659  0.55903399  0.90252424  1
  H  H128  1  0.36903440  0.88651762  0.88629714  1
  H  H129  1  0.88567046  0.21172748  0.87927448  1
  H  H130  1  0.86980745  0.55580006  0.89829819  1
  H  H131  1  0.86564247  0.89547942  0.90557569  1
  H  H132  1  0.36814515  0.10572543  0.09442060  1
  H  H133  1  0.35949987  0.44011017  0.09173276  1
  H  H134  1  0.37383919  0.77978809  0.10669412  1
  H  H135  1  0.87006786  0.11304911  0.11008427  1
  H  H136  1  0.86222851  0.44316830  0.10072928  1
  H  H137  1  0.87419940  0.77913526  0.11271346  1
  H  H138  1  0.12660834  0.21493711  0.62748014  1
  H  H139  1  0.12184762  0.55171325  0.61257440  1
  H  H140  1  0.13100031  0.89036485  0.60876397  1
  H  H141  1  0.63088760  0.22557541  0.59630940  1
  H  H142  1  0.62317517  0.55103722  0.62576489  1
  H  H143  1  0.63533964  0.88979795  0.59769343  1
  H  H144  1  0.67033438  0.75199641  0.00449426  1
  H  H145  1  0.28911627  0.59011392  1.00471007  1
  H  H146  1  0.55938593  0.91301690  0.50108226  1
  H  H147  1  0.69520474  0.41761634  0.50318438  1
  H  H148  1  0.92482432  0.41760542  0.49952897  1
  H  H149  1  0.09457299  0.08279350  0.99534738  1
  H  H150  1  0.60821938  0.92047671  0.00687329  1
  H  H151  1  0.17074279  0.75239488  0.00207052  1
  H  H152  1  0.78887882  0.58025599  0.49509167  1
  H  H153  1  0.10787449  0.41335002  0.99061780  1
  H  H154  1  0.70512399  0.25251111  0.49292897  1
  H  H155  1  0.61678472  0.58970959  1.01369074  1
  H  H156  1  0.35198682  0.42329685  0.49293092  1
  H  H157  1  0.19194124  0.41351084  0.50732965  1
  H  H158  1  0.28263545  0.41575297  -0.00865376  1
  H  H159  1  0.04337030  0.75354909  0.49493987  1
  H  H160  1  0.03746079  0.25161367  -0.00570332  1
  H  H161  1  0.81357214  0.74754408  0.50340361  1
  H  H162  1  0.64099879  0.08546528  0.48824575  1
  H  H163  1  0.60492556  0.41291724  0.98717192  1
  H  H164  1  0.97299732  0.74832580  1.00854004  1
  H  H165  1  0.30391196  0.24097549  0.49083665  1
  H  H166  1  0.89076795  0.92212819  0.49180394  1
  H  H167  1  0.20255868  0.74926769  0.50275029  1
  H  H168  1  0.36368899  0.24087863  -0.01320711  1
  H  H169  1  0.71575903  0.24467646  1.01088486  1
  H  H170  1  0.82304312  0.76316589  0.00498354  1
  H  H171  1  0.10870767  0.08084063  0.51032312  1
  H  H172  1  0.43300231  0.27553665  0.49893995  1
  H  H173  1  0.08933193  0.58449704  0.00291987  1
  H  H174  1  0.80540958  0.58650629  1.00393323  1
  H  H175  1  0.45024616  0.41986064  1.00354771  1
  H  H176  1  0.14466484  0.24199234  0.51274211  1
  H  H177  1  0.20414718  0.24592339  1.00500076  1
  H  H178  1  0.45723980  0.58235155  -0.00708117  1
  H  H179  1  0.88924876  0.24602368  0.01056600  1
  H  H180  1  0.56625111  0.22743118  0.48335391  1
  H  H181  1  0.54793449  0.23987670  -0.00060262  1
  H  H182  1  0.60810352  0.74653090  0.50959936  1
  H  H183  1  0.95134490  0.42221042  1.00611487  1
  H  H184  1  0.79367529  0.41472608  -0.00446230  1
  H  H185  1  0.33152227  0.91828834  0.50079323  1
  H  H186  1  0.10682662  0.58771352  0.48832167  1
  H  H187  1  0.32510362  0.92042238  0.99485475  1
  H  H188  1  0.59912186  0.58743924  0.49447576  1
  H  H189  1  0.54223873  0.75464684  1.00464607  1
  H  H190  1  0.79228139  0.92710402  1.00910939  1
  H  H191  1  0.94638013  0.58531702  0.50283819  1
  Pb  Pb192  1  0.25570748  0.04816588  0.75205617  1
  Pb  Pb193  1  0.25196253  0.38041300  0.75524756  1
  Pb  Pb194  1  0.25424286  0.71430222  0.73541836  1
  Pb  Pb195  1  0.75522324  0.04697044  0.74830602  1
  Pb  Pb196  1  0.75748863  0.38358388  0.74678437  1
  Pb  Pb197  1  0.75154652  0.71529428  0.76362713  1
  Pb  Pb198  1  0.24166038  0.28366196  0.24773761  1
  Pb  Pb199  1  0.25397107  0.61806784  0.24435399  1
  Pb  Pb200  1  0.24821415  0.95168839  0.24800255  1
  Pb  Pb201  1  0.74205894  0.28152054  0.24940822  1
  Pb  Pb202  1  0.75263185  0.61782609  0.25494689  1
  Pb  Pb203  1  0.74763029  0.95342036  0.25245924  1
  Pb  Pb204  1  0.00392042  0.21329375  0.76095912  1
  Pb  Pb205  1  0.00211136  0.54983868  0.74615594  1
  Pb  Pb206  1  0.00296261  0.88166013  0.75102872  1
  Pb  Pb207  1  0.50996778  0.21790901  0.74651637  1
  Pb  Pb208  1  0.49856484  0.54765023  0.75147342  1
  Pb  Pb209  1  0.50120556  0.88036416  0.74519915  1
  Pb  Pb210  1  -0.00810667  0.11661892  0.25448778  1
  Pb  Pb211  1  -0.00339823  0.45138048  0.25236575  1
  Pb  Pb212  1  0.00259516  0.78414583  0.25303792  1
  Pb  Pb213  1  0.49212393  0.11710624  0.24583803  1
  Pb  Pb214  1  0.49264941  0.44993251  0.24525585  1
  Pb  Pb215  1  0.50001509  0.78534856  0.24118038  1
  C  C216  1  -0.00136090  0.04578994  0.62997690  1
  C  C217  1  -0.00681237  0.37605801  0.62809872  1
  C  C218  1  0.00424910  0.71349831  0.63547836  1
  C  C219  1  0.50340288  0.04461524  0.63588064  1
  C  C220  1  0.49439983  0.37970037  0.63024449  1
  C  C221  1  0.49471440  0.71185945  0.62755745  1
  C  C222  1  -0.00803104  0.28710003  0.12948692  1
  C  C223  1  0.01368429  0.62038762  0.13057868  1
  C  C224  1  0.00775469  0.95649687  0.13155917  1
  C  C225  1  0.49740417  0.28675498  0.13565869  1
  C  C226  1  0.50607856  0.61988898  0.13370215  1
  C  C227  1  0.50402112  0.95696857  0.12729140  1
  C  C228  1  0.00099583  0.04432975  0.87481007  1
  C  C229  1  0.00695204  0.37987816  0.86840207  1
  C  C230  1  -0.00487216  0.71152966  0.86843219  1
  C  C231  1  0.50300138  0.04510253  0.87085725  1
  C  C232  1  0.50833313  0.37762722  0.86634365  1
  C  C233  1  0.50546534  0.71259201  0.86785822  1
  C  C234  1  -0.00362270  0.28825124  0.36861692  1
  C  C235  1  0.00617946  0.62129109  0.36391769  1
  C  C236  1  0.00028608  0.95595079  0.37519823  1
  C  C237  1  0.49999018  0.28857019  0.36892345  1
  C  C238  1  0.49838039  0.62338528  0.37009194  1
  C  C239  1  0.50079600  0.95595436  0.36584447  1
  C  C240  1  0.25430065  0.21008945  0.63336937  1
  C  C241  1  0.24743545  0.54492260  0.63492655  1
  C  C242  1  0.25554419  0.88021637  0.63207804  1
  C  C243  1  0.74874899  0.21095853  0.63222436  1
  C  C244  1  0.75131364  0.54430411  0.63324446  1
  C  C245  1  0.75466573  0.87841305  0.63209047  1
  C  C246  1  0.24984051  0.11877264  0.13016494  1
  C  C247  1  0.24319514  0.45464654  0.12900863  1
  C  C248  1  0.25024166  0.78794726  0.13304526  1
  C  C249  1  0.74428492  0.11816005  0.12522225  1
  C  C250  1  0.74259022  0.45472694  0.13404304  1
  C  C251  1  0.75041922  0.79078699  0.13585143  1
  C  C252  1  0.25706615  0.20980845  0.86454787  1
  C  C253  1  0.24458062  0.54675666  0.86611879  1
  C  C254  1  0.24308825  0.87865463  0.86687887  1
  C  C255  1  0.75760564  0.20728853  0.87349754  1
  C  C256  1  0.74903926  0.54611555  0.86676550  1
  C  C257  1  0.74958367  0.88136328  0.86962040  1
  C  C258  1  0.24829714  0.12157593  0.36317230  1
  C  C259  1  0.25235956  0.45675600  0.37121637  1
  C  C260  1  0.25150155  0.79100527  0.36865340  1
  C  C261  1  0.75304787  0.11999363  0.36940660  1
  C  C262  1  0.74551862  0.45498612  0.36909638  1
  C  C263  1  0.75762083  0.78809113  0.36667807  1
  C  C264  1  0.26031169  0.57699586  0.96137687  1
  C  C265  1  0.55822013  0.73784446  0.54120672  1
  C  C266  1  0.21086060  0.76167510  0.04060951  1
  C  C267  1  0.76335386  0.91216911  0.96663077  1
  C  C268  1  0.56816428  0.59761333  0.04637899  1
  C  C269  1  0.98188062  0.40969792  0.96347548  1
  C  C270  1  0.52620837  0.92540993  0.45956682  1
  C  C271  1  0.79163851  0.09176790  0.03528772  1
  C  C272  1  0.01780134  0.92331479  0.47145388  1
  C  C273  1  0.31650480  0.23281292  0.95291219  1
  C  C274  1  0.04059245  0.40945861  0.53813918  1
  C  C275  1  0.05976918  0.07207157  0.54274311  1
  C  C276  1  0.22568055  0.42603355  0.46592497  1
  C  C277  1  0.76325758  0.42578591  0.03877572  1
  C  C278  1  0.97183436  0.07862455  0.96874281  1
  C  C279  1  0.68345061  0.90637193  0.95448308  1
  C  C280  1  0.77336893  0.57558329  0.96131671  1
  C  C281  1  0.28427442  0.90868288  0.95731356  1
  C  C282  1  0.23536116  0.23533606  0.96206411  1
  C  C283  1  0.97925581  0.59583390  0.46069179  1
  C  C284  1  0.97003468  0.25270538  0.46071653  1
  C  C285  1  0.48180219  0.40784988  0.96115211  1
  C  C286  1  0.26814313  0.08877890  0.03461949  1
  C  C287  1  0.82048599  0.23388140  0.95950223  1
  C  C288  1  0.48087395  0.92379352  0.03191584  1
  C  C289  1  0.51772551  0.25424967  0.04172304  1
  C  C290  1  0.30882984  0.75434209  0.45325386  1
  C  C291  1  0.01624845  0.74151291  0.53916290  1
  C  C292  1  0.47792149  0.74030009  0.53050515  1
  C  C293  1  0.43956905  0.40962226  0.54363835  1
  C  C294  1  0.06094374  0.59741398  0.45383172  1
  C  C295  1  0.78074469  0.75899819  0.46144193  1
  C  C296  1  0.17884152  0.42599876  0.04429630  1
  C  C297  1  0.70840164  0.76264756  0.04390332  1
  C  C298  1  0.43958486  0.74389014  0.95130588  1
  C  C299  1  0.73314234  0.24018760  0.53662749  1
  C  C300  1  0.97916111  0.07552604  0.53380279  1
  C  C301  1  0.55286592  0.59718437  0.46008028  1
  C  C302  1  0.69044462  0.09426332  0.45625345  1
  C  C303  1  0.80788839  0.90766945  0.54480092  1
  C  C304  1  0.29238939  0.90755009  0.53955647  1
  C  C305  1  0.77088998  0.09172561  0.46630867  1
  C  C306  1  0.27419314  0.23391779  0.53508873  1
  C  C307  1  0.48736828  0.59413321  0.03590814  1
  C  C308  1  0.46897799  0.07772068  0.96238914  1
  C  C309  1  0.71106210  0.09044239  0.03206250  1
  C  C310  1  0.19316940  0.23329274  0.54560682  1
  C  C311  1  0.47180838  0.59643815  0.46617823  1
  N  N312  1  0.99166859  0.74257034  0.96282006  1
  N  N313  1  0.54068482  0.26295532  0.46101368  1
  N  N314  1  0.28045920  0.57498282  0.54116893  1
  N  N315  1  0.68824906  0.57183722  0.54840210  1
  N  N316  1  0.68471568  0.42674162  0.04635828  1
  N  N317  1  0.05041041  0.07563006  0.96223069  1
  N  N318  1  0.54623567  0.07780619  0.96225864  1
  N  N319  1  0.30474987  0.43013920  0.45951163  1
  N  N320  1  0.51625497  0.41198783  0.53392979  1
  N  N321  1  0.01290767  0.24985639  0.03840145  1
  N  N322  1  0.29006798  0.76071219  0.03884374  1
  N  N323  1  0.04706897  0.25599570  0.45788498  1
  N  N324  1  0.97247108  0.59202981  0.03792377  1
  N  N325  1  0.74223306  0.23856776  0.96791562  1
  N  N326  1  0.96222566  0.92450197  0.04179574  1
  N  N327  1  0.94042068  0.92920866  0.46055969  1
  N  N328  1  0.23058575  0.75608126  0.46090835  1
  N  N329  1  0.81128754  0.23671098  0.54535656  1
  N  N330  1  0.51706776  0.74553096  0.96215337  1
  N  N331  1  0.03825961  0.92156226  0.03923324  1
  N  N332  1  0.43926543  0.25750791  0.04866720  1
  N  N333  1  0.73103790  0.90955237  0.53576472  1
  N  N334  1  0.05068527  0.59159780  0.04005482  1
  N  N335  1  0.27828936  0.09416732  0.45828312  1
  N  N336  1  0.20516685  0.90948492  0.96025361  1
  N  N337  1  0.56073234  0.40584249  0.95382145  1
  N  N338  1  0.54872382  0.07359493  0.54528112  1
  N  N339  1  0.72412612  0.42400491  0.46170981  1
  N  N340  1  0.76514607  0.57444964  0.53909487  1
  N  N341  1  0.78809746  0.76232761  0.04399314  1
  N  N342  1  0.06741955  0.73926583  0.94882233  1
  N  N343  1  0.96148526  0.40884954  0.53644952  1
  N  N344  1  0.21318070  0.90866039  0.53909185  1
  N  N345  1  0.93828031  0.73876657  0.54991252  1
  N  N346  1  0.93552181  0.26074856  0.04360825  1
  N  N347  1  0.18201841  0.57423398  0.95213338  1
  N  N348  1  0.06084904  0.40693728  0.95589422  1
  N  N349  1  0.45881518  0.25851835  0.45952221  1
  N  N350  1  0.20445395  0.57289082  0.54295650  1
  N  N351  1  0.20240818  0.09388012  0.45413192  1
  N  N352  1  0.70197219  0.75959322  0.45518487  1
  N  N353  1  0.44714742  0.92549223  0.45450885  1
  N  N354  1  0.55885247  0.92842475  0.04041718  1
  N  N355  1  0.80212537  0.42582459  0.45646172  1
  N  N356  1  0.25690854  0.42283223  0.03450909  1
  N  N357  1  0.69470151  0.57591349  0.95489962  1
  N  N358  1  0.19130120  0.09242423  0.04183964  1
  N  N359  1  0.47271724  0.07537594  0.54203929  1
  N  N360  1  0.07026551  0.05366284  0.60364602  1
  N  N361  1  0.06023229  0.38976901  0.59512362  1
  N  N362  1  0.05814508  0.72606798  0.59114716  1
  N  N363  1  0.56939985  0.05450687  0.60325938  1
  N  N364  1  0.55057062  0.39274379  0.58935923  1
  N  N365  1  0.56701937  0.72026555  0.60251582  1
  N  N366  1  0.42805632  0.27744598  0.10725395  1
  N  N367  1  0.45007887  0.60829220  0.09064329  1
  N  N368  1  0.44653922  0.94132165  0.08573004  1
  N  N369  1  0.92220871  0.27613641  0.10221732  1
  N  N370  1  0.95011046  0.60849880  0.09517702  1
  N  N371  1  0.94175433  0.94624555  0.09890709  1
  N  N372  1  0.43959147  0.05826207  0.90736760  1
  N  N373  1  0.44897954  0.39086719  0.90670322  1
  N  N374  1  0.43217500  0.72393171  0.89287853  1
  N  N375  1  0.94095413  0.05978118  0.91451195  1
  N  N376  1  0.94794998  0.39305706  0.90924663  1
  N  N377  1  0.94614431  0.72302168  0.91515199  1
  N  N378  1  0.06386020  0.27836444  0.39911264  1
  N  N379  1  0.07599878  0.61311894  0.39366514  1
  N  N380  1  0.05527440  0.93981933  0.41864370  1
  N  N381  1  0.56331922  0.27151217  0.40135293  1
  N  N382  1  0.56805573  0.61398247  0.39906803  1
  N  N383  1  0.56053316  0.94376660  0.40555667  1
  N  N384  1  0.31113855  0.21986260  0.59042231  1
  N  N385  1  0.30873221  0.55811170  0.59800364  1
  N  N386  1  0.32006388  0.89005309  0.59630509  1
  N  N387  1  0.81917380  0.21843148  0.60473912  1
  N  N388  1  0.80508739  0.55495677  0.58945835  1
  N  N389  1  0.82496611  0.88937265  0.60363632  1
  N  N390  1  0.17985373  0.11115970  0.10261903  1
  N  N391  1  0.17003319  0.44420634  0.10358554  1
  N  N392  1  0.18484757  0.77766143  0.09834232  1
  N  N393  1  0.68178597  0.10635353  0.08691151  1
  N  N394  1  0.67333686  0.44493800  0.10583145  1
  N  N395  1  0.68487952  0.77863444  0.10129927  1
  N  N396  1  0.19975408  0.22110591  0.90652756  1
  N  N397  1  0.17394988  0.55556746  0.89248355  1
  N  N398  1  0.18101591  0.89091432  0.90333004  1
  N  N399  1  0.70288539  0.21898224  0.91589852  1
  N  N400  1  0.68084749  0.55739566  0.89598616  1
  N  N401  1  0.67561391  0.88805316  0.89534112  1
  N  N402  1  0.30841616  0.11126221  0.40204697  1
  N  N403  1  0.32083053  0.45020782  0.40150338  1
  N  N404  1  0.32188309  0.77533768  0.39589233  1
  N  N405  1  0.80853574  0.10723605  0.41405612  1
  N  N406  1  0.81431732  0.44280490  0.39779213  1
  N  N407  1  0.81638103  0.77609374  0.40735739  1
  N  N408  1  0.43634423  0.28397556  0.40532529  1
  N  N409  1  0.43908745  0.61178085  0.41194212  1
  N  N410  1  0.43311314  0.94457453  0.39587220  1
  N  N411  1  0.93630844  0.27229007  0.40733721  1
  N  N412  1  0.94660430  0.61067650  0.40428768  1
  N  N413  1  0.92922715  0.94980328  0.40138614  1
  N  N414  1  0.06903056  0.05386147  0.90457530  1
  N  N415  1  0.07593224  0.38661795  0.89786976  1
  N  N416  1  0.06890248  0.72204219  0.88936161  1
  N  N417  1  0.56778475  0.05704095  0.90399363  1
  N  N418  1  0.57692710  0.38600857  0.89587895  1
  N  N419  1  0.55903200  0.72432860  0.91157138  1
  N  N420  1  0.04861436  0.27511341  0.08811789  1
  N  N421  1  0.07722767  0.60985867  0.09548386  1
  N  N422  1  0.06812719  0.94135286  0.09477141  1
  N  N423  1  0.55483759  0.27219469  0.09477160  1
  N  N424  1  0.57824016  0.61352207  0.10701861  1
  N  N425  1  0.57343901  0.94895256  0.09904222  1
  N  N426  1  0.44300427  0.05756728  0.59810161  1
  N  N427  1  0.42361786  0.39050623  0.60237198  1
  N  N428  1  0.43964402  0.72476485  0.58267309  1
  N  N429  1  0.94231563  0.05968845  0.58635142  1
  N  N430  1  0.93145776  0.38717668  0.59142787  1
  N  N431  1  0.93280189  0.72161557  0.60992644  1
  N  N432  1  0.18212597  0.11039302  0.39517174  1
  N  N433  1  0.19280680  0.44220915  0.41093159  1
  N  N434  1  0.19418584  0.78057689  0.40969155  1
  N  N435  1  0.68093347  0.11186053  0.39492242  1
  N  N436  1  0.68811617  0.44407161  0.40990909  1
  N  N437  1  0.68915206  0.77775287  0.39588145  1
  N  N438  1  0.32850375  0.21751647  0.89236405  1
  N  N439  1  0.30002521  0.55993697  0.90912198  1
  N  N440  1  0.30922293  0.89021112  0.90024642  1
  N  N441  1  0.83022442  0.21673512  0.89989483  1
  N  N442  1  0.80819433  0.55763699  0.90739663  1
  N  N443  1  0.80366789  0.89587580  0.91258138  1
  N  N444  1  0.30614693  0.10483634  0.08748835  1
  N  N445  1  0.29714826  0.44349911  0.08577170  1
  N  N446  1  0.31277048  0.77712276  0.09670672  1
  N  N447  1  0.81217583  0.10855274  0.09224765  1
  N  N448  1  0.80022649  0.44245836  0.09243350  1
  N  N449  1  0.81382798  0.78329168  0.09976512  1
  N  N450  1  0.18252272  0.21877870  0.60661387  1
  N  N451  1  0.18237285  0.55410357  0.60092813  1
  N  N452  1  0.19203432  0.89181488  0.59703176  1
  N  N453  1  0.69296776  0.22488499  0.58964393  1
  N  N454  1  0.68019631  0.55519561  0.60747431  1
  N  N455  1  0.69783787  0.89078632  0.59150133  1
  Cl  Cl456  1  0.25896389  0.05546244  0.62192688  1
  Cl  Cl457  1  0.24169361  0.38971969  0.62183964  1
  Cl  Cl458  1  0.24613862  0.72729290  0.59806758  1
  Cl  Cl459  1  0.75621221  0.05592678  0.61347669  1
  Cl  Cl460  1  0.74064072  0.39353455  0.60786795  1
  Cl  Cl461  1  0.75073442  0.71831874  0.63207362  1
  Cl  Cl462  1  0.23223327  0.27909030  0.11263003  1
  Cl  Cl463  1  0.26264832  0.60606447  0.10826726  1
  Cl  Cl464  1  0.25914188  0.94505740  0.11297032  1
  Cl  Cl465  1  0.73808682  0.27165998  0.10602248  1
  Cl  Cl466  1  0.76760531  0.61332976  0.12027426  1
  Cl  Cl467  1  0.75808302  0.95040874  0.11715147  1
  Cl  Cl468  1  0.25307826  0.05513384  0.88566620  1
  Cl  Cl469  1  0.26432115  0.39489738  0.89489072  1
  Cl  Cl470  1  0.25193047  0.71619525  0.86584691  1
  Cl  Cl471  1  0.75544543  0.05763704  0.88077585  1
  Cl  Cl472  1  0.76311766  0.38733127  0.88553575  1
  Cl  Cl473  1  0.75676724  0.72958275  0.90487643  1
  Cl  Cl474  1  0.25362230  0.28090619  0.38301575  1
  Cl  Cl475  1  0.25833311  0.61772446  0.37495795  1
  Cl  Cl476  1  0.24466572  0.93937079  0.38088845  1
  Cl  Cl477  1  0.74701372  0.27888536  0.38511726  1
  Cl  Cl478  1  0.76243382  0.60349390  0.39459609  1
  Cl  Cl479  1  0.74583435  0.94919136  0.38199400  1
  Cl  Cl480  1  -0.00000350  0.21938128  0.63387564  1
  Cl  Cl481  1  -0.00824473  0.55331948  0.60958174  1
  Cl  Cl482  1  0.00743457  0.89071151  0.61528905  1
  Cl  Cl483  1  0.50262798  0.23002807  0.60384059  1
  Cl  Cl484  1  0.49386376  0.55495403  0.61885454  1
  Cl  Cl485  1  0.51146942  0.88699218  0.60971770  1
  Cl  Cl486  1  -0.00287146  0.11373226  0.12098526  1
  Cl  Cl487  1  -0.01515757  0.44263210  0.11473318  1
  Cl  Cl488  1  -0.00478903  0.76686036  0.10655213  1
  Cl  Cl489  1  0.49292972  0.10857837  0.11301315  1
  Cl  Cl490  1  0.48122982  0.43981093  0.10833236  1
  Cl  Cl491  1  0.50207547  0.77877965  0.10292975  1
  Cl  Cl492  1  0.01517271  0.22649998  0.89866089  1
  Cl  Cl493  1  -0.00964070  0.55288055  0.87927300  1
  Cl  Cl494  1  -0.00727987  0.88976665  0.88171838  1
  Cl  Cl495  1  0.52172685  0.22564636  0.88260185  1
  Cl  Cl496  1  0.48728934  0.55496292  0.88636896  1
  Cl  Cl497  1  0.49245257  0.88353957  0.87795429  1
  Cl  Cl498  1  -0.00532572  0.11073208  0.38947685  1
  Cl  Cl499  1  0.00153557  0.44003675  0.38757504  1
  Cl  Cl500  1  0.00654821  0.77996174  0.38898720  1
  Cl  Cl501  1  0.49223453  0.11969655  0.37835618  1
  Cl  Cl502  1  0.50435573  0.44193378  0.37700102  1
  Cl  Cl503  1  0.50397046  0.77763086  0.37105289  1
  Cl  Cl504  1  0.36280797  0.15028936  0.75372148  1
  Cl  Cl505  1  0.35622446  0.48467383  0.74945102  1
  Cl  Cl506  1  0.35737749  0.81615869  0.74772935  1
  Cl  Cl507  1  0.86198658  0.15176468  0.75581145  1
  Cl  Cl508  1  0.85223781  0.48290467  0.75119183  1
  Cl  Cl509  1  0.86000563  0.81793785  0.74799614  1
  Cl  Cl510  1  0.13814897  0.18748192  0.24767674  1
  Cl  Cl511  1  0.13367363  0.52181080  0.24481062  1
  Cl  Cl512  1  0.13808293  0.84970497  0.24573225  1
  Cl  Cl513  1  0.63850151  0.18751660  0.25817509  1
  Cl  Cl514  1  0.63710907  0.52251562  0.24150104  1
  Cl  Cl515  1  0.63439361  0.85430378  0.24715611  1
  Cl  Cl516  1  0.14013765  0.14693804  0.75062230  1
  Cl  Cl517  1  0.13258592  0.47672238  0.76008398  1
  Cl  Cl518  1  0.13761073  0.81119693  0.74839456  1
  Cl  Cl519  1  0.64174320  0.14713500  0.74659093  1
  Cl  Cl520  1  0.63350128  0.47716249  0.75744815  1
  Cl  Cl521  1  0.63652991  0.81261817  0.75883196  1
  Cl  Cl522  1  0.35732684  0.18495086  0.24333326  1
  Cl  Cl523  1  0.35232828  0.51219280  0.25170298  1
  Cl  Cl524  1  0.35925837  0.84905248  0.25011218  1
  Cl  Cl525  1  0.85608890  0.18274265  0.23886470  1
  Cl  Cl526  1  0.85671927  0.51359462  0.25704764  1
  Cl  Cl527  1  0.85665709  0.85158277  0.24970700  1
  Cl  Cl528  1  0.11565005  0.31363980  0.75246061  1
  Cl  Cl529  1  0.10871448  0.64395156  0.75487449  1
  Cl  Cl530  1  0.12062241  0.97953874  0.74750784  1
  Cl  Cl531  1  0.60843871  0.31537325  0.74565062  1
  Cl  Cl532  1  0.61564859  0.64545143  0.74865915  1
  Cl  Cl533  1  0.61677510  0.97857329  0.75424744  1
  Cl  Cl534  1  0.39143308  0.01527750  0.25138038  1
  Cl  Cl535  1  0.39469383  0.34893622  0.25115915  1
  Cl  Cl536  1  0.39633446  0.67980710  0.24426955  1
  Cl  Cl537  1  0.89070117  0.01629697  0.25483396  1
  Cl  Cl538  1  0.89089091  0.34910438  0.24674981  1
  Cl  Cl539  1  0.89169483  0.68322275  0.24717252  1
  Cl  Cl540  1  0.39058097  0.31496305  0.75182287  1
  Cl  Cl541  1  0.39384521  0.65253834  0.74895782  1
  Cl  Cl542  1  0.39478874  0.98361197  0.75269834  1
  Cl  Cl543  1  0.89475390  0.31668044  0.75397037  1
  Cl  Cl544  1  0.88847466  0.64954741  0.74637708  1
  Cl  Cl545  1  0.89798346  0.98597170  0.75030751  1
  Cl  Cl546  1  0.10988758  0.01923544  0.25481327  1
  Cl  Cl547  1  0.11101357  0.35313109  0.25184752  1
  Cl  Cl548  1  0.10930914  0.68812055  0.25078862  1
  Cl  Cl549  1  0.61075375  0.02053690  0.24550320  1
  Cl  Cl550  1  0.61401564  0.35519567  0.24361217  1
  Cl  Cl551  1  0.61974721  0.68914350  0.24659888  1
