# generated using pymatgen
data_H8PbC4(N3Cl2)2
_symmetry_space_group_name_H-M   'P 1'
_cell_length_a   16.62685388
_cell_length_b   22.51083119
_cell_length_c   21.59271521
_cell_angle_alpha   90.00024806
_cell_angle_beta   90.00656488
_cell_angle_gamma   90.00377553
_symmetry_Int_Tables_number   1
_chemical_formula_structural   H8PbC4(N3Cl2)2
_chemical_formula_sum   'H192 Pb24 C96 N144 Cl96'
_cell_volume   8081.81424739
_cell_formula_units_Z   24
loop_
 _symmetry_equiv_pos_site_id
 _symmetry_equiv_pos_as_xyz
  1  'x, y, z'
loop_
 _atom_site_type_symbol
 _atom_site_label
 _atom_site_symmetry_multiplicity
 _atom_site_fract_x
 _atom_site_fract_y
 _atom_site_fract_z
 _atom_site_occupancy
  H  H0  1  0.00749811  0.03146946  0.67899590  1
  H  H1  1  0.00499911  0.36377486  0.67753967  1
  H  H2  1  0.00056753  0.69791406  0.67903845  1
  H  H3  1  0.48903039  0.03138090  0.68082612  1
  H  H4  1  0.49655158  0.35921691  0.67592758  1
  H  H5  1  0.48942648  0.69827801  0.68167212  1
  H  H6  1  -0.00432586  0.30293791  0.18077764  1
  H  H7  1  -0.01189502  0.63546046  0.18114833  1
  H  H8  1  -0.01215263  0.96759931  0.18435348  1
  H  H9  1  0.49360014  0.30373440  0.18105917  1
  H  H10  1  0.51014716  0.63299579  0.18082621  1
  H  H11  1  0.51121585  0.96838797  0.17583209  1
  H  H12  1  0.00660225  0.03312800  0.81850870  1
  H  H13  1  0.00031606  0.36349275  0.81844569  1
  H  H14  1  0.00092834  0.69755753  0.82259507  1
  H  H15  1  0.50310144  0.03126597  0.81770545  1
  H  H16  1  0.49361677  0.36532680  0.82168842  1
  H  H17  1  0.48938631  0.69520588  0.82036015  1
  H  H18  1  -0.00473324  0.30283680  0.32592062  1
  H  H19  1  -0.00731387  0.63655586  0.32254551  1
  H  H20  1  -0.00203041  0.97037722  0.32009177  1
  H  H21  1  0.49955958  0.30592161  0.32204082  1
  H  H22  1  0.51111511  0.63465756  0.31954310  1
  H  H23  1  0.50366404  0.97290032  0.32232598  1
  H  H24  1  0.25965469  0.19941649  0.67795399  1
  H  H25  1  0.26188056  0.53027321  0.68272578  1
  H  H26  1  0.25578025  0.86334703  0.68104551  1
  H  H27  1  0.73567469  0.19775388  0.67669057  1
  H  H28  1  0.74648971  0.52779845  0.67518774  1
  H  H29  1  0.73908657  0.86261970  0.67621823  1
  H  H30  1  0.25405906  0.13906732  0.18104775  1
  H  H31  1  0.23737820  0.47219449  0.17633570  1
  H  H32  1  0.25445423  0.80165240  0.17960855  1
  H  H33  1  0.74054584  0.13806406  0.17873299  1
  H  H34  1  0.76043094  0.46869250  0.17602385  1
  H  H35  1  0.75132443  0.80010682  0.17775663  1
  H  H36  1  0.25225177  0.19786654  0.82044581  1
  H  H37  1  0.24809503  0.52639909  0.82180905  1
  H  H38  1  0.24176325  0.86588302  0.82078008  1
  H  H39  1  0.75247955  0.19866902  0.82076448  1
  H  H40  1  0.74970255  0.53044549  0.82137952  1
  H  H41  1  0.76145775  0.86422779  0.81727604  1
  H  H42  1  0.24380849  0.13753130  0.31821621  1
  H  H43  1  0.24484982  0.46984074  0.32134796  1
  H  H44  1  0.25299676  0.80408712  0.31712496  1
  H  H45  1  0.74763784  0.13576336  0.32189250  1
  H  H46  1  0.75407665  0.47120239  0.32308868  1
  H  H47  1  0.76033639  0.80071907  0.32415419  1
  H  H48  1  0.11256992  0.05744703  0.59407706  1
  H  H49  1  0.11572145  0.39150987  0.59518122  1
  H  H50  1  0.12561027  0.72057165  0.61176110  1
  H  H51  1  0.62092809  0.05113973  0.61825181  1
  H  H52  1  0.62183007  0.38668771  0.60855249  1
  H  H53  1  0.62775618  0.71627745  0.62331367  1
  H  H54  1  0.37568718  0.28053099  0.10494285  1
  H  H55  1  0.37384197  0.61553273  0.12271795  1
  H  H56  1  0.36986426  0.94906443  0.12562182  1
  H  H57  1  0.87830028  0.27727028  0.10335935  1
  H  H58  1  0.87808113  0.60930935  0.09955186  1
  H  H59  1  0.87060571  0.94499784  0.10844436  1
  H  H60  1  0.36848464  0.05237671  0.87594349  1
  H  H61  1  0.38183220  0.38807761  0.90029861  1
  H  H62  1  0.38434650  0.72521844  0.90561647  1
  H  H63  1  0.87171465  0.05107228  0.87949569  1
  H  H64  1  0.88610296  0.38932638  0.89673709  1
  H  H65  1  0.88373821  0.72181691  0.89911567  1
  H  H66  1  0.12453986  0.28406009  0.39250438  1
  H  H67  1  0.11799442  0.61396516  0.38973086  1
  H  H68  1  0.11794845  0.94569320  0.39529147  1
  H  H69  1  0.62434841  0.27901829  0.39329016  1
  H  H70  1  0.61813834  0.60606419  0.40371577  1
  H  H71  1  0.61719696  0.94350950  0.40070190  1
  H  H72  1  0.36883094  0.22522418  0.59471968  1
  H  H73  1  0.37943783  0.55323858  0.60550671  1
  H  H74  1  0.37780870  0.88956555  0.60633789  1
  H  H75  1  0.87293992  0.21853396  0.61930554  1
  H  H76  1  0.88276998  0.55161538  0.61924348  1
  H  H77  1  0.88068081  0.87976286  0.62466848  1
  H  H78  1  0.13003571  0.11436328  0.10889591  1
  H  H79  1  0.12338444  0.44192716  0.09967846  1
  H  H80  1  0.11515218  0.78062460  0.12487579  1
  H  H81  1  0.63497618  0.10745956  0.09485327  1
  H  H82  1  0.61849240  0.45369764  0.12308839  1
  H  H83  1  0.61824071  0.78056434  0.11845438  1
  H  H84  1  0.12311936  0.21692963  0.88538705  1
  H  H85  1  0.12664106  0.55453103  0.89525013  1
  H  H86  1  0.13349003  0.89085385  0.90311340  1
  H  H87  1  0.62299782  0.22282933  0.88741334  1
  H  H88  1  0.62482446  0.55311202  0.89068202  1
  H  H89  1  0.62949675  0.88687765  0.88101390  1
  H  H90  1  0.38120126  0.11572314  0.37640187  1
  H  H91  1  0.38049873  0.44906703  0.38180511  1
  H  H92  1  0.36539126  0.78004743  0.39701378  1
  H  H93  1  0.88258121  0.11622190  0.38169265  1
  H  H94  1  0.87813301  0.44560816  0.39401681  1
  H  H95  1  0.86800070  0.77353020  0.40611898  1
  H  H96  1  0.37573948  0.28069375  0.39428456  1
  H  H97  1  0.37269394  0.61764673  0.37735051  1
  H  H98  1  0.36967514  0.94856352  0.38121308  1
  H  H99  1  0.87645661  0.27414878  0.39927530  1
  H  H100  1  0.86867272  0.61335340  0.39357242  1
  H  H101  1  0.86923913  0.94374225  0.38526415  1
  H  H102  1  0.12008630  0.05686678  0.89570718  1
  H  H103  1  0.13462866  0.38326427  0.88213184  1
  H  H104  1  0.13243652  0.71949891  0.88591603  1
  H  H105  1  0.61671915  0.05568904  0.89567687  1
  H  H106  1  0.62936028  0.38403497  0.87999860  1
  H  H107  1  0.62872938  0.71414212  0.87591649  1
  H  H108  1  0.12701999  0.28232790  0.11621962  1
  H  H109  1  0.12534261  0.61523525  0.12214948  1
  H  H110  1  0.11936156  0.94860530  0.12163134  1
  H  H111  1  0.62442428  0.28058265  0.11562817  1
  H  H112  1  0.62144529  0.61257231  0.10074186  1
  H  H113  1  0.61419734  0.93874645  0.09055563  1
  H  H114  1  0.37235852  0.05538533  0.60574139  1
  H  H115  1  0.37314384  0.38656507  0.60517195  1
  H  H116  1  0.38060967  0.72424129  0.59938917  1
  H  H117  1  0.86676275  0.05027795  0.62593276  1
  H  H118  1  0.86887017  0.38471870  0.61847469  1
  H  H119  1  0.87643746  0.71767147  0.60750134  1
  H  H120  1  0.13426870  0.11115076  0.39956371  1
  H  H121  1  0.13336102  0.44171452  0.40288988  1
  H  H122  1  0.11744856  0.78130096  0.37785576  1
  H  H123  1  0.63424334  0.11112297  0.39879704  1
  H  H124  1  0.62930829  0.44402716  0.39124535  1
  H  H125  1  0.62252247  0.78376307  0.37727944  1
  H  H126  1  0.37145277  0.22092864  0.89262421  1
  H  H127  1  0.37476754  0.55436269  0.89039383  1
  H  H128  1  0.38018299  0.88737105  0.87672747  1
  H  H129  1  0.87152242  0.22183732  0.89656441  1
  H  H130  1  0.87317847  0.55543825  0.89149929  1
  H  H131  1  0.87854395  0.88594813  0.89452608  1
  H  H132  1  0.37837609  0.11310795  0.10891636  1
  H  H133  1  0.37088272  0.45136483  0.11447210  1
  H  H134  1  0.36128645  0.77319943  0.09745165  1
  H  H135  1  0.87986484  0.11764096  0.12698347  1
  H  H136  1  0.86217976  0.43673437  0.09120905  1
  H  H137  1  0.86598236  0.77606379  0.10011823  1
  H  H138  1  0.12291832  0.21775228  0.62113230  1
  H  H139  1  0.13097470  0.55276240  0.61774262  1
  H  H140  1  0.12935669  0.88694169  0.61106294  1
  H  H141  1  0.62627015  0.22529327  0.59525322  1
  H  H142  1  0.63604153  0.55611019  0.59420138  1
  H  H143  1  0.63608761  0.89417805  0.59143809  1
  H  H144  1  0.03854858  0.08305235  0.49014868  1
  H  H145  1  0.88192652  0.08089867  0.51516445  1
  H  H146  1  0.86483642  0.08555014  0.01313926  1
  H  H147  1  0.66839183  0.90006941  0.99155054  1
  H  H148  1  0.20531649  0.41551591  0.50386933  1
  H  H149  1  0.81453926  0.60681290  0.98336560  1
  H  H150  1  0.90914417  0.91423201  0.49550868  1
  H  H151  1  0.64129201  0.75205273  0.49201083  1
  H  H152  1  0.53471490  0.91755424  -0.00998156  1
  H  H153  1  0.54192467  0.57671150  0.50198488  1
  H  H154  1  0.55584433  0.08322592  1.00374974  1
  H  H155  1  0.70941846  0.08703532  -0.00549107  1
  H  H156  1  0.69317913  0.08358175  0.50723798  1
  H  H157  1  0.93256207  0.25963773  0.50348621  1
  H  H158  1  0.94877737  0.57970681  -0.00461785  1
  H  H159  1  0.78147891  0.42070786  -0.00878171  1
  H  H160  1  0.07555584  0.58397079  0.50171184  1
  H  H161  1  0.68099550  0.55808696  0.99848216  1
  H  H162  1  0.09263685  0.25127395  0.00611838  1
  H  H163  1  0.13437795  0.75266206  0.01461414  1
  H  H164  1  0.08722113  0.24830241  0.49566187  1
  H  H165  1  0.66657490  0.24983657  0.99328419  1
  H  H166  1  0.20374900  0.08118286  0.50352061  1
  H  H167  1  0.63295302  0.41681738  0.01507040  1
  H  H168  1  0.04237827  0.41793936  0.49468000  1
  H  H169  1  0.46220437  0.74488318  1.00606587  1
  H  H170  1  0.43279702  0.25025403  -0.00141624  1
  H  H171  1  0.55624997  0.59025631  -0.00913284  1
  H  H172  1  0.71449307  0.91718670  0.49190260  1
  H  H173  1  0.39534541  0.08376291  0.98841945  1
  H  H174  1  0.42760996  0.08647436  0.49744448  1
  H  H175  1  0.94342172  0.75183058  1.00190909  1
  H  H176  1  0.64667355  0.75170450  1.00431168  1
  H  H177  1  0.44325995  0.41768351  1.00783259  1
  H  H178  1  0.32109441  0.58183592  0.49946497  1
  H  H179  1  0.29860860  0.75258241  0.50330711  1
  H  H180  1  0.08578418  0.92780504  0.00620236  1
  H  H181  1  0.54994611  0.91823641  0.50355700  1
  H  H182  1  0.70674569  0.58401912  0.49333367  1
  H  H183  1  0.95012438  0.41486421  1.00381714  1
  H  H184  1  0.45214080  0.75248451  0.49495971  1
  H  H185  1  0.92666887  0.93026101  -0.00371188  1
  H  H186  1  0.29089414  0.74346628  -0.00643320  1
  H  H187  1  0.08370265  0.74936168  0.49948736  1
  H  H188  1  0.35801673  0.91372861  0.98769758  1
  H  H189  1  0.81916426  0.90269940  1.00549978  1
  H  H190  1  0.05972514  0.08690686  1.00411237  1
  H  H191  1  0.20355619  0.91897625  1.00859843  1
  Pb  Pb192  1  0.24396713  0.04963044  0.74332270  1
  Pb  Pb193  1  0.25143786  0.37865681  0.74237875  1
  Pb  Pb194  1  0.25063131  0.71520995  0.75051568  1
  Pb  Pb195  1  0.74814787  0.04670318  0.75855143  1
  Pb  Pb196  1  0.74787013  0.38272326  0.75591592  1
  Pb  Pb197  1  0.75359297  0.71337893  0.75184441  1
  Pb  Pb198  1  0.25351800  0.28735779  0.25101249  1
  Pb  Pb199  1  0.24272184  0.61792843  0.25419633  1
  Pb  Pb200  1  0.24607856  0.95451443  0.25006266  1
  Pb  Pb201  1  0.74807905  0.28622177  0.25035269  1
  Pb  Pb202  1  0.75086371  0.61705278  0.24656067  1
  Pb  Pb203  1  0.74075601  0.94878035  0.24711035  1
  Pb  Pb204  1  -0.00506905  0.21583128  0.74859627  1
  Pb  Pb205  1  0.00323365  0.54651688  0.75522967  1
  Pb  Pb206  1  0.00074537  0.87936822  0.75704273  1
  Pb  Pb207  1  0.50021572  0.21358245  0.74677746  1
  Pb  Pb208  1  0.49871052  0.54816173  0.74296390  1
  Pb  Pb209  1  0.50014273  0.88167860  0.74223047  1
  Pb  Pb210  1  0.00126337  0.12008074  0.25255492  1
  Pb  Pb211  1  -0.00044566  0.44744667  0.24782912  1
  Pb  Pb212  1  -0.00522298  0.78666099  0.24883128  1
  Pb  Pb213  1  0.50097442  0.11965250  0.24529999  1
  Pb  Pb214  1  0.49962499  0.45482946  0.25089058  1
  Pb  Pb215  1  0.48958784  0.78335207  0.24813770  1
  C  C216  1  -0.00520244  0.04674993  0.63213463  1
  C  C217  1  -0.00293858  0.37925187  0.63037577  1
  C  C218  1  0.00140338  0.71230406  0.63119387  1
  C  C219  1  0.49379021  0.04621343  0.63325663  1
  C  C220  1  0.49686401  0.37734424  0.62963703  1
  C  C221  1  0.49953736  0.71303253  0.63446692  1
  C  C222  1  0.00025869  0.28746197  0.13336519  1
  C  C223  1  -0.00263022  0.62039969  0.13397310  1
  C  C224  1  -0.00720686  0.95374380  0.13633394  1
  C  C225  1  0.49825673  0.28806869  0.13365014  1
  C  C226  1  0.50194182  0.62031215  0.13286024  1
  C  C227  1  0.49860343  0.95343404  0.12899988  1
  C  C228  1  -0.00026969  0.04718880  0.86624219  1
  C  C229  1  0.00722679  0.37828105  0.86597004  1
  C  C230  1  0.00546262  0.71348023  0.86995182  1
  C  C231  1  0.49573438  0.04635911  0.86512111  1
  C  C232  1  0.50146283  0.37911826  0.86944515  1
  C  C233  1  0.50050717  0.71085602  0.86707789  1
  C  C234  1  -0.00124143  0.28683934  0.37340899  1
  C  C235  1  -0.00643963  0.62133916  0.37011193  1
  C  C236  1  -0.00501457  0.95367580  0.36710442  1
  C  C237  1  0.49993098  0.28907853  0.36905814  1
  C  C238  1  0.50081645  0.62000010  0.36677316  1
  C  C239  1  0.49714729  0.95658319  0.36918527  1
  C  C240  1  0.25050787  0.21391176  0.63073518  1
  C  C241  1  0.25738100  0.54550311  0.63521966  1
  C  C242  1  0.25479695  0.87922169  0.63362088  1
  C  C243  1  0.74534960  0.21345785  0.62995882  1
  C  C244  1  0.75494124  0.54401864  0.62839643  1
  C  C245  1  0.75166318  0.87763763  0.62942479  1
  C  C246  1  0.25423872  0.12324455  0.13355587  1
  C  C247  1  0.24401096  0.45544132  0.12971828  1
  C  C248  1  0.24259461  0.78653790  0.13261075  1
  C  C249  1  0.75165784  0.12236860  0.13191073  1
  C  C250  1  0.74675197  0.45328843  0.12936138  1
  C  C251  1  0.74435384  0.78585281  0.13015658  1
  C  C252  1  0.24888781  0.21186349  0.86833617  1
  C  C253  1  0.24981963  0.54418293  0.86847972  1
  C  C254  1  0.25262577  0.88085570  0.86796465  1
  C  C255  1  0.74860155  0.21423600  0.86823734  1
  C  C256  1  0.74921151  0.54621926  0.86894560  1
  C  C257  1  0.75580817  0.87838753  0.86522376  1
  C  C258  1  0.25339594  0.12180211  0.36513704  1
  C  C259  1  0.25255114  0.45452217  0.36861308  1
  C  C260  1  0.24494765  0.78885806  0.36441555  1
  C  C261  1  0.75461250  0.12119806  0.36945782  1
  C  C262  1  0.75414133  0.45385091  0.36971318  1
  C  C263  1  0.74938160  0.78596835  0.37113109  1
  C  C264  1  0.44110432  0.07285008  0.95427700  1
  C  C265  1  0.47778564  0.40546937  0.96683913  1
  C  C266  1  0.78741035  0.90054584  0.96152643  1
  C  C267  1  0.28573740  0.57170306  0.54044819  1
  C  C268  1  0.81479060  0.09463897  0.04714470  1
  C  C269  1  0.26757919  0.76229929  0.46003519  1
  C  C270  1  0.81787033  0.90356320  0.54456291  1
  C  C271  1  0.54497152  0.07306870  0.54323801  1
  C  C272  1  0.03470008  0.59426436  0.46385185  1
  C  C273  1  0.20161645  0.23665853  0.95975215  1
  C  C274  1  0.95236196  0.92517622  0.45801654  1
  C  C275  1  0.44146530  0.92524229  0.45687075  1
  C  C276  1  0.01109142  0.07322784  0.53484950  1
  C  C277  1  0.95294655  0.59492712  0.46382677  1
  C  C278  1  0.46382672  0.07467217  0.53748175  1
  C  C279  1  0.02547867  0.07447653  0.96317099  1
  C  C280  1  0.96126341  0.73714723  0.53743952  1
  C  C281  1  0.04287293  0.93460489  0.04355370  1
  C  C282  1  0.98232845  0.40476112  0.96120595  1
  C  C283  1  0.72887646  0.09426038  0.46630571  1
  C  C284  1  0.04261615  0.73864386  0.53712294  1
  C  C285  1  0.26188248  0.75660260  0.03677072  1
  C  C286  1  0.23174393  0.90846003  0.96445911  1
  C  C287  1  0.68959285  0.76048105  0.45893147  1
  C  C288  1  0.77012702  0.75729592  0.46744583  1
  C  C289  1  0.04646923  0.26140929  0.04276499  1
  C  C290  1  0.23398781  0.09291852  0.46035700  1
  C  C291  1  0.81406508  0.57524275  0.54184505  1
  C  C292  1  0.46893821  0.26091072  0.03932052  1
  C  C293  1  0.71601929  0.42036697  0.45984915  1
  C  C294  1  0.55871192  0.40234807  0.95860640  1
  C  C295  1  0.19487774  0.23845191  0.54242910  1
  C  C296  1  0.96130632  0.93457723  0.03874288  1
  C  C297  1  0.48109694  0.74117282  0.53871981  1
  C  C298  1  0.52281457  0.07315961  0.96150958  1
  C  C299  1  0.43253163  0.92672443  0.04445924  1
  C  C300  1  0.28291750  0.23800888  0.96241179  1
  C  C301  1  0.94466204  0.07130209  0.95566845  1
  C  C302  1  0.05634844  0.73961927  0.96082100  1
  C  C303  1  0.53564971  0.41210233  0.54017609  1
  C  C304  1  0.44406065  0.59771493  0.04400229  1
  C  C305  1  0.21884931  0.42092730  0.03713087  1
  C  C306  1  0.80998606  0.09628446  0.45886414  1
  C  C307  1  0.52490006  0.59751955  0.03441031  1
  C  C308  1  0.77338491  0.75999546  0.03415456  1
  C  C309  1  0.72554554  0.24536677  0.53545551  1
  C  C310  1  0.69226423  0.76136598  0.03915656  1
  C  C311  1  0.97815710  0.59155403  0.03872249  1
  N  N312  1  0.93863074  0.40710306  0.54360443  1
  N  N313  1  0.70723289  0.57566769  0.95951484  1
  N  N314  1  0.20649260  0.57184113  0.54410795  1
  N  N315  1  0.75966169  0.41817328  0.03633738  1
  N  N316  1  0.03139942  0.92580151  0.46187313  1
  N  N317  1  0.54831443  0.26052016  0.04245151  1
  N  N318  1  0.27159779  0.24135237  0.53281959  1
  N  N319  1  0.29226386  0.09559389  0.04018591  1
  N  N320  1  0.05666157  0.59252122  0.04644616  1
  N  N321  1  0.06131212  0.40376764  0.95628142  1
  N  N322  1  0.70652508  0.24133855  0.95795231  1
  N  N323  1  0.70818566  0.90276628  0.95559848  1
  N  N324  1  0.97748384  0.74098060  0.96403301  1
  N  N325  1  0.18888328  0.76217179  0.45351781  1
  N  N326  1  0.21345133  0.90639265  0.54075590  1
  N  N327  1  0.73624667  0.09086842  0.03741385  1
  N  N328  1  0.21615437  0.09578659  0.04015057  1
  N  N329  1  0.23237493  0.42469657  0.46186239  1
  N  N330  1  0.78939397  0.57071223  0.96162710  1
  N  N331  1  0.79333982  0.42158411  0.46228438  1
  N  N332  1  0.31253504  0.09413852  0.45274159  1
  N  N333  1  0.55931137  0.73960739  0.54739617  1
  N  N334  1  0.45821422  0.41246578  0.53804049  1
  N  N335  1  0.43929948  0.59650400  0.45376365  1
  N  N336  1  0.29598681  0.42375144  0.04042376  1
  N  N337  1  0.46223543  0.25785143  0.46134261  1
  N  N338  1  0.04442987  0.26736314  0.46522079  1
  N  N339  1  0.30979730  0.42702860  0.45611202  1
  N  N340  1  0.28963068  0.90684505  0.53935575  1
  N  N341  1  0.93296983  0.07204719  0.54691511  1
  N  N342  1  0.51020013  0.92343694  0.03367965  1
  N  N343  1  0.18334842  0.76013333  0.04679718  1
  N  N344  1  0.29099890  0.57621044  0.95967839  1
  N  N345  1  0.96648027  0.25267228  0.46416668  1
  N  N346  1  0.80261760  0.24353003  0.54192229  1
  N  N347  1  0.01596653  0.40940189  0.53713954  1
  N  N348  1  0.48646001  0.73814540  0.96226054  1
  N  N349  1  0.53839611  0.25772418  0.46104888  1
  N  N350  1  0.31016772  0.90674605  0.95448043  1
  N  N351  1  0.68317945  0.43180814  0.04489412  1
  N  N352  1  0.51995963  0.92521418  0.46261222  1
  N  N353  1  0.56307454  0.73431167  0.95305749  1
  N  N354  1  0.74028296  0.90885658  0.53448273  1
  N  N355  1  0.96736971  0.25963118  0.03767003  1
  N  N356  1  0.51651310  0.59269696  0.46149764  1
  N  N357  1  0.78455358  0.24074858  0.96269198  1
  N  N358  1  0.21495660  0.57685130  0.96098849  1
  N  N359  1  0.73557349  0.57611648  0.53463117  1
  N  N360  1  0.05003063  0.05787843  0.58769536  1
  N  N361  1  0.05346533  0.39054621  0.58887213  1
  N  N362  1  0.06654974  0.72288328  0.59676511  1
  N  N363  1  0.56268796  0.05616350  0.60108734  1
  N  N364  1  0.56210541  0.39112244  0.59539134  1
  N  N365  1  0.56938458  0.72217878  0.60693685  1
  N  N366  1  0.43697770  0.27745115  0.09484148  1
  N  N367  1  0.43089039  0.61134228  0.10330558  1
  N  N368  1  0.42504424  0.94374803  0.10414741  1
  N  N369  1  0.94013592  0.27582801  0.09484377  1
  N  N370  1  0.93996359  0.60867481  0.09195349  1
  N  N371  1  0.93109533  0.94589284  0.09697776  1
  N  N372  1  0.42591972  0.05628056  0.89433527  1
  N  N373  1  0.44320063  0.39043393  0.91000716  1
  N  N374  1  0.44659709  0.72179699  0.91081257  1
  N  N375  1  0.92928725  0.05498501  0.89697984  1
  N  N376  1  0.94759703  0.38950892  0.90618489  1
  N  N377  1  0.94541340  0.72502649  0.90792094  1
  N  N378  1  0.06496399  0.27747386  0.40589939  1
  N  N379  1  0.05868602  0.61058103  0.40445906  1
  N  N380  1  0.05631514  0.94362058  0.40487785  1
  N  N381  1  0.56341295  0.27734563  0.40406700  1
  N  N382  1  0.55560727  0.60616914  0.40873628  1
  N  N383  1  0.55548779  0.94648612  0.40947096  1
  N  N384  1  0.30647925  0.22567337  0.58915182  1
  N  N385  1  0.31844729  0.55596224  0.59612242  1
  N  N386  1  0.31679665  0.89014993  0.59689291  1
  N  N387  1  0.81480254  0.22313460  0.60230489  1
  N  N388  1  0.82599302  0.55628401  0.60022171  1
  N  N389  1  0.82521091  0.88563470  0.60376559  1
  N  N390  1  0.19110411  0.11298391  0.09763258  1
  N  N391  1  0.18412605  0.44000411  0.09047972  1
  N  N392  1  0.17203128  0.77995445  0.10543212  1
  N  N393  1  0.69715075  0.11119915  0.08877982  1
  N  N394  1  0.67478019  0.44450951  0.10489862  1
  N  N395  1  0.67530087  0.77734672  0.10001205  1
  N  N396  1  0.18152256  0.22080069  0.90191212  1
  N  N397  1  0.18774779  0.55742723  0.90436072  1
  N  N398  1  0.19534071  0.89252277  0.91084012  1
  N  N399  1  0.68307539  0.22488383  0.90101134  1
  N  N400  1  0.68505280  0.55111341  0.90480906  1
  N  N401  1  0.68878739  0.88560058  0.89703580  1
  N  N402  1  0.32287883  0.11218869  0.39336107  1
  N  N403  1  0.32197519  0.44433301  0.39753810  1
  N  N404  1  0.30348592  0.77810771  0.40563482  1
  N  N405  1  0.82500596  0.11226800  0.39976278  1
  N  N406  1  0.81742768  0.44274611  0.40491336  1
  N  N407  1  0.80617810  0.77259905  0.41447452  1
  N  N408  1  0.43672132  0.27699502  0.40426207  1
  N  N409  1  0.43026469  0.61385942  0.39498640  1
  N  N410  1  0.42709964  0.94399960  0.39883532  1
  N  N411  1  0.93739523  0.27572737  0.41063360  1
  N  N412  1  0.92860416  0.61106810  0.40688685  1
  N  N413  1  0.92852213  0.94187778  0.39985631  1
  N  N414  1  0.05879245  0.05894168  0.90604357  1
  N  N415  1  0.07498911  0.38718942  0.89691268  1
  N  N416  1  0.07419395  0.72306250  0.90226348  1
  N  N417  1  0.55539241  0.05664874  0.90559703  1
  N  N418  1  0.57257998  0.38699574  0.89919675  1
  N  N419  1  0.57158540  0.71952789  0.89358941  1
  N  N420  1  0.06791469  0.27807865  0.10121592  1
  N  N421  1  0.06675651  0.61020618  0.10574485  1
  N  N422  1  0.06111472  0.94625264  0.10442130  1
  N  N423  1  0.56456989  0.27734864  0.10174487  1
  N  N424  1  0.56023971  0.61160333  0.09120224  1
  N  N425  1  0.55195760  0.94309269  0.08499164  1
  N  N426  1  0.43290649  0.05773500  0.59476628  1
  N  N427  1  0.43381519  0.39039439  0.59493957  1
  N  N428  1  0.44282726  0.72506097  0.59197274  1
  N  N429  1  0.92362921  0.05634470  0.60690378  1
  N  N430  1  0.92722175  0.38952711  0.60210658  1
  N  N431  1  0.93651777  0.72164389  0.59416937  1
  N  N432  1  0.19628432  0.10964058  0.40702603  1
  N  N433  1  0.19556118  0.44342192  0.40979247  1
  N  N434  1  0.17639525  0.77881313  0.39369159  1
  N  N435  1  0.69543302  0.10987133  0.40920769  1
  N  N436  1  0.68917553  0.43987248  0.40416052  1
  N  N437  1  0.67798204  0.77798609  0.39795280  1
  N  N438  1  0.31138996  0.22304268  0.90639849  1
  N  N439  1  0.31433837  0.55560026  0.90255244  1
  N  N440  1  0.32271522  0.88896483  0.89536894  1
  N  N441  1  0.81021353  0.22458597  0.90625312  1
  N  N442  1  0.81249792  0.56188028  0.90210107  1
  N  N443  1  0.81743587  0.88778504  0.90499358  1
  N  N444  1  0.31753856  0.11260664  0.09800386  1
  N  N445  1  0.31173842  0.44576733  0.09955997  1
  N  N446  1  0.29892784  0.77312123  0.08984845  1
  N  N447  1  0.82416204  0.11233570  0.10631725  1
  N  N448  1  0.79994635  0.44122717  0.08526775  1
  N  N449  1  0.80461636  0.77468736  0.08914652  1
  N  N450  1  0.17959582  0.22235037  0.60219031  1
  N  N451  1  0.19081920  0.55572003  0.60332550  1
  N  N452  1  0.19019448  0.88941536  0.59916025  1
  N  N453  1  0.68801192  0.22710221  0.58784382  1
  N  N454  1  0.69811978  0.55471250  0.58705917  1
  N  N455  1  0.69828089  0.89011246  0.58604799  1
  Cl  Cl456  1  0.23659759  0.05830446  0.60764255  1
  Cl  Cl457  1  0.23745441  0.39109914  0.60324499  1
  Cl  Cl458  1  0.25942938  0.72407145  0.61642280  1
  Cl  Cl459  1  0.74346890  0.04489673  0.62693750  1
  Cl  Cl460  1  0.74471245  0.38288274  0.62586270  1
  Cl  Cl461  1  0.75320924  0.71388145  0.61980789  1
  Cl  Cl462  1  0.25223524  0.28354835  0.11904249  1
  Cl  Cl463  1  0.24944798  0.62003762  0.12543479  1
  Cl  Cl464  1  0.24414094  0.94366644  0.11427384  1
  Cl  Cl465  1  0.75054914  0.27924060  0.11537046  1
  Cl  Cl466  1  0.75140627  0.60601184  0.10628913  1
  Cl  Cl467  1  0.73773180  0.93714991  0.10557462  1
  Cl  Cl468  1  0.24177362  0.04997242  0.87434987  1
  Cl  Cl469  1  0.25884290  0.38189951  0.87369167  1
  Cl  Cl470  1  0.26318081  0.72693972  0.88838599  1
  Cl  Cl471  1  0.74030256  0.05875817  0.89555850  1
  Cl  Cl472  1  0.76321556  0.39739236  0.89535260  1
  Cl  Cl473  1  0.76016620  0.71606821  0.88723869  1
  Cl  Cl474  1  0.24776067  0.28465030  0.38324337  1
  Cl  Cl475  1  0.24686256  0.61385287  0.38621593  1
  Cl  Cl476  1  0.24174679  0.94897113  0.37773839  1
  Cl  Cl477  1  0.75203863  0.27609109  0.38350196  1
  Cl  Cl478  1  0.73867256  0.60637303  0.39039894  1
  Cl  Cl479  1  0.73944347  0.93716145  0.39099693  1
  Cl  Cl480  1  -0.00199374  0.22126443  0.61133047  1
  Cl  Cl481  1  0.00741461  0.55248456  0.62341758  1
  Cl  Cl482  1  0.00670786  0.88495940  0.62550709  1
  Cl  Cl483  1  0.49870154  0.22181832  0.61575961  1
  Cl  Cl484  1  0.51251675  0.55743150  0.60260652  1
  Cl  Cl485  1  0.51202697  0.89440184  0.60416407  1
  Cl  Cl486  1  0.00829753  0.11340057  0.12034542  1
  Cl  Cl487  1  -0.01580230  0.44003687  0.11246339  1
  Cl  Cl488  1  -0.01470654  0.77425773  0.10938747  1
  Cl  Cl489  1  0.50843362  0.10727584  0.10926714  1
  Cl  Cl490  1  0.49467010  0.45303614  0.11699311  1
  Cl  Cl491  1  0.48287691  0.77348696  0.10483703  1
  Cl  Cl492  1  -0.00566835  0.21843807  0.87920933  1
  Cl  Cl493  1  -0.00343408  0.55528997  0.89094891  1
  Cl  Cl494  1  0.00581063  0.88722054  0.89271142  1
  Cl  Cl495  1  0.49941389  0.22282608  0.88235277  1
  Cl  Cl496  1  0.50265338  0.55890219  0.87791217  1
  Cl  Cl497  1  0.50726488  0.89240421  0.89129749  1
  Cl  Cl498  1  0.01112190  0.11320260  0.38859876  1
  Cl  Cl499  1  0.01176148  0.43868569  0.39312485  1
  Cl  Cl500  1  -0.01075720  0.77628915  0.38102166  1
  Cl  Cl501  1  0.50919013  0.10910363  0.37692672  1
  Cl  Cl502  1  0.50580279  0.45245104  0.38077578  1
  Cl  Cl503  1  0.48754548  0.78244662  0.38315620  1
  Cl  Cl504  1  0.36362038  0.14510064  0.75120456  1
  Cl  Cl505  1  0.36237170  0.48125662  0.74797220  1
  Cl  Cl506  1  0.36945872  0.81246639  0.75740745  1
  Cl  Cl507  1  0.86094727  0.14535946  0.74503119  1
  Cl  Cl508  1  0.86570287  0.47977137  0.74843207  1
  Cl  Cl509  1  0.86070472  0.81599383  0.74597263  1
  Cl  Cl510  1  0.13928899  0.18756939  0.25153244  1
  Cl  Cl511  1  0.14199772  0.52016134  0.24915656  1
  Cl  Cl512  1  0.13218318  0.85409269  0.24475366  1
  Cl  Cl513  1  0.64279449  0.18346732  0.24685019  1
  Cl  Cl514  1  0.63792028  0.51949013  0.24358958  1
  Cl  Cl515  1  0.63955834  0.85264445  0.25277849  1
  Cl  Cl516  1  0.14227043  0.14642529  0.74570353  1
  Cl  Cl517  1  0.14017130  0.47975785  0.74909315  1
  Cl  Cl518  1  0.14687212  0.81353299  0.75322066  1
  Cl  Cl519  1  0.64013892  0.14739389  0.75194702  1
  Cl  Cl520  1  0.64648815  0.47908010  0.75697007  1
  Cl  Cl521  1  0.63735038  0.81183065  0.75522303  1
  Cl  Cl522  1  0.36304563  0.18716551  0.25309374  1
  Cl  Cl523  1  0.36422060  0.52350734  0.25186948  1
  Cl  Cl524  1  0.35566918  0.85285411  0.24551543  1
  Cl  Cl525  1  0.86551345  0.18835457  0.24976414  1
  Cl  Cl526  1  0.85458315  0.52079539  0.25226474  1
  Cl  Cl527  1  0.85740130  0.85181751  0.24629702  1
  Cl  Cl528  1  0.11166308  0.31345728  0.74956343  1
  Cl  Cl529  1  0.11346985  0.64921300  0.75244228  1
  Cl  Cl530  1  0.10672110  0.98272813  0.74755135  1
  Cl  Cl531  1  0.61415884  0.31366397  0.75790291  1
  Cl  Cl532  1  0.61991419  0.64349702  0.75157623  1
  Cl  Cl533  1  0.61093094  0.98068603  0.75316161  1
  Cl  Cl534  1  0.38741844  0.01914755  0.24632345  1
  Cl  Cl535  1  0.39115605  0.35359841  0.25242521  1
  Cl  Cl536  1  0.38855279  0.68821439  0.25075264  1
  Cl  Cl537  1  0.88636340  0.02147313  0.25243100  1
  Cl  Cl538  1  0.89061774  0.35517407  0.25352942  1
  Cl  Cl539  1  0.88755664  0.68332754  0.25043375  1
  Cl  Cl540  1  0.39271553  0.31613499  0.74580899  1
  Cl  Cl541  1  0.39979819  0.64660256  0.74863034  1
  Cl  Cl542  1  0.38954338  0.97614745  0.75386352  1
  Cl  Cl543  1  0.89271811  0.31141976  0.74480382  1
  Cl  Cl544  1  0.89169286  0.64723421  0.75410520  1
  Cl  Cl545  1  0.88595473  0.97849150  0.75353088  1
  Cl  Cl546  1  0.10653142  0.01726935  0.24852316  1
  Cl  Cl547  1  0.10600932  0.35546127  0.25335333  1
  Cl  Cl548  1  0.11013415  0.68849957  0.24739724  1
  Cl  Cl549  1  0.60876017  0.01604619  0.24622754  1
  Cl  Cl550  1  0.61131831  0.35374473  0.24342426  1
  Cl  Cl551  1  0.60761826  0.68723395  0.24956659  1
