# generated using pymatgen
data_H8PbC4(N3Cl2)2
_symmetry_space_group_name_H-M   'P 1'
_cell_length_a   16.63464085
_cell_length_b   22.52864714
_cell_length_c   21.59979581
_cell_angle_alpha   89.99750621
_cell_angle_beta   89.96981860
_cell_angle_gamma   90.01963282
_symmetry_Int_Tables_number   1
_chemical_formula_structural   H8PbC4(N3Cl2)2
_chemical_formula_sum   'H192 Pb24 C96 N144 Cl96'
_cell_volume   8094.65047793
_cell_formula_units_Z   24
loop_
 _symmetry_equiv_pos_site_id
 _symmetry_equiv_pos_as_xyz
  1  'x, y, z'
loop_
 _atom_site_type_symbol
 _atom_site_label
 _atom_site_symmetry_multiplicity
 _atom_site_fract_x
 _atom_site_fract_y
 _atom_site_fract_z
 _atom_site_occupancy
  H  H0  1  0.01341410  0.02712853  0.68065225  1
  H  H1  1  -0.00155426  0.36504690  0.67978545  1
  H  H2  1  -0.00739777  0.69455067  0.68003666  1
  H  H3  1  0.52509676  0.03189077  0.65983116  1
  H  H4  1  0.48820799  0.35971703  0.67468766  1
  H  H5  1  0.50059054  0.69006750  0.67397402  1
  H  H6  1  -0.01507391  0.30645140  0.17664941  1
  H  H7  1  0.00988745  0.63741623  0.18020304  1
  H  H8  1  0.00158187  0.97421319  0.17816006  1
  H  H9  1  0.51483542  0.30579973  0.18081778  1
  H  H10  1  0.51259240  0.63469493  0.17786512  1
  H  H11  1  0.50991926  0.97055684  0.17888522  1
  H  H12  1  -0.01381826  0.03313233  0.82832027  1
  H  H13  1  -0.00907433  0.36124813  0.82340287  1
  H  H14  1  -0.00832506  0.69488448  0.82280268  1
  H  H15  1  0.51124200  0.02402780  0.82440401  1
  H  H16  1  0.50469975  0.36195701  0.82341931  1
  H  H17  1  0.51334144  0.69675205  0.81811503  1
  H  H18  1  -0.00726653  0.30291106  0.31609700  1
  H  H19  1  -0.00441076  0.63620571  0.32107978  1
  H  H20  1  0.00500681  0.96830021  0.32154800  1
  H  H21  1  0.50209570  0.30545922  0.31871089  1
  H  H22  1  0.49580157  0.64376389  0.32053395  1
  H  H23  1  0.49333947  0.97113316  0.32184282  1
  H  H24  1  0.23569486  0.20115254  0.68103965  1
  H  H25  1  0.25564870  0.53142542  0.67877869  1
  H  H26  1  0.27138849  0.86494640  0.67269858  1
  H  H27  1  0.77729606  0.19355010  0.67717374  1
  H  H28  1  0.75382906  0.52962511  0.67766909  1
  H  H29  1  0.73649370  0.86170683  0.67265427  1
  H  H30  1  0.26548318  0.13558911  0.16915594  1
  H  H31  1  0.25185969  0.47513590  0.17791562  1
  H  H32  1  0.26266532  0.80980598  0.17226193  1
  H  H33  1  0.74376971  0.13933225  0.17605338  1
  H  H34  1  0.72931217  0.46840031  0.17178656  1
  H  H35  1  0.73400248  0.79899926  0.18386877  1
  H  H36  1  0.24812949  0.18732206  0.82741489  1
  H  H37  1  0.22715648  0.52860103  0.82557379  1
  H  H38  1  0.23739304  0.86399301  0.82542073  1
  H  H39  1  0.75170428  0.19256380  0.82367075  1
  H  H40  1  0.75627966  0.52566591  0.82807498  1
  H  H41  1  0.76366273  0.86763079  0.81979309  1
  H  H42  1  0.25017441  0.13650936  0.32332145  1
  H  H43  1  0.25475733  0.47222776  0.32010022  1
  H  H44  1  0.24244252  0.80588292  0.32515923  1
  H  H45  1  0.72472720  0.13604652  0.34685466  1
  H  H46  1  0.74235918  0.47410840  0.31918691  1
  H  H47  1  0.75674310  0.80550372  0.31924920  1
  H  H48  1  0.14556663  0.04952650  0.61735342  1
  H  H49  1  0.13142730  0.38988388  0.61782277  1
  H  H50  1  0.13426121  0.71910225  0.63054926  1
  H  H51  1  0.66093615  0.05321919  0.60424868  1
  H  H52  1  0.63174374  0.38277571  0.62907721  1
  H  H53  1  0.62954125  0.71822286  0.61111576  1
  H  H54  1  0.37623354  0.28357640  0.12537487  1
  H  H55  1  0.37698927  0.61473931  0.11862113  1
  H  H56  1  0.38062708  0.94873330  0.11244385  1
  H  H57  1  0.87741527  0.27875058  0.09423905  1
  H  H58  1  0.87220189  0.61278766  0.12277751  1
  H  H59  1  0.88724431  0.94803146  0.10210016  1
  H  H60  1  0.37097330  0.04809945  0.87563507  1
  H  H61  1  0.38199110  0.38642247  0.89657517  1
  H  H62  1  0.38712667  0.72505969  0.88448243  1
  H  H63  1  0.88422074  0.06051742  0.91399179  1
  H  H64  1  0.88430444  0.38984667  0.90551218  1
  H  H65  1  0.88461660  0.72256948  0.90530705  1
  H  H66  1  0.12125452  0.27938224  0.38339603  1
  H  H67  1  0.12927262  0.61575475  0.38257839  1
  H  H68  1  0.12397827  0.94213051  0.39601102  1
  H  H69  1  0.62380862  0.27486419  0.39094214  1
  H  H70  1  0.62648115  0.61448818  0.38419659  1
  H  H71  1  0.62204892  0.94448463  0.38833298  1
  H  H72  1  0.37866675  0.21282335  0.63332823  1
  H  H73  1  0.36876365  0.55714935  0.59896793  1
  H  H74  1  0.37000423  0.89061281  0.58578623  1
  H  H75  1  0.87519548  0.22791068  0.59067672  1
  H  H76  1  0.87223712  0.55581111  0.60372742  1
  H  H77  1  0.87474717  0.88358882  0.61798202  1
  H  H78  1  0.12371069  0.11823118  0.12199084  1
  H  H79  1  0.11742136  0.45031494  0.11604512  1
  H  H80  1  0.12138179  0.78968043  0.12078302  1
  H  H81  1  0.63670505  0.10899092  0.09304701  1
  H  H82  1  0.61843720  0.44162788  0.09388028  1
  H  H83  1  0.61759682  0.78132021  0.10579752  1
  H  H84  1  0.12497429  0.22052466  0.89460812  1
  H  H85  1  0.12663257  0.55955419  0.91046672  1
  H  H86  1  0.11867349  0.89228841  0.89919389  1
  H  H87  1  0.63022084  0.22751110  0.89226530  1
  H  H88  1  0.63673848  0.55333761  0.90083625  1
  H  H89  1  0.62238193  0.87969334  0.87446430  1
  H  H90  1  0.35634111  0.10517119  0.40498121  1
  H  H91  1  0.36352834  0.44543098  0.40175721  1
  H  H92  1  0.36258580  0.77791129  0.39839759  1
  H  H93  1  0.83222340  0.09890243  0.42563572  1
  H  H94  1  0.86541867  0.44752639  0.39205785  1
  H  H95  1  0.86253705  0.77562644  0.40046168  1
  H  H96  1  0.37595036  0.28107715  0.38926272  1
  H  H97  1  0.37858322  0.61235739  0.39632052  1
  H  H98  1  0.37387118  0.94367993  0.39784315  1
  H  H99  1  0.87226426  0.27556006  0.38753325  1
  H  H100  1  0.88155671  0.60888130  0.40026311  1
  H  H101  1  0.87558446  0.94657315  0.38831729  1
  H  H102  1  0.12733669  0.04850220  0.87675869  1
  H  H103  1  0.13042404  0.38099461  0.87575815  1
  H  H104  1  0.13014859  0.71385585  0.87924036  1
  H  H105  1  0.61502865  0.05838853  0.90908498  1
  H  H106  1  0.63035685  0.38975890  0.89171873  1
  H  H107  1  0.63381389  0.71254315  0.89360106  1
  H  H108  1  0.12399958  0.28374787  0.12041622  1
  H  H109  1  0.11803079  0.60681286  0.09693442  1
  H  H110  1  0.13574916  0.95392837  0.11735591  1
  H  H111  1  0.62240815  0.27611411  0.09834739  1
  H  H112  1  0.62273408  0.60287739  0.09668553  1
  H  H113  1  0.62947018  0.94538753  0.10374822  1
  H  H114  1  0.41386914  0.05754495  0.58068580  1
  H  H115  1  0.38958871  0.39545065  0.58926917  1
  H  H116  1  0.38102008  0.72191742  0.60261196  1
  H  H117  1  0.89789726  0.05617804  0.60563756  1
  H  H118  1  0.88350631  0.39277548  0.60333548  1
  H  H119  1  0.88976780  0.72278524  0.59544551  1
  H  H120  1  0.11195453  0.11636802  0.37644487  1
  H  H121  1  0.11682236  0.45036474  0.37636681  1
  H  H122  1  0.11390154  0.78140111  0.39076917  1
  H  H123  1  0.58587487  0.11032228  0.39714375  1
  H  H124  1  0.61666869  0.44744912  0.38714840  1
  H  H125  1  0.61733034  0.78752271  0.37121272  1
  H  H126  1  0.37347421  0.21655068  0.89498318  1
  H  H127  1  0.36815750  0.54617874  0.87137344  1
  H  H128  1  0.36724115  0.88706144  0.89060615  1
  H  H129  1  0.87733894  0.21363073  0.89205569  1
  H  H130  1  0.88562017  0.55053510  0.89274172  1
  H  H131  1  0.86554261  0.89554329  0.90718043  1
  H  H132  1  0.36661536  0.10766122  0.08302785  1
  H  H133  1  0.36478549  0.44348068  0.09860722  1
  H  H134  1  0.36506869  0.77278865  0.08967504  1
  H  H135  1  0.88225110  0.11423282  0.12443265  1
  H  H136  1  0.86414832  0.44858365  0.11652680  1
  H  H137  1  0.86620142  0.78165064  0.12162673  1
  H  H138  1  0.13579130  0.22715378  0.59378973  1
  H  H139  1  0.12121228  0.55373268  0.61910876  1
  H  H140  1  0.12857237  0.88005166  0.62662691  1
  H  H141  1  0.63315160  0.21451700  0.63201154  1
  H  H142  1  0.62382581  0.55142454  0.61577091  1
  H  H143  1  0.62848527  0.89175178  0.59190921  1
  H  H144  1  0.71149451  0.08053138  -0.00585767  1
  H  H145  1  0.37097089  0.24374380  0.51901236  1
  H  H146  1  0.76085820  0.07501262  0.52767797  1
  H  H147  1  0.21394009  0.25348764  0.49139217  1
  H  H148  1  0.47312574  0.41933384  0.49117868  1
  H  H149  1  0.67533700  0.77027518  -0.00568474  1
  H  H150  1  0.84540094  0.57967832  0.99913283  1
  H  H151  1  0.54931748  0.24276041  -0.00271286  1
  H  H152  1  0.84960299  0.91487591  0.50987232  1
  H  H153  1  0.95750157  0.75182356  1.00905041  1
  H  H154  1  0.65802340  0.58377474  0.50296673  1
  H  H155  1  0.14097071  0.74801355  0.01596613  1
  H  H156  1  0.94495840  0.42704567  0.49873762  1
  H  H157  1  0.28339805  0.07615992  0.50579868  1
  H  H158  1  0.95244072  0.42185560  1.00860637  1
  H  H159  1  0.53411875  0.08644308  1.00612037  1
  H  H160  1  0.12507703  0.07891164  0.00083708  1
  H  H161  1  0.28532598  0.75198093  -0.00924495  1
  H  H162  1  0.44528126  0.77767639  0.97492582  1
  H  H163  1  0.78428063  0.92382367  1.00382381  1
  H  H164  1  0.47483288  0.08730158  0.47405217  1
  H  H165  1  0.07409809  0.91221405  0.50222185  1
  H  H166  1  0.63228137  0.75722307  0.48544124  1
  H  H167  1  0.95104746  0.24986842  -0.00936883  1
  H  H168  1  0.11476075  0.07657017  0.50722107  1
  H  H169  1  0.56701639  0.71120537  0.99816071  1
  H  H170  1  0.55020229  0.57528358  -0.00335982  1
  H  H171  1  0.94732395  0.91834560  -0.00663925  1
  H  H172  1  0.79207817  0.24651248  0.49254007  1
  H  H173  1  0.81697131  0.22278129  0.99928992  1
  H  H174  1  0.69847064  0.29093676  0.97226268  1
  H  H175  1  0.14120679  0.42474879  0.48553076  1
  H  H176  1  0.07652035  0.26024512  0.49195819  1
  H  H177  1  0.09774581  0.58677615  0.49449759  1
  H  H178  1  0.57270983  0.91163498  -0.00126872  1
  H  H179  1  0.43826848  0.75281588  0.49879438  1
  H  H180  1  0.35914062  0.58055223  -0.01305083  1
  H  H181  1  0.64210950  0.25057625  0.52012408  1
  H  H182  1  0.79240879  0.74511108  0.50480362  1
  H  H183  1  0.66086027  0.41971887  0.49723968  1
  H  H184  1  0.11381842  0.41444576  -0.01291330  1
  H  H185  1  0.83381544  0.75624435  0.00715942  1
  H  H186  1  0.29534417  0.41918292  0.50739226  1
  H  H187  1  0.92422110  0.24995858  0.49825067  1
  H  H188  1  0.96528288  0.75181779  0.49272912  1
  H  H189  1  0.11995710  0.74648434  0.52008847  1
  H  H190  1  0.95640236  0.08514343  0.49751900  1
  H  H191  1  0.43907153  0.41365949  1.00102764  1
  Pb  Pb192  1  0.26455404  0.04896439  0.73246090  1
  Pb  Pb193  1  0.26373281  0.38503349  0.74445973  1
  Pb  Pb194  1  0.25825817  0.71752380  0.75555240  1
  Pb  Pb195  1  0.75652939  0.04863332  0.76202368  1
  Pb  Pb196  1  0.76037682  0.38447877  0.75562895  1
  Pb  Pb197  1  0.76008353  0.71944448  0.75135721  1
  Pb  Pb198  1  0.24001564  0.28114449  0.25335657  1
  Pb  Pb199  1  0.24182549  0.61623276  0.24578162  1
  Pb  Pb200  1  0.24427356  0.95095778  0.25780797  1
  Pb  Pb201  1  0.74068626  0.27920285  0.24339394  1
  Pb  Pb202  1  0.74226851  0.61503930  0.24764003  1
  Pb  Pb203  1  0.74044162  0.94995662  0.24516428  1
  Pb  Pb204  1  0.01083923  0.21858108  0.74110043  1
  Pb  Pb205  1  0.00740223  0.54960472  0.75299935  1
  Pb  Pb206  1  0.00831594  0.88468165  0.75652078  1
  Pb  Pb207  1  0.50972999  0.21518336  0.75699416  1
  Pb  Pb208  1  0.50989891  0.55162642  0.75511911  1
  Pb  Pb209  1  0.50280774  0.88276073  0.74407684  1
  Pb  Pb210  1  -0.01475241  0.11436627  0.26791297  1
  Pb  Pb211  1  -0.01084939  0.44970212  0.25416075  1
  Pb  Pb212  1  -0.00890879  0.78365564  0.25327001  1
  Pb  Pb213  1  0.49042494  0.11584262  0.23634830  1
  Pb  Pb214  1  0.48837096  0.44688261  0.24735999  1
  Pb  Pb215  1  0.48751742  0.78158476  0.24323666  1
  C  C216  1  0.01990468  0.04277777  0.63326123  1
  C  C217  1  0.00486791  0.38156321  0.63280606  1
  C  C218  1  0.00650416  0.71096229  0.63384543  1
  C  C219  1  0.53390338  0.04695463  0.61245087  1
  C  C220  1  0.50285899  0.37726121  0.62929625  1
  C  C221  1  0.50319090  0.70879816  0.62774795  1
  C  C222  1  -0.00440882  0.28994946  0.13014213  1
  C  C223  1  -0.00008047  0.62066005  0.13362974  1
  C  C224  1  0.00798674  0.95882592  0.13091443  1
  C  C225  1  0.50434046  0.28872282  0.13456826  1
  C  C226  1  0.50449973  0.61787805  0.13122878  1
  C  C227  1  0.50670535  0.95458832  0.13156788  1
  C  C228  1  -0.00032617  0.04769668  0.87505728  1
  C  C229  1  0.00221064  0.37785756  0.86984586  1
  C  C230  1  0.00269984  0.70977352  0.86980926  1
  C  C231  1  0.49970823  0.04184976  0.87019026  1
  C  C232  1  0.50529213  0.37891937  0.87035508  1
  C  C233  1  0.51122922  0.71074419  0.86619145  1
  C  C234  1  -0.00376191  0.28795786  0.36385281  1
  C  C235  1  0.00216286  0.62083531  0.36838820  1
  C  C236  1  0.00124540  0.95248674  0.36898301  1
  C  C237  1  0.50071046  0.28835587  0.36572405  1
  C  C238  1  0.50024565  0.62486254  0.36664257  1
  C  C239  1  0.49643418  0.95397527  0.36876001  1
  C  C240  1  0.25081948  0.21390597  0.63393356  1
  C  C241  1  0.24856952  0.54704429  0.63179701  1
  C  C242  1  0.25605972  0.87867239  0.62612441  1
  C  C243  1  0.76184812  0.21086130  0.63157657  1
  C  C244  1  0.74935296  0.54540178  0.63043069  1
  C  C245  1  0.74714122  0.87835799  0.62631599  1
  C  C246  1  0.25153507  0.12046056  0.12268832  1
  C  C247  1  0.24487327  0.45869236  0.13104653  1
  C  C248  1  0.24949260  0.79165347  0.12675040  1
  C  C249  1  0.75394338  0.12214778  0.12990703  1
  C  C250  1  0.73771459  0.45287118  0.12489620  1
  C  C251  1  0.73950367  0.78718219  0.13533042  1
  C  C252  1  0.24908101  0.20732646  0.87284559  1
  C  C253  1  0.24194037  0.54498247  0.87132245  1
  C  C254  1  0.24127023  0.88086175  0.87212633  1
  C  C255  1  0.75291866  0.21071842  0.87028015  1
  C  C256  1  0.76004813  0.54198245  0.87515266  1
  C  C257  1  0.75065904  0.88197197  0.86673952  1
  C  C258  1  0.23938473  0.12038424  0.36995909  1
  C  C259  1  0.24425671  0.45714767  0.36725000  1
  C  C260  1  0.23976679  0.78952530  0.37218860  1
  C  C261  1  0.71446680  0.11621621  0.39212149  1
  C  C262  1  0.74161142  0.45697109  0.36606243  1
  C  C263  1  0.74490018  0.79002480  0.36601062  1
  C  C264  1  0.53668773  0.92407312  0.03862658  1
  C  C265  1  0.97889872  0.25977013  0.03502291  1
  C  C266  1  0.57261528  0.40818333  0.54820338  1
  C  C267  1  0.68211531  0.76513319  0.45261360  1
  C  C268  1  0.95953071  0.25978786  0.45709933  1
  C  C269  1  0.70150363  0.57348566  0.53901770  1
  C  C270  1  0.81618340  0.08786763  0.04618472  1
  C  C271  1  0.26590190  0.42941566  0.46360589  1
  C  C272  1  0.52064664  0.25625587  0.04039413  1
  C  C273  1  0.23980847  0.24092455  0.53573325  1
  C  C274  1  0.97881030  0.41303218  0.53940024  1
  C  C275  1  0.69270957  0.24163690  0.55092017  1
  C  C276  1  0.65302380  0.08449235  0.47698938  1
  C  C277  1  0.70919247  0.77044183  0.03711090  1
  C  C278  1  0.06411600  0.40561912  0.95554725  1
  C  C279  1  0.50823412  0.07545941  0.51563530  1
  C  C280  1  0.78294651  0.57433535  0.53631280  1
  C  C281  1  0.71336084  0.42275347  0.03039892  1
  C  C282  1  0.26492304  0.09054183  0.02653947  1
  C  C283  1  0.59084027  0.07248007  0.52255048  1
  C  C284  1  0.76301410  0.75963986  0.46241456  1
  C  C285  1  0.06533973  0.07193797  0.96030770  1
  C  C286  1  0.55166605  0.74304457  0.53910814  1
  C  C287  1  0.72480358  0.57426918  0.96853084  1
  C  C288  1  0.05150258  0.59572347  0.45827795  1
  C  C289  1  0.30878128  0.57242459  0.95569685  1
  C  C290  1  0.98552382  0.07604139  0.97176702  1
  C  C291  1  0.17781194  0.08996523  0.45519965  1
  C  C292  1  0.72520179  0.91105623  0.53051812  1
  C  C293  1  0.26639286  0.90574891  0.52868684  1
  C  C294  1  0.98558909  0.73818047  0.96569027  1
  C  C295  1  0.99168251  0.74074835  0.53747562  1
  C  C296  1  0.22883201  0.57703331  0.96752855  1
  C  C297  1  0.18710577  0.90199924  0.54269046  1
  C  C298  1  0.99001743  0.07262979  0.53912913  1
  C  C299  1  0.03299276  0.92394532  0.46268490  1
  C  C300  1  0.19747417  0.57554828  0.54313242  1
  C  C301  1  0.79371479  0.42512215  0.03802629  1
  C  C302  1  0.19702164  0.76109699  0.46317966  1
  C  C303  1  0.18517800  0.09380417  0.03851605  1
  C  C304  1  0.31978111  0.23604379  0.54951311  1
  C  C305  1  0.21329542  0.24513073  0.96163123  1
  C  C306  1  0.98338030  0.40901610  0.96622346  1
  C  C307  1  0.98093758  0.92984108  0.03490972  1
  C  C308  1  0.06203897  0.93248755  0.04160613  1
  C  C309  1  0.21073885  0.91520953  0.96360543  1
  C  C310  1  0.70217571  0.42901435  0.45815292  1
  C  C311  1  0.79071833  0.76729719  0.04313059  1
  N  N312  1  0.73829892  0.08821166  0.03657556  1
  N  N313  1  0.25594526  0.08617859  0.46314256  1
  N  N314  1  0.95345695  0.92585312  0.46135888  1
  N  N315  1  0.18741752  0.42986071  0.45346954  1
  N  N316  1  0.79803471  0.24366463  0.95949169  1
  N  N317  1  0.80309132  0.90737810  0.54037173  1
  N  N318  1  0.44613572  0.59220072  0.04377446  1
  N  N319  1  0.97254210  0.59355255  0.46472987  1
  N  N320  1  0.54045376  0.92216206  0.45899592  1
  N  N321  1  0.26981794  0.42671451  0.03673028  1
  N  N322  1  0.55028452  0.40944826  0.96092897  1
  N  N323  1  0.77034476  0.24562139  0.53726707  1
  N  N324  1  0.73304079  0.07826724  0.48430643  1
  N  N325  1  0.49558274  0.41205464  0.53548117  1
  N  N326  1  0.45752636  0.92491145  0.04101012  1
  N  N327  1  0.78123533  0.42785425  0.45965358  1
  N  N328  1  0.52325606  0.58701029  0.03804924  1
  N  N329  1  0.47279652  0.74381608  0.53693530  1
  N  N330  1  0.06915235  0.06916797  0.54381100  1
  N  N331  1  0.19428573  0.42913893  0.04280034  1
  N  N332  1  0.53655277  0.25854690  0.45883885  1
  N  N333  1  0.06374756  0.73412489  0.95737452  1
  N  N334  1  0.28806908  0.91373027  0.96230784  1
  N  N335  1  0.27452771  0.75943215  0.46686457  1
  N  N336  1  0.54692724  0.59155956  0.45548033  1
  N  N337  1  0.76163430  0.90737292  0.96250242  1
  N  N338  1  0.01931360  0.58813610  0.03864178  1
  N  N339  1  0.05695660  0.25952171  0.04450293  1
  N  N340  1  0.26360619  0.75212823  0.03588801  1
  N  N341  1  0.54932009  0.73544431  0.96007069  1
  N  N342  1  0.43474870  0.07456034  0.95225848  1
  N  N343  1  0.05783877  0.41131610  0.54378826  1
  N  N344  1  0.06948690  0.73979728  0.55074891  1
  N  N345  1  0.47239181  0.40819147  0.96158474  1
  N  N346  1  0.94371827  0.59096149  0.04681679  1
  N  N347  1  0.80367990  0.57242330  0.96447660  1
  N  N348  1  0.46617381  0.73815102  0.95728330  1
  N  N349  1  0.29046433  0.24413884  0.96303161  1
  N  N350  1  0.51146337  0.07766268  0.96202355  1
  N  N351  1  0.47096533  0.59033989  0.45938527  1
  N  N352  1  0.18715048  0.76567035  0.04335361  1
  N  N353  1  0.44238201  0.25794815  0.04930307  1
  N  N354  1  0.46437725  0.92228777  0.46197986  1
  N  N355  1  0.46042427  0.25971808  0.45799491  1
  N  N356  1  0.27447552  0.57707622  0.53539537  1
  N  N357  1  0.03917015  0.25992189  0.45435073  1
  N  N358  1  0.68489444  0.90252283  0.95268993  1
  N  N359  1  0.71500703  0.24858172  0.95945326  1
  N  N360  1  0.08723674  0.04921041  0.60144874  1
  N  N361  1  0.07255674  0.39175115  0.60245588  1
  N  N362  1  0.07814663  0.72027926  0.60958795  1
  N  N363  1  0.60435589  0.05473426  0.58394465  1
  N  N364  1  0.57735048  0.38829386  0.60679382  1
  N  N365  1  0.57102686  0.72242186  0.59571326  1
  N  N366  1  0.43402851  0.27788375  0.10795559  1
  N  N367  1  0.43474347  0.60963787  0.10226003  1
  N  N368  1  0.44071059  0.94408850  0.09893475  1
  N  N369  1  0.93931914  0.27799867  0.08734974  1
  N  N370  1  0.93037639  0.61152798  0.10556638  1
  N  N371  1  0.94820595  0.94617394  0.09173960  1
  N  N372  1  0.42791051  0.05353424  0.89455941  1
  N  N373  1  0.44320704  0.38793790  0.90740921  1
  N  N374  1  0.44732334  0.72884893  0.89691591  1
  N  N375  1  0.94583276  0.06128662  0.91982245  1
  N  N376  1  0.94612084  0.39145947  0.91227308  1
  N  N377  1  0.94663555  0.72328783  0.91235974  1
  N  N378  1  0.06158509  0.28101732  0.39787033  1
  N  N379  1  0.07091980  0.61196647  0.39918062  1
  N  N380  1  0.06302552  0.93989984  0.40643043  1
  N  N381  1  0.56298023  0.27653030  0.40190023  1
  N  N382  1  0.56667391  0.61308253  0.39814919  1
  N  N383  1  0.56193931  0.94153580  0.40121665  1
  N  N384  1  0.32484881  0.21940818  0.61032212  1
  N  N385  1  0.30660024  0.55877499  0.59192125  1
  N  N386  1  0.30805181  0.89147211  0.57986901  1
  N  N387  1  0.81317706  0.22246772  0.58618961  1
  N  N388  1  0.81163703  0.55751309  0.59142647  1
  N  N389  1  0.81724471  0.88649705  0.59908733  1
  N  N390  1  0.17819489  0.11224944  0.09893245  1
  N  N391  1  0.17691271  0.44958550  0.10060551  1
  N  N392  1  0.17778674  0.78110574  0.10269799  1
  N  N393  1  0.69893204  0.11133095  0.08715415  1
  N  N394  1  0.67927338  0.43946814  0.08357273  1
  N  N395  1  0.67845740  0.78211607  0.09508317  1
  N  N396  1  0.18482930  0.22316286  0.90733027  1
  N  N397  1  0.18880296  0.56054359  0.91665516  1
  N  N398  1  0.17917941  0.89532743  0.90947226  1
  N  N399  1  0.69150148  0.23297168  0.90124989  1
  N  N400  1  0.69767207  0.55587922  0.91292252  1
  N  N401  1  0.67886883  0.88593344  0.89337394  1
  N  N402  1  0.29426604  0.10753574  0.41180188  1
  N  N403  1  0.30150320  0.44560909  0.40991585  1
  N  N404  1  0.30095060  0.77808719  0.40905138  1
  N  N405  1  0.77008732  0.10200483  0.43336773  1
  N  N406  1  0.80401448  0.44549257  0.40214175  1
  N  N407  1  0.80077012  0.77534516  0.40817891  1
  N  N408  1  0.43659516  0.27762173  0.40038520  1
  N  N409  1  0.44042277  0.61073629  0.40444331  1
  N  N410  1  0.43553550  0.94226313  0.40643576  1
  N  N411  1  0.93260380  0.27563992  0.40058733  1
  N  N412  1  0.94342775  0.60945018  0.40824987  1
  N  N413  1  0.93546964  0.94368026  0.40209906  1
  N  N414  1  0.07273158  0.05472453  0.89955158  1
  N  N415  1  0.07431036  0.38688847  0.89570598  1
  N  N416  1  0.07294139  0.71665136  0.89732640  1
  N  N417  1  0.55285682  0.05559777  0.91347896  1
  N  N418  1  0.57016476  0.39299622  0.90339508  1
  N  N419  1  0.57282195  0.71158088  0.90484324  1
  N  N420  1  0.06561096  0.27861710  0.10351880  1
  N  N421  1  0.05555485  0.60647810  0.09212627  1
  N  N422  1  0.07767526  0.94984830  0.09971548  1
  N  N423  1  0.56042096  0.27499760  0.09220007  1
  N  N424  1  0.56059726  0.60399008  0.09038778  1
  N  N425  1  0.56858366  0.94184550  0.09404894  1
  N  N426  1  0.47556614  0.05924301  0.57143511  1
  N  N427  1  0.45150329  0.38979590  0.58452674  1
  N  N428  1  0.44205932  0.72076595  0.59104186  1
  N  N429  1  0.95925474  0.05654408  0.59449784  1
  N  N430  1  0.94498643  0.39465988  0.59353017  1
  N  N431  1  0.95202386  0.72345999  0.58918463  1
  N  N432  1  0.16696655  0.11019623  0.39662386  1
  N  N433  1  0.17435995  0.44827823  0.39461677  1
  N  N434  1  0.17304065  0.77868643  0.40545320  1
  N  N435  1  0.64223627  0.10578020  0.41811416  1
  N  N436  1  0.67635078  0.44581179  0.40058135  1
  N  N437  1  0.67262101  0.78361237  0.39246002  1
  N  N438  1  0.31312161  0.22017457  0.90649817  1
  N  N439  1  0.31528902  0.55288008  0.89484453  1
  N  N440  1  0.30729747  0.89207164  0.90399364  1
  N  N441  1  0.81714967  0.21439139  0.90620101  1
  N  N442  1  0.82604638  0.55110475  0.90762150  1
  N  N443  1  0.80294145  0.89746093  0.90993095  1
  N  N444  1  0.30504551  0.10676710  0.07768936  1
  N  N445  1  0.30276903  0.44524025  0.09128200  1
  N  N446  1  0.30311838  0.77755747  0.08366267  1
  N  N447  1  0.82609982  0.10834033  0.10416692  1
  N  N448  1  0.80837651  0.44303205  0.09577466  1
  N  N449  1  0.80819836  0.77789039  0.10432663  1
  N  N450  1  0.19802718  0.22688351  0.58886518  1
  N  N451  1  0.17910138  0.55780277  0.60189190  1
  N  N452  1  0.18166221  0.88589528  0.60241838  1
  N  N453  1  0.68760124  0.22193889  0.60977377  1
  N  N454  1  0.68188308  0.55552292  0.59883750  1
  N  N455  1  0.69023836  0.89370787  0.58396459  1
  Cl  Cl456  1  0.29021582  0.05596537  0.59562340  1
  Cl  Cl457  1  0.26553462  0.39714058  0.60764883  1
  Cl  Cl458  1  0.26114615  0.72230348  0.62480401  1
  Cl  Cl459  1  0.78165531  0.05909939  0.61935563  1
  Cl  Cl460  1  0.76079493  0.38708101  0.62393966  1
  Cl  Cl461  1  0.76406557  0.72262043  0.61606565  1
  Cl  Cl462  1  0.24802564  0.28436909  0.12644464  1
  Cl  Cl463  1  0.24355468  0.61079817  0.10967323  1
  Cl  Cl464  1  0.25831233  0.95076399  0.12715293  1
  Cl  Cl465  1  0.75036484  0.27300488  0.10607947  1
  Cl  Cl466  1  0.74461286  0.60587445  0.11095956  1
  Cl  Cl467  1  0.75916012  0.94636018  0.10300819  1
  Cl  Cl468  1  0.24988870  0.04663081  0.86021144  1
  Cl  Cl469  1  0.26137301  0.38159940  0.87505153  1
  Cl  Cl470  1  0.26416891  0.73162819  0.89405204  1
  Cl  Cl471  1  0.73979073  0.06144899  0.89999220  1
  Cl  Cl472  1  0.75736787  0.38536794  0.89292371  1
  Cl  Cl473  1  0.75832026  0.72123792  0.88891154  1
  Cl  Cl474  1  0.24839544  0.28134672  0.38919801  1
  Cl  Cl475  1  0.25624119  0.61536874  0.37660580  1
  Cl  Cl476  1  0.24980319  0.94306588  0.39358195  1
  Cl  Cl477  1  0.74898413  0.26380326  0.39035142  1
  Cl  Cl478  1  0.75465351  0.60734284  0.38029297  1
  Cl  Cl479  1  0.74902681  0.94621850  0.37973614  1
  Cl  Cl480  1  0.00653397  0.22949735  0.59813466  1
  Cl  Cl481  1  -0.00349081  0.55667995  0.62183456  1
  Cl  Cl482  1  -0.00229762  0.88590979  0.62459784  1
  Cl  Cl483  1  0.50811293  0.21301983  0.62949028  1
  Cl  Cl484  1  0.49228021  0.55026525  0.62444960  1
  Cl  Cl485  1  0.50288072  0.88539935  0.61262225  1
  Cl  Cl486  1  0.00194313  0.12301114  0.14155645  1
  Cl  Cl487  1  -0.00704863  0.44358148  0.12235170  1
  Cl  Cl488  1  -0.00634971  0.78245458  0.11883325  1
  Cl  Cl489  1  0.51289344  0.10602811  0.09887974  1
  Cl  Cl490  1  0.48545233  0.43871653  0.10879710  1
  Cl  Cl491  1  0.48914371  0.77054565  0.10351417  1
  Cl  Cl492  1  -0.00166604  0.22468475  0.87654945  1
  Cl  Cl493  1  0.00729516  0.55652780  0.88488671  1
  Cl  Cl494  1  -0.01234373  0.88877850  0.89201757  1
  Cl  Cl495  1  0.50748250  0.22134784  0.89338128  1
  Cl  Cl496  1  0.51732737  0.55733537  0.89366657  1
  Cl  Cl497  1  0.49414457  0.88042920  0.88022327  1
  Cl  Cl498  1  -0.04671564  0.10756630  0.40283140  1
  Cl  Cl499  1  -0.01063192  0.44450629  0.38972180  1
  Cl  Cl500  1  -0.01247734  0.77609006  0.38918557  1
  Cl  Cl501  1  0.47040614  0.11329648  0.37220422  1
  Cl  Cl502  1  0.48575764  0.43793633  0.39389007  1
  Cl  Cl503  1  0.48320694  0.77254547  0.38129432  1
  Cl  Cl504  1  0.35720827  0.15067657  0.75158808  1
  Cl  Cl505  1  0.36060377  0.48340110  0.76187572  1
  Cl  Cl506  1  0.35862269  0.82328743  0.75548303  1
  Cl  Cl507  1  0.86166692  0.15129880  0.75740594  1
  Cl  Cl508  1  0.85757154  0.48544941  0.75213787  1
  Cl  Cl509  1  0.85591445  0.81963939  0.74638251  1
  Cl  Cl510  1  0.12646038  0.19194290  0.27089647  1
  Cl  Cl511  1  0.13381055  0.52261957  0.25546124  1
  Cl  Cl512  1  0.13599104  0.85656862  0.24363873  1
  Cl  Cl513  1  0.63693364  0.18654225  0.25786888  1
  Cl  Cl514  1  0.63449788  0.52013428  0.24722479  1
  Cl  Cl515  1  0.63201574  0.85661609  0.25244196  1
  Cl  Cl516  1  0.13783986  0.14218335  0.73790667  1
  Cl  Cl517  1  0.13943939  0.47797459  0.74536112  1
  Cl  Cl518  1  0.13782543  0.81223710  0.74155506  1
  Cl  Cl519  1  0.64319696  0.14626559  0.74504507  1
  Cl  Cl520  1  0.64018367  0.48001044  0.75246089  1
  Cl  Cl521  1  0.63611390  0.81230770  0.75855585  1
  Cl  Cl522  1  0.35109599  0.17988118  0.24345923  1
  Cl  Cl523  1  0.35516092  0.51495240  0.24606674  1
  Cl  Cl524  1  0.35180043  0.84681982  0.25370545  1
  Cl  Cl525  1  0.85360723  0.18197192  0.25402403  1
  Cl  Cl526  1  0.85513560  0.51564675  0.23846235  1
  Cl  Cl527  1  0.85379195  0.84952384  0.24671992  1
  Cl  Cl528  1  0.11748074  0.31154979  0.74473280  1
  Cl  Cl529  1  0.12209447  0.64744312  0.75510057  1
  Cl  Cl530  1  0.11547439  0.97899834  0.74770086  1
  Cl  Cl531  1  0.61300525  0.31336779  0.75336019  1
  Cl  Cl532  1  0.61194069  0.64863634  0.74228444  1
  Cl  Cl533  1  0.62329437  0.97931955  0.74253834  1
  Cl  Cl534  1  0.39789459  0.01446543  0.24241297  1
  Cl  Cl535  1  0.39097328  0.34884491  0.25025557  1
  Cl  Cl536  1  0.39503578  0.68059446  0.23902726  1
  Cl  Cl537  1  0.89448236  0.01301553  0.25060497  1
  Cl  Cl538  1  0.88771357  0.34928358  0.25110436  1
  Cl  Cl539  1  0.89113821  0.68413221  0.24853362  1
  Cl  Cl540  1  0.39546708  0.31381756  0.74441485  1
  Cl  Cl541  1  0.39243286  0.64946484  0.76377486  1
  Cl  Cl542  1  0.40494200  0.99098593  0.74485379  1
  Cl  Cl543  1  0.89716412  0.31806073  0.74990940  1
  Cl  Cl544  1  0.89691476  0.65163747  0.75242678  1
  Cl  Cl545  1  0.89441843  0.98463929  0.75500723  1
  Cl  Cl546  1  0.11387070  0.02488888  0.25835137  1
  Cl  Cl547  1  0.11305265  0.35651732  0.25297723  1
  Cl  Cl548  1  0.11143787  0.68859102  0.25195905  1
  Cl  Cl549  1  0.61460573  0.02439255  0.25893552  1
  Cl  Cl550  1  0.61296606  0.35431509  0.25598785  1
  Cl  Cl551  1  0.61511149  0.69102063  0.24728685  1
