# generated using pymatgen
data_H8PbC4(N3Cl2)2
_symmetry_space_group_name_H-M   'P 1'
_cell_length_a   16.62108470
_cell_length_b   22.50220948
_cell_length_c   21.58845178
_cell_angle_alpha   90.00050687
_cell_angle_beta   90.00555959
_cell_angle_gamma   90.00268203
_symmetry_Int_Tables_number   1
_chemical_formula_structural   H8PbC4(N3Cl2)2
_chemical_formula_sum   'H192 Pb24 C96 N144 Cl96'
_cell_volume   8074.32119442
_cell_formula_units_Z   24
loop_
 _symmetry_equiv_pos_site_id
 _symmetry_equiv_pos_as_xyz
  1  'x, y, z'
loop_
 _atom_site_type_symbol
 _atom_site_label
 _atom_site_symmetry_multiplicity
 _atom_site_fract_x
 _atom_site_fract_y
 _atom_site_fract_z
 _atom_site_occupancy
  H  H0  1  -0.00333025  0.03340893  0.67925314  1
  H  H1  1  -0.00374335  0.36449131  0.68075201  1
  H  H2  1  -0.00828221  0.69824620  0.68148053  1
  H  H3  1  0.50087748  0.03285145  0.68244433  1
  H  H4  1  0.50357227  0.36438281  0.67881202  1
  H  H5  1  0.50739149  0.70076352  0.67889681  1
  H  H6  1  -0.00723521  0.30095427  0.17836826  1
  H  H7  1  0.00244955  0.63608421  0.17919209  1
  H  H8  1  -0.00017698  0.96868257  0.18100865  1
  H  H9  1  0.50106917  0.30201322  0.17844967  1
  H  H10  1  0.49755086  0.63395462  0.18036926  1
  H  H11  1  0.50248608  0.96752444  0.18070041  1
  H  H12  1  0.00071849  0.03288103  0.81979044  1
  H  H13  1  -0.00443620  0.36561320  0.82208909  1
  H  H14  1  -0.00206795  0.69873849  0.81997178  1
  H  H15  1  0.50115755  0.03256716  0.81999671  1
  H  H16  1  0.49656762  0.36522511  0.82169788  1
  H  H17  1  0.49387843  0.69873066  0.82039914  1
  H  H18  1  -0.00149821  0.30060022  0.32064660  1
  H  H19  1  0.00033173  0.63608748  0.31702689  1
  H  H20  1  0.00017928  0.96653500  0.31937224  1
  H  H21  1  0.50204913  0.30077924  0.31838106  1
  H  H22  1  0.50706584  0.63317016  0.32071653  1
  H  H23  1  0.49901918  0.96745345  0.31806270  1
  H  H24  1  0.24625430  0.19809350  0.68194170  1
  H  H25  1  0.24995405  0.53188797  0.67955489  1
  H  H26  1  0.25239738  0.86631841  0.68071100  1
  H  H27  1  0.75656819  0.20057963  0.67884836  1
  H  H28  1  0.74646337  0.53129070  0.68139733  1
  H  H29  1  0.75542743  0.86484377  0.67980633  1
  H  H30  1  0.24224044  0.13511643  0.18089403  1
  H  H31  1  0.25356615  0.46639389  0.17857912  1
  H  H32  1  0.25501563  0.80329492  0.17942287  1
  H  H33  1  0.75115368  0.13245127  0.17630470  1
  H  H34  1  0.75578791  0.46745591  0.17947662  1
  H  H35  1  0.74995205  0.80189400  0.18017294  1
  H  H36  1  0.25273082  0.19880020  0.82230769  1
  H  H37  1  0.24073437  0.53062545  0.82016212  1
  H  H38  1  0.25970309  0.86546859  0.81989549  1
  H  H39  1  0.75647193  0.19728167  0.81889937  1
  H  H40  1  0.76008516  0.53249427  0.81957962  1
  H  H41  1  0.74149423  0.86575614  0.81903138  1
  H  H42  1  0.24727397  0.13554635  0.31831826  1
  H  H43  1  0.25038433  0.46865205  0.31890784  1
  H  H44  1  0.24949510  0.80178378  0.32297192  1
  H  H45  1  0.75446350  0.13511070  0.31916387  1
  H  H46  1  0.75833780  0.46717492  0.31961130  1
  H  H47  1  0.74687118  0.80079580  0.31748852  1
  H  H48  1  0.12899330  0.05080981  0.61555512  1
  H  H49  1  0.13090416  0.38575961  0.61906964  1
  H  H50  1  0.12240608  0.72022962  0.61502025  1
  H  H51  1  0.62926273  0.05456880  0.61233741  1
  H  H52  1  0.62826794  0.38614746  0.60719818  1
  H  H53  1  0.61498472  0.72550852  0.59490068  1
  H  H54  1  0.38060904  0.27980243  0.10339333  1
  H  H55  1  0.37226703  0.61042109  0.10945104  1
  H  H56  1  0.37011930  0.94798210  0.11765137  1
  H  H57  1  0.88507566  0.27329315  0.09561588  1
  H  H58  1  0.86945437  0.61358157  0.11817627  1
  H  H59  1  0.87162745  0.94969840  0.11456963  1
  H  H60  1  0.37646013  0.05270473  0.88884666  1
  H  H61  1  0.38453635  0.38952012  0.90334510  1
  H  H62  1  0.38392579  0.72619563  0.90247174  1
  H  H63  1  0.86857942  0.05178577  0.88316049  1
  H  H64  1  0.88291365  0.39368297  0.90028598  1
  H  H65  1  0.88126690  0.72224136  0.89787053  1
  H  H66  1  0.12372553  0.27814905  0.39139374  1
  H  H67  1  0.12102045  0.61350565  0.39034665  1
  H  H68  1  0.13146588  0.94782929  0.38390652  1
  H  H69  1  0.62514390  0.27997855  0.38836942  1
  H  H70  1  0.61184268  0.60878370  0.40491341  1
  H  H71  1  0.63112475  0.94794784  0.37979564  1
  H  H72  1  0.37449290  0.22040568  0.61445365  1
  H  H73  1  0.38204890  0.55269972  0.61527741  1
  H  H74  1  0.36801159  0.88932983  0.60138610  1
  H  H75  1  0.87307364  0.22103734  0.60337344  1
  H  H76  1  0.87852131  0.55258886  0.61919538  1
  H  H77  1  0.86701347  0.89075580  0.59910541  1
  H  H78  1  0.13000491  0.10995590  0.09989830  1
  H  H79  1  0.11884437  0.44726557  0.11690490  1
  H  H80  1  0.11950275  0.78167100  0.12102066  1
  H  H81  1  0.62804688  0.11185024  0.10650476  1
  H  H82  1  0.61489961  0.45011284  0.12686823  1
  H  H83  1  0.62245494  0.77977627  0.11184075  1
  H  H84  1  0.12054895  0.22064442  0.88766490  1
  H  H85  1  0.13336216  0.55840305  0.90458551  1
  H  H86  1  0.12852766  0.88597423  0.88551494  1
  H  H87  1  0.61944093  0.21652179  0.87893281  1
  H  H88  1  0.62815985  0.55279035  0.88467734  1
  H  H89  1  0.63346437  0.88990616  0.90018969  1
  H  H90  1  0.37265420  0.11408161  0.38859652  1
  H  H91  1  0.37085175  0.44426581  0.39258022  1
  H  H92  1  0.37792802  0.78059562  0.39008033  1
  H  H93  1  0.86871435  0.11287747  0.39827911  1
  H  H94  1  0.86716555  0.44015596  0.40294573  1
  H  H95  1  0.87886681  0.78148802  0.38382330  1
  H  H96  1  0.37555523  0.28075053  0.38758741  1
  H  H97  1  0.36614563  0.61690933  0.37232132  1
  H  H98  1  0.38256348  0.94549428  0.39455174  1
  H  H99  1  0.87454462  0.27816925  0.39138667  1
  H  H100  1  0.87212117  0.61306209  0.38602228  1
  H  H101  1  0.88249279  0.94516586  0.39370841  1
  H  H102  1  0.11779575  0.05424408  0.89511131  1
  H  H103  1  0.13032508  0.38321377  0.88412021  1
  H  H104  1  0.12931918  0.72119345  0.88351737  1
  H  H105  1  0.62574484  0.05322123  0.89040259  1
  H  H106  1  0.63136029  0.38712929  0.88298912  1
  H  H107  1  0.63116264  0.71699702  0.87751079  1
  H  H108  1  0.13126895  0.28326391  0.12320464  1
  H  H109  1  0.11781188  0.60968613  0.10107023  1
  H  H110  1  0.12092549  0.94580426  0.10906661  1
  H  H111  1  0.62916294  0.27795338  0.10970040  1
  H  H112  1  0.62189089  0.61144162  0.11071146  1
  H  H113  1  0.61926045  0.94793686  0.10494205  1
  H  H114  1  0.38095558  0.05516017  0.60640368  1
  H  H115  1  0.37906814  0.38737151  0.60910669  1
  H  H116  1  0.36906301  0.71721505  0.62358797  1
  H  H117  1  0.88044054  0.05742304  0.60120149  1
  H  H118  1  0.88243193  0.38631186  0.60157449  1
  H  H119  1  0.87459624  0.72379695  0.60300481  1
  H  H120  1  0.12326302  0.11163913  0.39122663  1
  H  H121  1  0.12189515  0.44517600  0.38663446  1
  H  H122  1  0.12954844  0.77609507  0.39633391  1
  H  H123  1  0.61979408  0.11553690  0.38117494  1
  H  H124  1  0.62151861  0.44877430  0.37811786  1
  H  H125  1  0.63001410  0.77694620  0.39418600  1
  H  H126  1  0.36864878  0.22300549  0.90071197  1
  H  H127  1  0.37852633  0.55042734  0.87678853  1
  H  H128  1  0.37727349  0.89063919  0.89576320  1
  H  H129  1  0.86678761  0.22135837  0.90079133  1
  H  H130  1  0.87647340  0.55710101  0.89675969  1
  H  H131  1  0.88049165  0.88263003  0.87464739  1
  H  H132  1  0.37715279  0.11503820  0.11924943  1
  H  H133  1  0.36650306  0.44158479  0.09932373  1
  H  H134  1  0.36754527  0.77683426  0.09906610  1
  H  H135  1  0.87657796  0.11275691  0.10880398  1
  H  H136  1  0.86130072  0.44369738  0.09601625  1
  H  H137  1  0.87140589  0.77778188  0.10569962  1
  H  H138  1  0.12506481  0.22027143  0.60681886  1
  H  H139  1  0.13493479  0.55758470  0.60114305  1
  H  H140  1  0.12007304  0.88671504  0.61590220  1
  H  H141  1  0.62492955  0.21982876  0.61686822  1
  H  H142  1  0.62965948  0.55605785  0.60400955  1
  H  H143  1  0.61935161  0.88526961  0.62122898  1
  H  H144  1  0.93797301  0.91681712  0.50470423  1
  H  H145  1  0.54213677  0.75045967  0.49421749  1
  H  H146  1  0.07316687  0.91756713  -0.00047905  1
  H  H147  1  0.69043481  0.75083901  0.50211383  1
  H  H148  1  0.69056769  0.57845738  0.49946813  1
  H  H149  1  0.66452427  0.75103988  0.00190929  1
  H  H150  1  0.30101733  0.75694761  -0.00429263  1
  H  H151  1  0.60241637  0.92068601  0.49294023  1
  H  H152  1  0.58178835  0.25069941  0.49971384  1
  H  H153  1  0.79844984  0.24576284  1.00638483  1
  H  H154  1  0.95120782  0.41079042  1.00437273  1
  H  H155  1  0.05324411  0.58458315  -0.00239332  1
  H  H156  1  0.32477024  0.08516512  0.49788650  1
  H  H157  1  0.58353521  0.24896122  0.00536434  1
  H  H158  1  0.84532021  0.58363538  0.50751325  1
  H  H159  1  0.79787677  0.91412521  0.49621499  1
  H  H160  1  0.30176007  0.91695303  0.49907557  1
  H  H161  1  0.78982921  0.41796084  -0.00994560  1
  H  H162  1  0.79313861  0.40973825  0.50127462  1
  H  H163  1  0.57672853  0.58240742  0.00041106  1
  H  H164  1  0.33221601  0.24899688  0.50458341  1
  H  H165  1  0.31828706  0.41530029  0.49994714  1
  H  H166  1  0.94412475  0.08566622  0.49806373  1
  H  H167  1  0.90543590  0.91905800  0.00327520  1
  H  H168  1  0.06775166  0.58586575  0.49908831  1
  H  H169  1  0.94361395  0.41247050  0.49369271  1
  H  H170  1  0.15687022  0.24795952  0.99425329  1
  H  H171  1  0.09926232  0.41129913  0.51118180  1
  H  H172  1  0.35030581  0.58218256  0.50726833  1
  H  H173  1  0.06085109  0.08099547  1.00601691  1
  H  H174  1  0.41853100  0.58101234  0.00528675  1
  H  H175  1  0.41998828  0.08125731  1.00089591  1
  H  H176  1  0.45526007  0.75331972  1.00319587  1
  H  H177  1  0.18705601  0.76106501  0.50112963  1
  H  H178  1  0.43976318  0.92146713  0.50462439  1
  H  H179  1  0.80708189  0.08955290  0.50678430  1
  H  H180  1  0.20917732  0.58168474  1.00477574  1
  H  H181  1  0.09873060  0.41842607  0.98922179  1
  H  H182  1  0.14447961  0.75290672  0.00776802  1
  H  H183  1  0.65188523  0.08877678  0.48889653  1
  H  H184  1  0.60345503  0.41598796  0.99240405  1
  H  H185  1  0.57999114  0.41416035  0.50263935  1
  H  H186  1  0.56230921  0.92137235  -0.00588744  1
  H  H187  1  0.20002442  0.08225826  -0.00127974  1
  H  H188  1  0.70153597  0.91962208  1.00653684  1
  H  H189  1  0.95746159  0.24557772  -0.00445825  1
  H  H190  1  0.33908631  0.74749796  0.49480893  1
  H  H191  1  0.53936115  0.58290378  0.51023184  1
  Pb  Pb192  1  0.25036172  0.04486198  0.75423840  1
  Pb  Pb193  1  0.25755886  0.38133075  0.75178354  1
  Pb  Pb194  1  0.25021575  0.71549736  0.75350082  1
  Pb  Pb195  1  0.75002264  0.05045082  0.74315311  1
  Pb  Pb196  1  0.75262857  0.37809999  0.74622902  1
  Pb  Pb197  1  0.75507916  0.71401437  0.74551283  1
  Pb  Pb198  1  0.25367457  0.28744531  0.24948523  1
  Pb  Pb199  1  0.24179052  0.61859474  0.24341183  1
  Pb  Pb200  1  0.24995393  0.95342593  0.25537484  1
  Pb  Pb201  1  0.74528295  0.28464295  0.24479342  1
  Pb  Pb202  1  0.75114469  0.61860463  0.25849409  1
  Pb  Pb203  1  0.74951096  0.95421227  0.25285922  1
  Pb  Pb204  1  0.00532384  0.21457918  0.75324332  1
  Pb  Pb205  1  0.00356377  0.54567316  0.75432804  1
  Pb  Pb206  1  -0.00272884  0.88137036  0.74696895  1
  Pb  Pb207  1  0.49746543  0.21318322  0.75244000  1
  Pb  Pb208  1  0.50672367  0.54891311  0.75073774  1
  Pb  Pb209  1  0.50198693  0.87996971  0.75136857  1
  Pb  Pb210  1  0.00022419  0.12156284  0.25337931  1
  Pb  Pb211  1  -0.00370576  0.44779076  0.24927035  1
  Pb  Pb212  1  -0.00118925  0.78860988  0.25062400  1
  Pb  Pb213  1  0.49747435  0.12012143  0.24973461  1
  Pb  Pb214  1  0.49659630  0.45500878  0.25253132  1
  Pb  Pb215  1  0.49945575  0.78361847  0.24907845  1
  C  C216  1  0.00176547  0.04725995  0.63145655  1
  C  C217  1  0.00383074  0.37909018  0.63305795  1
  C  C218  1  -0.00392069  0.71323651  0.63383977  1
  C  C219  1  0.50390421  0.04706181  0.63438923  1
  C  C220  1  0.50408698  0.37927830  0.63112792  1
  C  C221  1  0.49726663  0.71403235  0.63120753  1
  C  C222  1  0.00288416  0.28652095  0.13105530  1
  C  C223  1  -0.00316214  0.62060887  0.13193742  1
  C  C224  1  -0.00269083  0.95412934  0.13303865  1
  C  C225  1  0.50414662  0.28691273  0.13083766  1
  C  C226  1  0.49665255  0.61865520  0.13261018  1
  C  C227  1  0.49753265  0.95394780  0.13274366  1
  C  C228  1  -0.00414586  0.04660022  0.86774453  1
  C  C229  1  0.00322826  0.38042539  0.86973228  1
  C  C230  1  0.00280751  0.71367300  0.86740471  1
  C  C231  1  0.50058282  0.04646104  0.86801789  1
  C  C232  1  0.50469187  0.38010558  0.86907978  1
  C  C233  1  0.50268671  0.71327003  0.86781461  1
  C  C234  1  -0.00080984  0.28575437  0.36820803  1
  C  C235  1  -0.00252416  0.62083766  0.36466486  1
  C  C236  1  0.00455352  0.95328911  0.36742907  1
  C  C237  1  0.50139622  0.28693863  0.36644037  1
  C  C238  1  0.49504322  0.61982021  0.36812976  1
  C  C239  1  0.50456788  0.95358274  0.36604590  1
  C  C240  1  0.24854071  0.21308668  0.63430468  1
  C  C241  1  0.25595362  0.54735162  0.63213544  1
  C  C242  1  0.24691032  0.88103831  0.63303983  1
  C  C243  1  0.75138438  0.21421679  0.63093008  1
  C  C244  1  0.75127287  0.54610639  0.63360282  1
  C  C245  1  0.74752615  0.87930783  0.63224784  1
  C  C246  1  0.24964911  0.12006191  0.13349712  1
  C  C247  1  0.24586606  0.45215101  0.13118370  1
  C  C248  1  0.24752123  0.78812983  0.13188020  1
  C  C249  1  0.75201013  0.11866808  0.12819327  1
  C  C250  1  0.74400611  0.45371599  0.13213703  1
  C  C251  1  0.74793358  0.78669303  0.13258768  1
  C  C252  1  0.24673913  0.21389950  0.86976932  1
  C  C253  1  0.25054745  0.54574906  0.86731444  1
  C  C254  1  0.25488866  0.88039857  0.86735393  1
  C  C255  1  0.74723605  0.21169316  0.86638686  1
  C  C256  1  0.75461978  0.54699534  0.86705937  1
  C  C257  1  0.75158957  0.87949343  0.86650544  1
  C  C258  1  0.24750117  0.12022353  0.36591784  1
  C  C259  1  0.24743414  0.45315001  0.36642981  1
  C  C260  1  0.25238423  0.78595019  0.37054259  1
  C  C261  1  0.74700455  0.12068232  0.36692076  1
  C  C262  1  0.74928405  0.45234923  0.36692198  1
  C  C263  1  0.75221060  0.78628215  0.36520130  1
  C  C264  1  0.28996923  0.23890670  0.54242294  1
  C  C265  1  0.95117384  0.92929139  0.04006057  1
  C  C266  1  0.43508061  0.73605974  0.54310645  1
  C  C267  1  0.03333660  0.92811722  0.03807497  1
  C  C268  1  0.96238128  0.25805317  0.46072735  1
  C  C269  1  0.70706047  0.76094876  0.04027709  1
  C  C270  1  0.55639943  0.93009223  0.45745894  1
  C  C271  1  0.70119198  0.23915872  0.54059037  1
  C  C272  1  0.78309943  0.57480702  0.96192114  1
  C  C273  1  0.46163718  0.40647961  0.53741881  1
  C  C274  1  0.03062331  0.59510495  0.45869115  1
  C  C275  1  0.52725228  0.92972320  0.03568065  1
  C  C276  1  0.68966065  0.90663295  0.54417426  1
  C  C277  1  0.53992510  0.26112859  0.46131796  1
  C  C278  1  0.67966196  0.43062500  0.04573612  1
  C  C279  1  0.80235344  0.57363314  0.54403946  1
  C  C280  1  0.78204390  0.23964146  0.53575784  1
  C  C281  1  0.72443909  0.76118553  0.46033638  1
  C  C282  1  0.94314141  0.59204488  0.04256486  1
  C  C283  1  0.19135423  0.76146700  0.04357310  1
  C  C284  1  0.46030254  0.07142240  0.96264259  1
  C  C285  1  0.50982386  0.59397800  0.46665548  1
  C  C286  1  0.28444276  0.90964089  0.96128277  1
  C  C287  1  0.97335322  0.92781576  0.46380903  1
  C  C288  1  0.02581872  0.07159106  0.96453729  1
  C  C289  1  0.05463592  0.92935853  0.45848415  1
  C  C290  1  0.56300844  0.73967088  0.95556262  1
  C  C291  1  0.53752809  0.59272294  0.03931704  1
  C  C292  1  0.81300057  0.90390776  0.95346590  1
  C  C293  1  0.71338563  0.09315063  0.03545570  1
  C  C294  1  0.75993267  0.42824527  0.03370296  1
  C  C295  1  0.54186934  0.07136797  0.96165642  1
  C  C296  1  0.06458733  0.25993828  0.04440170  1
  C  C297  1  0.05458642  0.07154110  0.54027807  1
  C  C298  1  0.44608564  0.92958660  0.04206421  1
  C  C299  1  0.45819639  0.26200043  0.45951691  1
  C  C300  1  0.47450164  0.93000771  0.46284292  1
  C  C301  1  0.76767393  0.23651809  0.96282216  1
  C  C302  1  0.42970901  0.59684267  0.45410385  1
  C  C303  1  0.94437831  0.07077079  0.95868469  1
  C  C304  1  0.79404482  0.09344584  0.03623631  1
  C  C305  1  0.28553346  0.09447814  0.45874318  1
  C  C306  1  0.28013588  0.42616057  0.46022419  1
  C  C307  1  0.73268607  0.90718397  0.96418806  1
  C  C308  1  0.27033168  0.42416826  0.03585521  1
  C  C309  1  0.04989612  0.74071591  0.95790272  1
  C  C310  1  0.97599160  0.40382266  0.53660581  1
  C  C311  1  0.77486030  0.09703000  0.46357003  1
  N  N312  1  0.29724871  0.76477173  0.46208672  1
  N  N313  1  0.72284437  0.57519884  0.53997011  1
  N  N314  1  0.47033575  0.07229492  0.53914341  1
  N  N315  1  0.48443905  0.74229425  0.96283926  1
  N  N316  1  0.68909848  0.42839880  0.45447109  1
  N  N317  1  0.55550970  0.40609322  0.95715675  1
  N  N318  1  0.05507097  0.40461468  0.54411847  1
  N  N319  1  0.97806500  0.41462395  0.96159047  1
  N  N320  1  0.69582357  0.09614999  0.45602634  1
  N  N321  1  0.68897356  0.23571941  0.95557330  1
  N  N322  1  0.21075901  0.23924961  0.53930143  1
  N  N323  1  0.54079267  0.40572121  0.53833415  1
  N  N324  1  0.30374639  0.57282442  0.54290708  1
  N  N325  1  0.20692029  0.90764141  0.95946603  1
  N  N326  1  0.98629154  0.25680989  0.03605447  1
  N  N327  1  0.51343040  0.73896721  0.53457164  1
  N  N328  1  0.95130453  0.59430486  0.45739456  1
  N  N329  1  0.80352016  0.76264573  0.45703592  1
  N  N330  1  0.96638967  0.74132277  0.53868753  1
  N  N331  1  0.19432966  0.90277169  0.54202761  1
  N  N332  1  0.19293543  0.42706786  0.04027488  1
  N  N333  1  0.23471078  0.57457580  0.96164449  1
  N  N334  1  0.78623476  0.75992980  0.03790423  1
  N  N335  1  0.04275244  0.74020505  0.54247341  1
  N  N336  1  0.30583906  0.09547331  0.04463730  1
  N  N337  1  0.46635532  0.26074435  0.03667370  1
  N  N338  1  0.27832765  0.24063178  0.96505733  1
  N  N339  1  0.47804468  0.40717310  0.96509262  1
  N  N340  1  0.20072293  0.42657928  0.45910603  1
  N  N341  1  0.20634065  0.09307757  0.45979979  1
  N  N342  1  0.05560954  0.40171314  0.95873641  1
  N  N343  1  0.45772372  0.59354062  0.03991597  1
  N  N344  1  0.54437874  0.26050314  0.04044519  1
  N  N345  1  0.31203156  0.57080653  0.95398177  1
  N  N346  1  0.22823604  0.09423429  0.03911221  1
  N  N347  1  0.70562821  0.57335090  0.95921402  1
  N  N348  1  0.02190780  0.59158025  0.03794339  1
  N  N349  1  0.97596480  0.07367141  0.53668364  1
  N  N350  1  0.76816303  0.90787877  0.53735174  1
  N  N351  1  0.54694072  0.07201902  0.54135655  1
  N  N352  1  0.22579427  0.57493158  0.53684190  1
  N  N353  1  0.21903981  0.75251733  0.46137623  1
  N  N354  1  0.27213074  0.90380636  0.53838735  1
  N  N355  1  0.27081124  0.75904713  0.03727975  1
  N  N356  1  0.03972873  0.25821845  0.46210938  1
  N  N357  1  0.97265246  0.74143886  0.96382870  1
  N  N358  1  0.76658448  0.42615619  0.46184476  1
  N  N359  1  0.20038270  0.23977263  0.95901097  1
  N  N360  1  0.07097518  0.05530562  0.59889620  1
  N  N361  1  0.07190274  0.38879985  0.60332472  1
  N  N362  1  0.06239278  0.72230193  0.60127305  1
  N  N363  1  0.56885918  0.05641632  0.60040724  1
  N  N364  1  0.56770337  0.38853209  0.59582495  1
  N  N365  1  0.55264823  0.72487315  0.58882993  1
  N  N366  1  0.44182865  0.27745517  0.09326305  1
  N  N367  1  0.43277849  0.60893140  0.09763972  1
  N  N368  1  0.42858754  0.94408460  0.10066286  1
  N  N369  1  0.94728161  0.27464106  0.08916298  1
  N  N370  1  0.92744588  0.60932034  0.10087728  1
  N  N371  1  0.93065586  0.94555054  0.09945954  1
  N  N372  1  0.43572562  0.05580680  0.90311655  1
  N  N373  1  0.44656835  0.39101264  0.91014341  1
  N  N374  1  0.44626336  0.72489530  0.90915424  1
  N  N375  1  0.92702733  0.05584110  0.90010871  1
  N  N376  1  0.94463204  0.39130970  0.90988243  1
  N  N377  1  0.94311962  0.72414989  0.90620266  1
  N  N378  1  0.06298952  0.27550083  0.40310053  1
  N  N379  1  0.06026732  0.61060856  0.40211713  1
  N  N380  1  0.07303987  0.94453273  0.40034075  1
  N  N381  1  0.56540935  0.27690321  0.40212259  1
  N  N382  1  0.54967073  0.60873282  0.41179377  1
  N  N383  1  0.57322730  0.94460866  0.39697032  1
  N  N384  1  0.31468243  0.22321015  0.60050559  1
  N  N385  1  0.32299512  0.55630637  0.60067637  1
  N  N386  1  0.30602794  0.89195648  0.59361431  1
  N  N387  1  0.81252850  0.22442590  0.59113558  1
  N  N388  1  0.82028273  0.55678830  0.60246389  1
  N  N389  1  0.80489697  0.88872696  0.59112109  1
  N  N390  1  0.19218006  0.10849562  0.09291277  1
  N  N391  1  0.17755723  0.44427489  0.10119244  1
  N  N392  1  0.17721919  0.77770230  0.10284103  1
  N  N393  1  0.68750103  0.10841930  0.09162053  1
  N  N394  1  0.67076809  0.44582912  0.10576425  1
  N  N395  1  0.68203059  0.77718802  0.09827547  1
  N  N396  1  0.17998450  0.22320068  0.90143393  1
  N  N397  1  0.19572031  0.55698853  0.91002797  1
  N  N398  1  0.18846106  0.88924386  0.89952801  1
  N  N399  1  0.67804843  0.21996156  0.89523741  1
  N  N400  1  0.68787343  0.55574552  0.89885307  1
  N  N401  1  0.69514363  0.89151369  0.90849750  1
  N  N402  1  0.31246259  0.11050024  0.40133300  1
  N  N403  1  0.30998154  0.44222929  0.40386002  1
  N  N404  1  0.31826648  0.77561576  0.40324080  1
  N  N405  1  0.80702686  0.11133707  0.40797445  1
  N  N406  1  0.80482733  0.43934223  0.40855000  1
  N  N407  1  0.81901720  0.77795555  0.39756613  1
  N  N408  1  0.43532091  0.27749431  0.40214732  1
  N  N409  1  0.42150899  0.61223263  0.39417999  1
  N  N410  1  0.44363912  0.94446781  0.40553630  1
  N  N411  1  0.93457445  0.27473479  0.40424387  1
  N  N412  1  0.93224093  0.61051121  0.39821064  1
  N  N413  1  0.94313478  0.94320103  0.40585519  1
  N  N414  1  0.05688075  0.05651367  0.90662156  1
  N  N415  1  0.07180994  0.38975917  0.89928802  1
  N  N416  1  0.07093898  0.72406507  0.89928811  1
  N  N417  1  0.56583173  0.05632503  0.90458605  1
  N  N418  1  0.57286213  0.38965226  0.89888389  1
  N  N419  1  0.57430048  0.72216536  0.89653888  1
  N  N420  1  0.07499325  0.27777837  0.10345808  1
  N  N421  1  0.05614404  0.61065401  0.09240956  1
  N  N422  1  0.06053785  0.94348844  0.09626638  1
  N  N423  1  0.56906021  0.27595861  0.09739469  1
  N  N424  1  0.56181405  0.60854273  0.09676025  1
  N  N425  1  0.55844966  0.94484215  0.09360679  1
  N  N426  1  0.44251655  0.05679049  0.59650976  1
  N  N427  1  0.43882572  0.39044454  0.59501305  1
  N  N428  1  0.42508804  0.72106513  0.60310475  1
  N  N429  1  0.94211735  0.05874267  0.59278215  1
  N  N430  1  0.94385528  0.38873387  0.59197910  1
  N  N431  1  0.93607328  0.72488817  0.59521556  1
  N  N432  1  0.18427598  0.10928476  0.40163705  1
  N  N433  1  0.18190670  0.44380955  0.39984613  1
  N  N434  1  0.19058146  0.77617069  0.40781013  1
  N  N435  1  0.67889886  0.11090811  0.39668612  1
  N  N436  1  0.67915910  0.44530863  0.39561617  1
  N  N437  1  0.69123356  0.77537115  0.40433405  1
  N  N438  1  0.30685661  0.22488918  0.90914140  1
  N  N439  1  0.32115075  0.55487341  0.89460125  1
  N  N440  1  0.31640764  0.89308154  0.90606509  1
  N  N441  1  0.80481024  0.22247433  0.90842146  1
  N  N442  1  0.81562928  0.55877362  0.90656361  1
  N  N443  1  0.82391462  0.88731496  0.89444937  1
  N  N444  1  0.31849738  0.11174536  0.10344858  1
  N  N445  1  0.30495790  0.43969532  0.09019887  1
  N  N446  1  0.30527286  0.77866907  0.09089736  1
  N  N447  1  0.81794274  0.10887231  0.09288669  1
  N  N448  1  0.79920201  0.44274521  0.08890230  1
  N  N449  1  0.80988557  0.77609726  0.09559195  1
  N  N450  1  0.18652899  0.22313389  0.59706231  1
  N  N451  1  0.19662198  0.55923823  0.59262933  1
  N  N452  1  0.17908331  0.88842950  0.60113830  1
  N  N453  1  0.68282253  0.22379924  0.59892397  1
  N  N454  1  0.69144609  0.55551915  0.59445193  1
  N  N455  1  0.67658823  0.88990965  0.60321918  1
  Cl  Cl456  1  0.25793992  0.05176685  0.62055183  1
  Cl  Cl457  1  0.25570205  0.38820902  0.61678213  1
  Cl  Cl458  1  0.24493886  0.72403350  0.61365413  1
  Cl  Cl459  1  0.75578586  0.05545666  0.60536944  1
  Cl  Cl460  1  0.75682216  0.38863372  0.60659301  1
  Cl  Cl461  1  0.74102536  0.72300449  0.60926776  1
  Cl  Cl462  1  0.25672733  0.28160443  0.11581752  1
  Cl  Cl463  1  0.24207641  0.60812680  0.10263874  1
  Cl  Cl464  1  0.24521688  0.94967709  0.12490049  1
  Cl  Cl465  1  0.75854487  0.27554645  0.10854641  1
  Cl  Cl466  1  0.74493173  0.61447708  0.12767318  1
  Cl  Cl467  1  0.74399280  0.94939110  0.12107079  1
  Cl  Cl468  1  0.24217054  0.05641850  0.89090304  1
  Cl  Cl469  1  0.25752094  0.38662539  0.88553652  1
  Cl  Cl470  1  0.26069722  0.72646413  0.89487216  1
  Cl  Cl471  1  0.74648386  0.04903078  0.87107678  1
  Cl  Cl472  1  0.76105722  0.38916935  0.88183069  1
  Cl  Cl473  1  0.75601884  0.71839432  0.87801699  1
  Cl  Cl474  1  0.25093513  0.28071901  0.38136291  1
  Cl  Cl475  1  0.24184920  0.61693249  0.37492435  1
  Cl  Cl476  1  0.26012562  0.94058921  0.39222596  1
  Cl  Cl477  1  0.75129521  0.28353463  0.37596790  1
  Cl  Cl478  1  0.73849399  0.60640572  0.39728211  1
  Cl  Cl479  1  0.75909773  0.94449606  0.39033585  1
  Cl  Cl480  1  -0.00012860  0.21553426  0.62197426  1
  Cl  Cl481  1  0.00938466  0.55088550  0.62089720  1
  Cl  Cl482  1  -0.01007817  0.89138232  0.61253976  1
  Cl  Cl483  1  0.49893780  0.22093390  0.62052219  1
  Cl  Cl484  1  0.50715809  0.55234303  0.61460470  1
  Cl  Cl485  1  0.49001174  0.88408260  0.61532170  1
  Cl  Cl486  1  0.00934923  0.11522696  0.11888915  1
  Cl  Cl487  1  -0.01230311  0.44232004  0.10620745  1
  Cl  Cl488  1  -0.00510388  0.77855838  0.11989070  1
  Cl  Cl489  1  0.50168756  0.11396244  0.11734613  1
  Cl  Cl490  1  0.48791173  0.44905715  0.12133532  1
  Cl  Cl491  1  0.48984444  0.77507903  0.10671668  1
  Cl  Cl492  1  -0.00763645  0.22485908  0.89585657  1
  Cl  Cl493  1  0.01044364  0.55779747  0.89674795  1
  Cl  Cl494  1  0.00563725  0.88599700  0.87877534  1
  Cl  Cl495  1  0.49277676  0.22038395  0.88639504  1
  Cl  Cl496  1  0.50307185  0.55548965  0.88571999  1
  Cl  Cl497  1  0.50498446  0.88522780  0.88448934  1
  Cl  Cl498  1  -0.00818009  0.11012638  0.39213738  1
  Cl  Cl499  1  -0.00909873  0.44118904  0.38831582  1
  Cl  Cl500  1  0.00704265  0.78274612  0.38174351  1
  Cl  Cl501  1  0.49651213  0.11600182  0.38126143  1
  Cl  Cl502  1  0.49631808  0.44447406  0.38770356  1
  Cl  Cl503  1  0.50411746  0.77547512  0.39077334  1
  Cl  Cl504  1  0.36071651  0.14630423  0.75195103  1
  Cl  Cl505  1  0.35932082  0.47781813  0.75097015  1
  Cl  Cl506  1  0.36123891  0.80958532  0.74774986  1
  Cl  Cl507  1  0.85765679  0.14350828  0.74943283  1
  Cl  Cl508  1  0.86429894  0.47912308  0.74736301  1
  Cl  Cl509  1  0.86133332  0.81129713  0.75092331  1
  Cl  Cl510  1  0.13725794  0.18965083  0.24926939  1
  Cl  Cl511  1  0.13959310  0.52241066  0.24680673  1
  Cl  Cl512  1  0.13825376  0.85473845  0.24974318  1
  Cl  Cl513  1  0.63983991  0.18935859  0.24987939  1
  Cl  Cl514  1  0.63441626  0.52051863  0.25140427  1
  Cl  Cl515  1  0.63667118  0.85455289  0.25110119  1
  Cl  Cl516  1  0.13729742  0.14547739  0.75298544  1
  Cl  Cl517  1  0.13846731  0.47803143  0.75095980  1
  Cl  Cl518  1  0.14202089  0.81042067  0.74970362  1
  Cl  Cl519  1  0.63829850  0.14301681  0.74829415  1
  Cl  Cl520  1  0.63943772  0.47808355  0.75234270  1
  Cl  Cl521  1  0.63609117  0.81120077  0.74667212  1
  Cl  Cl522  1  0.36157230  0.18857507  0.24824935  1
  Cl  Cl523  1  0.36217816  0.52378967  0.25096333  1
  Cl  Cl524  1  0.36136712  0.85436405  0.25180231  1
  Cl  Cl525  1  0.86283504  0.18727838  0.24779903  1
  Cl  Cl526  1  0.85655212  0.52347004  0.25249771  1
  Cl  Cl527  1  0.86067394  0.85437859  0.25187952  1
  Cl  Cl528  1  0.10903171  0.31000209  0.75301127  1
  Cl  Cl529  1  0.11475027  0.64535104  0.75117708  1
  Cl  Cl530  1  0.11353530  0.97820375  0.74541425  1
  Cl  Cl531  1  0.61449308  0.31110345  0.75307570  1
  Cl  Cl532  1  0.60802905  0.64438748  0.75173316  1
  Cl  Cl533  1  0.61032809  0.97589629  0.74603035  1
  Cl  Cl534  1  0.38808775  0.02221170  0.24683543  1
  Cl  Cl535  1  0.38850038  0.35381313  0.25149111  1
  Cl  Cl536  1  0.38782233  0.68990081  0.25142082  1
  Cl  Cl537  1  0.88711999  0.02201550  0.24950103  1
  Cl  Cl538  1  0.89074304  0.35675918  0.24794003  1
  Cl  Cl539  1  0.88564179  0.68792882  0.25281118  1
  Cl  Cl540  1  0.39200282  0.31371790  0.75050606  1
  Cl  Cl541  1  0.38589281  0.64422116  0.74644517  1
  Cl  Cl542  1  0.38630207  0.97789773  0.75144158  1
  Cl  Cl543  1  0.89104125  0.31401168  0.75143598  1
  Cl  Cl544  1  0.88874095  0.64460320  0.74948210  1
  Cl  Cl545  1  0.88989397  0.97618531  0.75229605  1
  Cl  Cl546  1  0.11321585  0.02174696  0.25508496  1
  Cl  Cl547  1  0.10857192  0.35842153  0.24718253  1
  Cl  Cl548  1  0.11120740  0.68925594  0.24740210  1
  Cl  Cl549  1  0.61305553  0.02236140  0.25659521  1
  Cl  Cl550  1  0.61315114  0.35648643  0.24685619  1
  Cl  Cl551  1  0.60504362  0.68922930  0.25128025  1
