# generated using pymatgen
data_H8PbC4(N3Cl2)2
_symmetry_space_group_name_H-M   'P 1'
_cell_length_a   16.62196412
_cell_length_b   22.50419486
_cell_length_c   21.58868865
_cell_angle_alpha   89.99951684
_cell_angle_beta   89.98798880
_cell_angle_gamma   90.00344349
_symmetry_Int_Tables_number   1
_chemical_formula_structural   H8PbC4(N3Cl2)2
_chemical_formula_sum   'H192 Pb24 C96 N144 Cl96'
_cell_volume   8075.54930293
_cell_formula_units_Z   24
loop_
 _symmetry_equiv_pos_site_id
 _symmetry_equiv_pos_as_xyz
  1  'x, y, z'
loop_
 _atom_site_type_symbol
 _atom_site_label
 _atom_site_symmetry_multiplicity
 _atom_site_fract_x
 _atom_site_fract_y
 _atom_site_fract_z
 _atom_site_occupancy
  H  H0  1  0.00350829  0.03107902  0.68228159  1
  H  H1  1  -0.00165451  0.36585178  0.67994334  1
  H  H2  1  0.01244810  0.69746802  0.67939939  1
  H  H3  1  0.49532793  0.03105268  0.68143952  1
  H  H4  1  0.50239666  0.36370222  0.68245718  1
  H  H5  1  0.48891795  0.70038867  0.67810848  1
  H  H6  1  -0.00313479  0.30180934  0.17747993  1
  H  H7  1  0.00304119  0.63625646  0.17993836  1
  H  H8  1  -0.00635904  0.96715447  0.17801841  1
  H  H9  1  0.49382264  0.30271009  0.17698090  1
  H  H10  1  0.50339992  0.63477497  0.17955689  1
  H  H11  1  0.49532786  0.96874887  0.17683384  1
  H  H12  1  -0.00473344  0.02899064  0.82081112  1
  H  H13  1  -0.00573605  0.36402564  0.82177590  1
  H  H14  1  -0.00062220  0.69774166  0.82019530  1
  H  H15  1  0.50121192  0.03111254  0.82028892  1
  H  H16  1  0.50375858  0.36474613  0.82085970  1
  H  H17  1  0.49282087  0.69747826  0.82108481  1
  H  H18  1  0.00108654  0.30154650  0.31758180  1
  H  H19  1  0.00765605  0.63365377  0.32226189  1
  H  H20  1  0.00158269  0.96948544  0.31701844  1
  H  H21  1  0.50627620  0.30014637  0.32176803  1
  H  H22  1  0.48924151  0.63487235  0.31709497  1
  H  H23  1  0.50700368  0.96683108  0.32258137  1
  H  H24  1  0.24670008  0.19949144  0.68033423  1
  H  H25  1  0.25529686  0.53204211  0.67949566  1
  H  H26  1  0.24485649  0.86515972  0.67773348  1
  H  H27  1  0.74480644  0.19664396  0.67865251  1
  H  H28  1  0.74443613  0.53182030  0.67902402  1
  H  H29  1  0.75102231  0.86445937  0.68249907  1
  H  H30  1  0.24830911  0.13613722  0.18011520  1
  H  H31  1  0.24564059  0.46798873  0.17981287  1
  H  H32  1  0.25689771  0.80192889  0.18016419  1
  H  H33  1  0.74731298  0.13690563  0.18115775  1
  H  H34  1  0.74850133  0.46841161  0.17830958  1
  H  H35  1  0.75317602  0.80190945  0.17831148  1
  H  H36  1  0.25593091  0.19799328  0.82286852  1
  H  H37  1  0.24819893  0.53096699  0.82056183  1
  H  H38  1  0.25909264  0.86747221  0.82316026  1
  H  H39  1  0.75167562  0.19860020  0.82187024  1
  H  H40  1  0.74816053  0.52978466  0.82137793  1
  H  H41  1  0.75498610  0.86556141  0.82234384  1
  H  H42  1  0.25996095  0.13362851  0.31797644  1
  H  H43  1  0.26371175  0.46927101  0.31955878  1
  H  H44  1  0.24802433  0.80263946  0.31962602  1
  H  H45  1  0.74390546  0.13435473  0.32034734  1
  H  H46  1  0.74332620  0.46690759  0.31955840  1
  H  H47  1  0.75213881  0.80196970  0.32171454  1
  H  H48  1  0.12730884  0.05317802  0.61113761  1
  H  H49  1  0.12179065  0.38791913  0.61059863  1
  H  H50  1  0.12201005  0.72421283  0.59743391  1
  H  H51  1  0.62797064  0.05289127  0.61659342  1
  H  H52  1  0.62692375  0.38563986  0.61263289  1
  H  H53  1  0.63210854  0.71517344  0.62962422  1
  H  H54  1  0.38964593  0.27272150  0.09250952  1
  H  H55  1  0.36917432  0.61438017  0.11779656  1
  H  H56  1  0.38074073  0.94457681  0.09727184  1
  H  H57  1  0.88603816  0.27696585  0.09570058  1
  H  H58  1  0.86936229  0.61515227  0.11778547  1
  H  H59  1  0.87872796  0.94305828  0.10065189  1
  H  H60  1  0.37472108  0.05064496  0.88794197  1
  H  H61  1  0.37230642  0.38760803  0.88341424  1
  H  H62  1  0.38215290  0.72481597  0.90178979  1
  H  H63  1  0.87431627  0.05430507  0.89543691  1
  H  H64  1  0.87455051  0.38850992  0.89616514  1
  H  H65  1  0.88179363  0.72173261  0.89852550  1
  H  H66  1  0.11676313  0.27809866  0.39401752  1
  H  H67  1  0.11812945  0.60821893  0.40468525  1
  H  H68  1  0.12461138  0.94620629  0.38927664  1
  H  H69  1  0.61322388  0.27368756  0.40554232  1
  H  H70  1  0.62561095  0.61440628  0.37699750  1
  H  H71  1  0.61694506  0.94338932  0.40231124  1
  H  H72  1  0.38278391  0.21978050  0.62053083  1
  H  H73  1  0.37027116  0.55815651  0.60017709  1
  H  H74  1  0.37911926  0.88542375  0.61687241  1
  H  H75  1  0.88183240  0.21975014  0.62231025  1
  H  H76  1  0.87739199  0.55173128  0.61603921  1
  H  H77  1  0.87381667  0.88685028  0.61163040  1
  H  H78  1  0.12515965  0.11141785  0.10778974  1
  H  H79  1  0.12835932  0.44354121  0.10186803  1
  H  H80  1  0.11689915  0.78566052  0.12501603  1
  H  H81  1  0.62536813  0.11248209  0.10915220  1
  H  H82  1  0.62551013  0.44329549  0.10785331  1
  H  H83  1  0.62378312  0.78131670  0.11544366  1
  H  H84  1  0.11715295  0.21628854  0.87923677  1
  H  H85  1  0.13381476  0.55568190  0.90006492  1
  H  H86  1  0.12163759  0.88342001  0.87904657  1
  H  H87  1  0.61912675  0.21994909  0.88676702  1
  H  H88  1  0.63309105  0.55641889  0.89962708  1
  H  H89  1  0.61943373  0.88574209  0.88119617  1
  H  H90  1  0.36794595  0.10943536  0.39933483  1
  H  H91  1  0.36924151  0.44118444  0.40524191  1
  H  H92  1  0.37471688  0.78310831  0.38863505  1
  H  H93  1  0.87333797  0.11262456  0.38786765  1
  H  H94  1  0.87899091  0.44864752  0.37858629  1
  H  H95  1  0.86673816  0.77393141  0.40034394  1
  H  H96  1  0.36707576  0.28021536  0.37565760  1
  H  H97  1  0.37806879  0.61047064  0.39843780  1
  H  H98  1  0.37056393  0.94964907  0.37929439  1
  H  H99  1  0.86831835  0.28299987  0.37908358  1
  H  H100  1  0.87209486  0.61247345  0.37940144  1
  H  H101  1  0.87511286  0.94542187  0.38710462  1
  H  H102  1  0.12273967  0.05139530  0.88919428  1
  H  H103  1  0.12348109  0.38705279  0.88802104  1
  H  H104  1  0.12998435  0.72057376  0.88368138  1
  H  H105  1  0.62344875  0.05418236  0.89053824  1
  H  H106  1  0.62053523  0.39035099  0.89859347  1
  H  H107  1  0.62934074  0.71827838  0.87844628  1
  H  H108  1  0.13271027  0.28282797  0.11887425  1
  H  H109  1  0.11639931  0.60925080  0.09938200  1
  H  H110  1  0.12644117  0.94808427  0.11836478  1
  H  H111  1  0.63473689  0.28463878  0.12478585  1
  H  H112  1  0.61623642  0.60805875  0.09855215  1
  H  H113  1  0.62849427  0.94696035  0.11335824  1
  H  H114  1  0.37935749  0.05299567  0.60351010  1
  H  H115  1  0.37685300  0.38939621  0.61237329  1
  H  H116  1  0.38833099  0.72730199  0.59244093  1
  H  H117  1  0.87852752  0.05511971  0.61178506  1
  H  H118  1  0.87267855  0.38683661  0.61036866  1
  H  H119  1  0.87581413  0.71627248  0.62137911  1
  H  H120  1  0.12117925  0.11654871  0.37318107  1
  H  H121  1  0.12458611  0.45083955  0.37505666  1
  H  H122  1  0.12672032  0.77566430  0.39145938  1
  H  H123  1  0.62490778  0.11081557  0.39633631  1
  H  H124  1  0.63146600  0.44371223  0.39821656  1
  H  H125  1  0.62017839  0.78208693  0.38608310  1
  H  H126  1  0.36310827  0.22694162  0.90554226  1
  H  H127  1  0.38180450  0.55301614  0.88154191  1
  H  H128  1  0.36802132  0.89022316  0.90398178  1
  H  H129  1  0.86688928  0.22447380  0.90025732  1
  H  H130  1  0.88113747  0.55066545  0.88333658  1
  H  H131  1  0.86651392  0.89020754  0.90403774  1
  H  H132  1  0.37518722  0.11328945  0.11262613  1
  H  H133  1  0.37713168  0.44715700  0.11599123  1
  H  H134  1  0.36425277  0.77839392  0.09768350  1
  H  H135  1  0.87455074  0.11324254  0.11185081  1
  H  H136  1  0.87463954  0.44625050  0.10797852  1
  H  H137  1  0.87205949  0.77961725  0.10401518  1
  H  H138  1  0.13472386  0.22311423  0.60002275  1
  H  H139  1  0.12260566  0.55218639  0.61653085  1
  H  H140  1  0.13139595  0.89129545  0.59998973  1
  H  H141  1  0.63486552  0.22452369  0.59705691  1
  H  H142  1  0.62905201  0.55687883  0.60235136  1
  H  H143  1  0.62432061  0.88574224  0.61518773  1
  H  H144  1  0.69831626  0.58379754  1.00250520  1
  H  H145  1  0.54608117  0.57942173  -0.00178470  1
  H  H146  1  0.10142893  0.91635055  0.00453917  1
  H  H147  1  0.66356942  0.91501744  0.50441095  1
  H  H148  1  0.84673870  0.57869751  0.50775884  1
  H  H149  1  0.65650452  0.75215522  0.00162389  1
  H  H150  1  0.68612349  0.58436147  0.49472834  1
  H  H151  1  0.82845099  0.08395788  0.49351636  1
  H  H152  1  0.65123569  0.75188488  0.49465534  1
  H  H153  1  0.89655518  0.25669684  0.49279665  1
  H  H154  1  0.29023450  0.41958560  0.50492777  1
  H  H155  1  0.42680554  0.41025203  0.50502108  1
  H  H156  1  0.44707549  0.58542845  0.50453941  1
  H  H157  1  0.28770527  0.24462584  1.00698540  1
  H  H158  1  0.19970338  0.58237214  1.00269599  1
  H  H159  1  0.67626619  0.08206131  0.00137862  1
  H  H160  1  0.90627223  0.75723730  0.51991295  1
  H  H161  1  0.57891952  0.41230225  0.50077690  1
  H  H162  1  0.45210682  0.75089569  1.00372065  1
  H  H163  1  0.46531269  0.24740177  -0.00682204  1
  H  H164  1  0.34150388  0.41912514  0.00432872  1
  H  H165  1  0.69511683  0.41752648  0.50766771  1
  H  H166  1  0.17536057  0.07859838  0.00571123  1
  H  H167  1  0.08223514  0.08326690  0.50216202  1
  H  H168  1  0.18248192  0.76704943  0.49808294  1
  H  H169  1  0.04880174  0.73250317  0.49567582  1
  H  H170  1  0.54007991  0.24750550  0.50582035  1
  H  H171  1  0.29486344  0.75324192  -0.00927051  1
  H  H172  1  0.65440439  0.24864505  0.99398599  1
  H  H173  1  0.70662055  0.24982931  0.49524791  1
  H  H174  1  0.20017464  0.24791006  0.49232875  1
  H  H175  1  0.33544885  0.07980938  0.00345073  1
  H  H176  1  0.35199336  0.91663497  0.50853318  1
  H  H177  1  0.35666861  0.24462016  0.50988805  1
  H  H178  1  0.07367596  0.91943845  0.49808116  1
  H  H179  1  0.59497483  0.92018089  0.00601351  1
  H  H180  1  0.82812169  0.91564547  0.50180070  1
  H  H181  1  0.46562932  0.75441786  0.48886913  1
  H  H182  1  0.04671762  0.58071370  -0.00130227  1
  H  H183  1  0.07662917  0.41813775  0.49915360  1
  H  H184  1  0.32557685  0.74106672  0.48827173  1
  H  H185  1  0.13904841  0.25084359  0.98700407  1
  H  H186  1  0.09601922  0.75267781  0.99446249  1
  H  H187  1  0.30249125  0.58328346  0.49769828  1
  H  H188  1  0.44157988  0.07739651  0.49536574  1
  H  H189  1  0.93075431  0.08299023  0.99800263  1
  H  H190  1  0.05811097  0.25247012  0.50384001  1
  H  H191  1  0.29938757  0.08158103  0.50618361  1
  Pb  Pb192  1  0.25115261  0.04583426  0.75112608  1
  Pb  Pb193  1  0.25049083  0.37981762  0.74565552  1
  Pb  Pb194  1  0.25373730  0.71549068  0.74461738  1
  Pb  Pb195  1  0.75154171  0.04587736  0.75033443  1
  Pb  Pb196  1  0.75407281  0.38097932  0.75246961  1
  Pb  Pb197  1  0.75383649  0.71196195  0.75467710  1
  Pb  Pb198  1  0.24667897  0.28436185  0.24653212  1
  Pb  Pb199  1  0.24320837  0.61773562  0.25233293  1
  Pb  Pb200  1  0.24892724  0.95434243  0.25076031  1
  Pb  Pb201  1  0.74924662  0.28873954  0.25391692  1
  Pb  Pb202  1  0.74731861  0.61980278  0.24512857  1
  Pb  Pb203  1  0.74458061  0.95146897  0.25240044  1
  Pb  Pb204  1  0.00129561  0.21228385  0.74822221  1
  Pb  Pb205  1  0.00416299  0.54561892  0.75794313  1
  Pb  Pb206  1  0.00021855  0.87916293  0.74967200  1
  Pb  Pb207  1  0.50315366  0.21406941  0.75115301  1
  Pb  Pb208  1  0.50231817  0.54694684  0.74950608  1
  Pb  Pb209  1  0.50178526  0.87939838  0.75412696  1
  Pb  Pb210  1  -0.00668223  0.11866508  0.24576285  1
  Pb  Pb211  1  -0.00176922  0.45388997  0.24427574  1
  Pb  Pb212  1  -0.00312691  0.78705490  0.25906653  1
  Pb  Pb213  1  0.50058879  0.12059241  0.25345164  1
  Pb  Pb214  1  0.49692043  0.45192275  0.25890247  1
  Pb  Pb215  1  0.49365616  0.78494740  0.24399078  1
  C  C216  1  0.00301611  0.04640458  0.63466139  1
  C  C217  1  -0.00194346  0.38048981  0.63213918  1
  C  C218  1  0.00342859  0.71243477  0.63200459  1
  C  C219  1  0.50115943  0.04559918  0.63375056  1
  C  C220  1  0.50138574  0.37924177  0.63474661  1
  C  C221  1  0.50318243  0.71404219  0.63107524  1
  C  C222  1  0.00522569  0.28733557  0.13019365  1
  C  C223  1  -0.00365853  0.62088726  0.13261238  1
  C  C224  1  0.00024267  0.95280990  0.13039931  1
  C  C225  1  0.50583190  0.28761058  0.13012220  1
  C  C226  1  0.49635828  0.61945154  0.13222008  1
  C  C227  1  0.50192540  0.95378581  0.12927061  1
  C  C228  1  -0.00295211  0.04469698  0.86828845  1
  C  C229  1  -0.00235304  0.37970549  0.86898328  1
  C  C230  1  0.00361005  0.71334340  0.86752709  1
  C  C231  1  0.49979434  0.04558060  0.86805498  1
  C  C232  1  0.49907976  0.38063445  0.86802139  1
  C  C233  1  0.50120510  0.71283406  0.86828862  1
  C  C234  1  -0.00501709  0.28751580  0.36551443  1
  C  C235  1  -0.00055140  0.61861649  0.36940915  1
  C  C236  1  0.00024215  0.95364666  0.36447467  1
  C  C237  1  0.49557014  0.28576860  0.36907727  1
  C  C238  1  0.49803289  0.62018187  0.36451904  1
  C  C239  1  0.49791280  0.95321663  0.37009361  1
  C  C240  1  0.25561248  0.21382599  0.63263848  1
  C  C241  1  0.24983224  0.54714591  0.63196622  1
  C  C242  1  0.25232184  0.88054362  0.63052023  1
  C  C243  1  0.75353798  0.21212474  0.63155434  1
  C  C244  1  0.75081404  0.54667908  0.63123872  1
  C  C245  1  0.74975319  0.87930582  0.63461437  1
  C  C246  1  0.24908025  0.12010020  0.13262884  1
  C  C247  1  0.25033485  0.45269510  0.13233912  1
  C  C248  1  0.24627002  0.78869281  0.13254896  1
  C  C249  1  0.74928414  0.12087830  0.13386272  1
  C  C250  1  0.74979509  0.45274549  0.13101316  1
  C  C251  1  0.74901985  0.78733408  0.13061412  1
  C  C252  1  0.24513952  0.21357930  0.86986967  1
  C  C253  1  0.25436072  0.54573547  0.86800154  1
  C  C254  1  0.24924551  0.88046594  0.87076917  1
  C  C255  1  0.74531986  0.21392936  0.86925430  1
  C  C256  1  0.75389005  0.54477682  0.86877033  1
  C  C257  1  0.74702325  0.88015753  0.86970421  1
  C  C258  1  0.24976036  0.11977232  0.36539198  1
  C  C259  1  0.25294881  0.45479538  0.36680541  1
  C  C260  1  0.24978524  0.78727327  0.36742842  1
  C  C261  1  0.74773550  0.11927367  0.36795532  1
  C  C262  1  0.75112552  0.45299495  0.36723381  1
  C  C263  1  0.74611552  0.78633051  0.36907846  1
  C  C264  1  0.45609347  0.07120356  0.96050450  1
  C  C265  1  0.47473376  0.06948680  0.53804905  1
  C  C266  1  0.43338914  0.25903301  0.45542660  1
  C  C267  1  0.94512412  0.59192613  0.45775702  1
  C  C268  1  0.57236103  0.73720262  0.54686382  1
  C  C269  1  0.04005507  0.07266545  0.54143813  1
  C  C270  1  0.94243741  0.26506674  0.45686062  1
  C  C271  1  0.95523411  0.40661071  0.53914992  1
  C  C272  1  0.97160426  0.92544336  0.03499628  1
  C  C273  1  0.70136884  0.76132666  0.03810049  1
  C  C274  1  0.80813268  0.57328713  0.95811667  1
  C  C275  1  0.05818018  0.26340785  0.04099031  1
  C  C276  1  0.18404919  0.76622270  0.04535377  1
  C  C277  1  0.29669513  0.42782668  0.04142965  1
  C  C278  1  0.29318393  0.09164764  0.04103079  1
  C  C279  1  0.04986283  0.74131601  0.95765413  1
  C  C280  1  0.69373060  0.90655539  0.95839888  1
  C  C281  1  0.45138223  0.40903984  0.95791461  1
  C  C282  1  0.71489801  0.09297305  0.04077030  1
  C  C283  1  0.72127320  0.57336473  0.53566684  1
  C  C284  1  0.26863538  0.09335919  0.46334329  1
  C  C285  1  0.03521969  0.92827956  0.45812767  1
  C  C286  1  0.80788375  0.42966484  0.45652686  1
  C  C287  1  0.54248639  0.40590827  0.54200094  1
  C  C288  1  0.57058445  0.26137892  0.04481614  1
  C  C289  1  0.72706434  0.42781292  0.46494343  1
  C  C290  1  0.56022923  0.74128438  0.95560142  1
  C  C291  1  0.52025825  0.92660580  0.46604605  1
  C  C292  1  0.47743607  0.59492687  0.46084880  1
  C  C293  1  0.22457308  0.91119199  0.53475711  1
  C  C294  1  0.30931412  0.57404283  0.95719589  1
  C  C295  1  0.49284432  0.74154516  0.53274145  1
  C  C296  1  0.18790027  0.09662464  0.45288999  1
  C  C297  1  0.78276364  0.76096236  0.03582422  1
  C  C298  1  0.78823712  0.90528072  0.54018761  1
  C  C299  1  0.44029176  0.92911368  0.45831052  1
  C  C300  1  0.19040951  0.90348139  0.95868819  1
  C  C301  1  0.26420747  0.76339272  0.03398446  1
  C  C302  1  0.05282503  0.92670192  0.03965695  1
  C  C303  1  0.23087550  0.23843901  0.53580909  1
  C  C304  1  0.03686896  0.40722844  0.53756815  1
  C  C305  1  0.81279904  0.24207358  0.54514491  1
  C  C306  1  0.71406016  0.42237606  0.03911586  1
  C  C307  1  0.96637039  0.40939184  0.96206791  1
  C  C308  1  0.27022432  0.90581218  0.96697730  1
  C  C309  1  0.53797508  0.07261774  0.96142397  1
  C  C310  1  0.70606030  0.90495352  0.54144793  1
  C  C311  1  0.02420053  0.26305253  0.46214058  1
  N  N312  1  0.94656518  0.73146914  0.54385389  1
  N  N313  1  0.04419803  0.07124051  0.95984815  1
  N  N314  1  0.55000289  0.92871465  0.04030903  1
  N  N315  1  0.77642496  0.75910429  0.46444067  1
  N  N316  1  0.26664350  0.42543354  0.46107877  1
  N  N317  1  0.55364655  0.07023050  0.54265253  1
  N  N318  1  0.55624962  0.59570200  0.45359325  1
  N  N319  1  0.19569589  0.57221133  0.54241984  1
  N  N320  1  0.30303652  0.90795881  0.54180238  1
  N  N321  1  0.78945184  0.09493782  0.45852845  1
  N  N322  1  0.97090812  0.74175702  0.96297670  1
  N  N323  1  0.51160435  0.25741495  0.46463013  1
  N  N324  1  0.30971821  0.23693568  0.54388663  1
  N  N325  1  0.01843120  0.59315482  0.03892257  1
  N  N326  1  0.96585390  0.07256874  0.96040988  1
  N  N327  1  0.04366395  0.40933207  0.96068447  1
  N  N328  1  0.73467497  0.24289586  0.53720335  1
  N  N329  1  0.80074131  0.57158562  0.54137278  1
  N  N330  1  0.69834026  0.76185367  0.45884889  1
  N  N331  1  0.96049609  0.07329796  0.54092404  1
  N  N332  1  0.48165591  0.74296422  0.96276190  1
  N  N333  1  0.21752752  0.42624092  0.03631206  1
  N  N334  1  0.52869594  0.41000889  0.96406653  1
  N  N335  1  0.02556504  0.74382088  0.53821823  1
  N  N336  1  0.79135933  0.42339563  0.03792949  1
  N  N337  1  0.26370785  0.24764454  0.96272568  1
  N  N338  1  0.21301971  0.75625550  0.45838008  1
  N  N339  1  0.47208876  0.92806772  0.03356058  1
  N  N340  1  0.77602413  0.24191296  0.96421566  1
  N  N341  1  0.79426113  0.09316515  0.04108859  1
  N  N342  1  0.18646857  0.23519648  0.95640751  1
  N  N343  1  0.18952353  0.42943628  0.45242696  1
  N  N344  1  0.46289936  0.40856496  0.54337733  1
  N  N345  1  0.21339884  0.09265260  0.04003042  1
  N  N346  1  0.29224681  0.76821845  0.46020212  1
  N  N347  1  0.27348142  0.57379757  0.53835075  1
  N  N348  1  0.95579747  0.92723083  0.45766663  1
  N  N349  1  0.51794802  0.59188772  0.03847901  1
  N  N350  1  0.23069219  0.57431205  0.96248357  1
  N  N351  1  0.71149719  0.09397134  0.46273236  1
  N  N352  1  0.98130561  0.26012459  0.03254585  1
  N  N353  1  0.77074285  0.90806361  0.96710203  1
  N  N354  1  0.44031429  0.59445553  0.04329942  1
  N  N355  1  0.69828242  0.23986153  0.95835053  1
  N  N356  1  0.72953690  0.57467852  0.96265442  1
  N  N357  1  0.94085524  0.59507642  0.04368583  1
  N  N358  1  0.49270772  0.25728573  0.03492200  1
  N  N359  1  0.02201619  0.59080048  0.46723969  1
  N  N360  1  0.06720934  0.05646185  0.59864647  1
  N  N361  1  0.06239359  0.39058003  0.59664749  1
  N  N362  1  0.06033088  0.72030553  0.58979807  1
  N  N363  1  0.56834627  0.05517670  0.60219745  1
  N  N364  1  0.56675373  0.38954108  0.59910247  1
  N  N365  1  0.57775000  0.72076806  0.60676372  1
  N  N366  1  0.45204138  0.27559820  0.08704337  1
  N  N367  1  0.42737731  0.61111590  0.10210976  1
  N  N368  1  0.44265794  0.94317539  0.08907930  1
  N  N369  1  0.94837160  0.27562362  0.08933170  1
  N  N370  1  0.92757900  0.61208067  0.10236996  1
  N  N371  1  0.93972326  0.94107938  0.08965671  1
  N  N372  1  0.43377911  0.05482868  0.90314697  1
  N  N373  1  0.43084585  0.39153944  0.89966234  1
  N  N374  1  0.44426612  0.72344752  0.90948577  1
  N  N375  1  0.93568006  0.05614118  0.90524861  1
  N  N376  1  0.93510861  0.39156936  0.90698925  1
  N  N377  1  0.94376503  0.72444624  0.90636051  1
  N  N378  1  0.05568263  0.27703487  0.40499261  1
  N  N379  1  0.05609062  0.60783737  0.41079018  1
  N  N380  1  0.06379851  0.94380288  0.40117043  1
  N  N381  1  0.55066231  0.27573941  0.41177832  1
  N  N382  1  0.56698593  0.61141904  0.39368144  1
  N  N383  1  0.55564154  0.94139468  0.41218571  1
  N  N384  1  0.32461545  0.22133860  0.60338556  1
  N  N385  1  0.30841375  0.55827487  0.59225723  1
  N  N386  1  0.32037268  0.88920889  0.60057415  1
  N  N387  1  0.82494093  0.22402108  0.60383451  1
  N  N388  1  0.81823058  0.55450388  0.60007194  1
  N  N389  1  0.81394088  0.88933562  0.59843426  1
  N  N390  1  0.18632221  0.10921114  0.09686970  1
  N  N391  1  0.19034767  0.44169721  0.09353587  1
  N  N392  1  0.17363487  0.78121569  0.10504513  1
  N  N393  1  0.68589614  0.10941744  0.09736023  1
  N  N394  1  0.68553589  0.44015426  0.09505724  1
  N  N395  1  0.68169457  0.77759299  0.09869962  1
  N  N396  1  0.17465498  0.22326512  0.89645681  1
  N  N397  1  0.19571092  0.55540526  0.90805044  1
  N  N398  1  0.17778780  0.88796986  0.89922405  1
  N  N399  1  0.67829482  0.22217744  0.90100026  1
  N  N400  1  0.69487716  0.55554995  0.90819656  1
  N  N401  1  0.67700843  0.88998463  0.89890040  1
  N  N402  1  0.30617154  0.10794744  0.40753000  1
  N  N403  1  0.30690912  0.44379323  0.41025505  1
  N  N404  1  0.31478102  0.77566580  0.40064480  1
  N  N405  1  0.81319435  0.10982218  0.40119848  1
  N  N406  1  0.82162356  0.44451086  0.39740475  1
  N  N407  1  0.80533948  0.77405970  0.40855607  1
  N  N408  1  0.42318964  0.27595485  0.39593047  1
  N  N409  1  0.44014131  0.60954881  0.40646865  1
  N  N410  1  0.42716610  0.94512736  0.39892204  1
  N  N411  1  0.92591290  0.28006728  0.39649099  1
  N  N412  1  0.92908172  0.60856291  0.39820799  1
  N  N413  1  0.93578018  0.94311132  0.39896054  1
  N  N414  1  0.06270965  0.05432776  0.90219090  1
  N  N415  1  0.06340771  0.39059412  0.90148532  1
  N  N416  1  0.07126534  0.72407872  0.89928133  1
  N  N417  1  0.56364668  0.05716545  0.90458903  1
  N  N418  1  0.55856676  0.39198117  0.90666908  1
  N  N419  1  0.57238976  0.72359309  0.89681164  1
  N  N420  1  0.07569010  0.27918870  0.10074316  1
  N  N421  1  0.05411339  0.60920877  0.09229147  1
  N  N422  1  0.06912352  0.94385748  0.10026998  1
  N  N423  1  0.57901022  0.27909751  0.10414309  1
  N  N424  1  0.55388873  0.60723098  0.09190170  1
  N  N425  1  0.56923204  0.94455889  0.09822039  1
  N  N426  1  0.44069132  0.05524851  0.59380357  1
  N  N427  1  0.43760270  0.38899821  0.59974115  1
  N  N428  1  0.45027616  0.72646612  0.58649104  1
  N  N429  1  0.93936719  0.05690485  0.59963946  1
  N  N430  1  0.93230072  0.39073136  0.59629073  1
  N  N431  1  0.93388248  0.72416430  0.60502484  1
  N  N432  1  0.17742932  0.11233225  0.39355532  1
  N  N433  1  0.18178465  0.44553207  0.39314785  1
  N  N434  1  0.18677092  0.77953939  0.40410650  1
  N  N435  1  0.68596562  0.10901001  0.40594850  1
  N  N436  1  0.69228483  0.44245576  0.40808311  1
  N  N437  1  0.67922313  0.77829687  0.40098615  1
  N  N438  1  0.30077428  0.22436050  0.91249930  1
  N  N439  1  0.32416380  0.55693655  0.89866061  1
  N  N440  1  0.30653237  0.89188516  0.91340347  1
  N  N441  1  0.80510413  0.22612982  0.90845917  1
  N  N442  1  0.82349931  0.55534986  0.89997464  1
  N  N443  1  0.80405959  0.89089418  0.91070353  1
  N  N444  1  0.31541095  0.10931123  0.09838927  1
  N  N445  1  0.31816047  0.44338334  0.10029383  1
  N  N446  1  0.30223071  0.77767827  0.08984608  1
  N  N447  1  0.81392577  0.11070750  0.09960149  1
  N  N448  1  0.81393110  0.44254801  0.09645004  1
  N  N449  1  0.81147912  0.77665610  0.09132718  1
  N  N450  1  0.19669576  0.22442157  0.59090598  1
  N  N451  1  0.18147394  0.55610404  0.60114885  1
  N  N452  1  0.19273732  0.89397681  0.58977361  1
  N  N453  1  0.69700995  0.22182710  0.58977241  1
  N  N454  1  0.68988110  0.55822198  0.59158856  1
  N  N455  1  0.68378435  0.88889110  0.60044306  1
  Cl  Cl456  1  0.25454787  0.05184803  0.61705906  1
  Cl  Cl457  1  0.25524391  0.39132064  0.60584679  1
  Cl  Cl458  1  0.25035268  0.72969972  0.59918400  1
  Cl  Cl459  1  0.75473603  0.05728972  0.61671534  1
  Cl  Cl460  1  0.74725849  0.38334489  0.61702588  1
  Cl  Cl461  1  0.75666259  0.71538088  0.62207347  1
  Cl  Cl462  1  0.26654723  0.26983257  0.10478322  1
  Cl  Cl463  1  0.23717507  0.60873094  0.10922479  1
  Cl  Cl464  1  0.25895451  0.94833856  0.11934464  1
  Cl  Cl465  1  0.76149598  0.28125939  0.12239383  1
  Cl  Cl466  1  0.73711893  0.60860994  0.10642001  1
  Cl  Cl467  1  0.75157231  0.94606026  0.12102000  1
  Cl  Cl468  1  0.24658691  0.05559064  0.88742816  1
  Cl  Cl469  1  0.24904629  0.38472152  0.87685625  1
  Cl  Cl470  1  0.26044549  0.71949828  0.87994008  1
  Cl  Cl471  1  0.75138978  0.05385353  0.88356911  1
  Cl  Cl472  1  0.74606028  0.38800867  0.88391836  1
  Cl  Cl473  1  0.75707201  0.71617581  0.88721917  1
  Cl  Cl474  1  0.24007690  0.27818357  0.38199689  1
  Cl  Cl475  1  0.25404831  0.61111943  0.39266479  1
  Cl  Cl476  1  0.24495717  0.94338950  0.38573501  1
  Cl  Cl477  1  0.73386921  0.27312927  0.39502802  1
  Cl  Cl478  1  0.74908704  0.61201023  0.37916914  1
  Cl  Cl479  1  0.74666898  0.94475724  0.38783840  1
  Cl  Cl480  1  0.01223911  0.22241619  0.61367326  1
  Cl  Cl481  1  -0.00066001  0.55158483  0.62677987  1
  Cl  Cl482  1  0.00645796  0.88451350  0.61575448  1
  Cl  Cl483  1  0.51212783  0.22647691  0.60665456  1
  Cl  Cl484  1  0.49417608  0.55584905  0.61381055  1
  Cl  Cl485  1  0.50076513  0.88419547  0.62302059  1
  Cl  Cl486  1  -0.00024000  0.11114815  0.10991109  1
  Cl  Cl487  1  0.00273782  0.44748458  0.11325106  1
  Cl  Cl488  1  -0.00738417  0.78276354  0.12872854  1
  Cl  Cl489  1  0.49938219  0.11794523  0.12185430  1
  Cl  Cl490  1  0.50108160  0.44849767  0.12786771  1
  Cl  Cl491  1  0.48891913  0.77620972  0.10719544  1
  Cl  Cl492  1  -0.00843678  0.21734498  0.87968960  1
  Cl  Cl493  1  0.01213337  0.55711643  0.89511277  1
  Cl  Cl494  1  -0.00979034  0.88927914  0.88226529  1
  Cl  Cl495  1  0.48652733  0.22570795  0.89501741  1
  Cl  Cl496  1  0.51150671  0.55892759  0.89028416  1
  Cl  Cl497  1  0.49466496  0.88518276  0.88642871  1
  Cl  Cl498  1  -0.00476834  0.11279105  0.37775687  1
  Cl  Cl499  1  0.00214666  0.44924459  0.37693324  1
  Cl  Cl500  1  -0.00081364  0.76975853  0.39705946  1
  Cl  Cl501  1  0.49598386  0.11362066  0.38911917  1
  Cl  Cl502  1  0.49260513  0.43813293  0.39979905  1
  Cl  Cl503  1  0.49597976  0.78214877  0.37970124  1
  Cl  Cl504  1  0.36198863  0.14703332  0.74766596  1
  Cl  Cl505  1  0.36486658  0.47892781  0.75161583  1
  Cl  Cl506  1  0.36041285  0.81174960  0.74666456  1
  Cl  Cl507  1  0.86166705  0.14687227  0.74675668  1
  Cl  Cl508  1  0.85929332  0.47792679  0.74856264  1
  Cl  Cl509  1  0.86185310  0.81224220  0.74795553  1
  Cl  Cl510  1  0.13976218  0.19010443  0.25022542  1
  Cl  Cl511  1  0.14192844  0.52266105  0.25220998  1
  Cl  Cl512  1  0.13619721  0.85401516  0.25006081  1
  Cl  Cl513  1  0.63904495  0.18739659  0.24999290  1
  Cl  Cl514  1  0.63794875  0.52030263  0.25409426  1
  Cl  Cl515  1  0.64075597  0.85496572  0.24946617  1
  Cl  Cl516  1  0.14045065  0.14682025  0.75353396  1
  Cl  Cl517  1  0.14138554  0.48068932  0.74637516  1
  Cl  Cl518  1  0.13936811  0.81288851  0.75048990  1
  Cl  Cl519  1  0.63676900  0.14585575  0.75304147  1
  Cl  Cl520  1  0.63769762  0.47903532  0.74584761  1
  Cl  Cl521  1  0.63765995  0.81014325  0.75160451  1
  Cl  Cl522  1  0.36013798  0.18758828  0.25179285  1
  Cl  Cl523  1  0.36195233  0.52152951  0.24922397  1
  Cl  Cl524  1  0.35844476  0.85223860  0.25409059  1
  Cl  Cl525  1  0.86032364  0.18774371  0.25438476  1
  Cl  Cl526  1  0.86202908  0.52122560  0.24943532  1
  Cl  Cl527  1  0.86139260  0.85424159  0.25498586  1
  Cl  Cl528  1  0.11385520  0.31251072  0.75260388  1
  Cl  Cl529  1  0.11107818  0.64684046  0.74823696  1
  Cl  Cl530  1  0.11182110  0.97989297  0.75248655  1
  Cl  Cl531  1  0.60493070  0.31123578  0.75161500  1
  Cl  Cl532  1  0.61430099  0.64622997  0.74768527  1
  Cl  Cl533  1  0.61234062  0.97819179  0.74866622  1
  Cl  Cl534  1  0.38805582  0.02022980  0.25211202  1
  Cl  Cl535  1  0.38789085  0.35459963  0.25447337  1
  Cl  Cl536  1  0.39162531  0.68759483  0.24718430  1
  Cl  Cl537  1  0.89253240  0.02181779  0.24731177  1
  Cl  Cl538  1  0.88878314  0.35433920  0.25457111  1
  Cl  Cl539  1  0.88571763  0.68643407  0.25130573  1
  Cl  Cl540  1  0.38615115  0.31048574  0.74507506  1
  Cl  Cl541  1  0.39040927  0.64735923  0.74863951  1
  Cl  Cl542  1  0.38863871  0.97855741  0.75225298  1
  Cl  Cl543  1  0.88896291  0.31211791  0.74641727  1
  Cl  Cl544  1  0.88900834  0.64411817  0.74808546  1
  Cl  Cl545  1  0.88838825  0.97937081  0.74417885  1
  Cl  Cl546  1  0.11435258  0.02367542  0.24839436  1
  Cl  Cl547  1  0.11373895  0.35535334  0.24680873  1
  Cl  Cl548  1  0.11168092  0.68766138  0.25418378  1
  Cl  Cl549  1  0.61045163  0.02059171  0.24879587  1
  Cl  Cl550  1  0.61001555  0.35311658  0.25037861  1
  Cl  Cl551  1  0.61252179  0.68861626  0.25331374  1
