# generated using pymatgen
data_H8PbC4(N3Cl2)2
_symmetry_space_group_name_H-M   'P 1'
_cell_length_a   16.62723675
_cell_length_b   22.52195113
_cell_length_c   21.59839946
_cell_angle_alpha   90.00231169
_cell_angle_beta   89.97540653
_cell_angle_gamma   90.00017475
_symmetry_Int_Tables_number   1
_chemical_formula_structural   H8PbC4(N3Cl2)2
_chemical_formula_sum   'H192 Pb24 C96 N144 Cl96'
_cell_volume   8088.12065696
_cell_formula_units_Z   24
loop_
 _symmetry_equiv_pos_site_id
 _symmetry_equiv_pos_as_xyz
  1  'x, y, z'
loop_
 _atom_site_type_symbol
 _atom_site_label
 _atom_site_symmetry_multiplicity
 _atom_site_fract_x
 _atom_site_fract_y
 _atom_site_fract_z
 _atom_site_occupancy
  H  H0  1  0.01316840  0.02630843  0.67762923  1
  H  H1  1  -0.00515550  0.36381766  0.67838088  1
  H  H2  1  -0.01181340  0.69528802  0.67506561  1
  H  H3  1  0.50222340  0.02521518  0.68204552  1
  H  H4  1  0.49298743  0.36387323  0.67780477  1
  H  H5  1  0.50932844  0.69905554  0.68145106  1
  H  H6  1  0.00986495  0.30674703  0.18124922  1
  H  H7  1  0.00024643  0.63856621  0.18027003  1
  H  H8  1  -0.00572840  0.96779400  0.17837759  1
  H  H9  1  0.49338118  0.30211131  0.18052279  1
  H  H10  1  0.49736596  0.63729111  0.17614278  1
  H  H11  1  0.52109071  0.96893073  0.17278956  1
  H  H12  1  -0.01360041  0.02661178  0.82242283  1
  H  H13  1  -0.02143503  0.36327894  0.82528783  1
  H  H14  1  0.01205285  0.69632191  0.82797143  1
  H  H15  1  0.51458554  0.02743017  0.82876020  1
  H  H16  1  0.51596074  0.36349141  0.81827809  1
  H  H17  1  0.48834203  0.69648676  0.82384935  1
  H  H18  1  -0.01794202  0.30853000  0.32743342  1
  H  H19  1  0.00124558  0.63796152  0.32039193  1
  H  H20  1  -0.00376959  0.97560645  0.32584883  1
  H  H21  1  0.51724084  0.30021494  0.31947325  1
  H  H22  1  0.50959911  0.63798488  0.32397398  1
  H  H23  1  0.51461094  0.96564673  0.32100194  1
  H  H24  1  0.23676807  0.19845537  0.67443354  1
  H  H25  1  0.24666432  0.53028592  0.67888221  1
  H  H26  1  0.24131676  0.86284226  0.68098731  1
  H  H27  1  0.74998343  0.19207771  0.68157411  1
  H  H28  1  0.75535940  0.52737779  0.67956817  1
  H  H29  1  0.75631227  0.86368099  0.67701500  1
  H  H30  1  0.23871540  0.13569955  0.17282232  1
  H  H31  1  0.25830104  0.46983851  0.17439222  1
  H  H32  1  0.26916790  0.80510257  0.17551742  1
  H  H33  1  0.76374143  0.14202302  0.17482521  1
  H  H34  1  0.74569760  0.47630545  0.17581072  1
  H  H35  1  0.73915419  0.80371169  0.17631131  1
  H  H36  1  0.24760085  0.19264614  0.81814064  1
  H  H37  1  0.25294993  0.52465164  0.82600850  1
  H  H38  1  0.25044623  0.85942629  0.82477963  1
  H  H39  1  0.75989292  0.20010443  0.82144724  1
  H  H40  1  0.74622418  0.53196464  0.82687397  1
  H  H41  1  0.74268099  0.86084241  0.82453714  1
  H  H42  1  0.26400052  0.14449008  0.32494111  1
  H  H43  1  0.25457811  0.47192515  0.31645621  1
  H  H44  1  0.25274294  0.80817037  0.32456894  1
  H  H45  1  0.72923918  0.13323332  0.31779633  1
  H  H46  1  0.75870940  0.46941070  0.32535310  1
  H  H47  1  0.73889887  0.81279945  0.32511458  1
  H  H48  1  0.12493444  0.05840154  0.59731977  1
  H  H49  1  0.12268735  0.38266292  0.61231009  1
  H  H50  1  0.11595344  0.72114443  0.60824917  1
  H  H51  1  0.62764749  0.04951386  0.61422275  1
  H  H52  1  0.62855031  0.38599489  0.61890718  1
  H  H53  1  0.61627675  0.72483972  0.59886792  1
  H  H54  1  0.38034320  0.27788778  0.10169357  1
  H  H55  1  0.39145914  0.61109854  0.09318372  1
  H  H56  1  0.37787118  0.95329314  0.12770438  1
  H  H57  1  0.87735297  0.28298054  0.11901891  1
  H  H58  1  0.88420554  0.61104906  0.10475437  1
  H  H59  1  0.87980705  0.94101255  0.09969392  1
  H  H60  1  0.37977516  0.04548610  0.88925379  1
  H  H61  1  0.37360521  0.38254007  0.87018181  1
  H  H62  1  0.37609812  0.72339929  0.90084250  1
  H  H63  1  0.89006791  0.05904436  0.91204102  1
  H  H64  1  0.88267170  0.39536083  0.91508763  1
  H  H65  1  0.87232460  0.71283158  0.88301132  1
  H  H66  1  0.12290308  0.28171184  0.37563511  1
  H  H67  1  0.11484543  0.61112078  0.39824534  1
  H  H68  1  0.11769763  0.94512689  0.39583860  1
  H  H69  1  0.61627699  0.27641438  0.40735857  1
  H  H70  1  0.61171109  0.60723043  0.40966389  1
  H  H71  1  0.62202303  0.94030519  0.40333405  1
  H  H72  1  0.37172383  0.21784778  0.61884290  1
  H  H73  1  0.38233643  0.55286228  0.61890067  1
  H  H74  1  0.37548875  0.88546437  0.61800407  1
  H  H75  1  0.87492675  0.22190810  0.61493824  1
  H  H76  1  0.88628768  0.54985895  0.61609526  1
  H  H77  1  0.87694449  0.88995305  0.60194224  1
  H  H78  1  0.12596908  0.10753743  0.09401752  1
  H  H79  1  0.12552968  0.44763906  0.11373762  1
  H  H80  1  0.13222157  0.78068623  0.11933341  1
  H  H81  1  0.61987157  0.11546184  0.13151700  1
  H  H82  1  0.63621877  0.44422638  0.09419512  1
  H  H83  1  0.63130816  0.77896302  0.09473638  1
  H  H84  1  0.12270969  0.22134924  0.88782312  1
  H  H85  1  0.11515278  0.54623056  0.88195762  1
  H  H86  1  0.12508286  0.88758740  0.89250774  1
  H  H87  1  0.62253861  0.21568384  0.87925796  1
  H  H88  1  0.61135010  0.55360006  0.88236569  1
  H  H89  1  0.62313610  0.88694516  0.89840235  1
  H  H90  1  0.36482288  0.10976544  0.41141137  1
  H  H91  1  0.37568984  0.44397593  0.38795797  1
  H  H92  1  0.38146309  0.78067050  0.38811939  1
  H  H93  1  0.87088220  0.11850083  0.36712750  1
  H  H94  1  0.87016288  0.44254853  0.40625203  1
  H  H95  1  0.88086490  0.78755592  0.37284351  1
  H  H96  1  0.37275989  0.28570482  0.36715177  1
  H  H97  1  0.36843108  0.61614211  0.37572234  1
  H  H98  1  0.37669233  0.94888436  0.37387753  1
  H  H99  1  0.87890246  0.27605088  0.41139826  1
  H  H100  1  0.86709163  0.61528612  0.38216748  1
  H  H101  1  0.86868907  0.94583273  0.39067795  1
  H  H102  1  0.13033756  0.04801741  0.86859383  1
  H  H103  1  0.12311098  0.38267382  0.87271420  1
  H  H104  1  0.11712374  0.73097664  0.90962719  1
  H  H105  1  0.62537055  0.06083630  0.90656144  1
  H  H106  1  0.61780042  0.39204334  0.90472394  1
  H  H107  1  0.62257228  0.71529804  0.88065649  1
  H  H108  1  0.12564113  0.27996795  0.10392039  1
  H  H109  1  0.13244386  0.61454443  0.11676264  1
  H  H110  1  0.12741701  0.94770692  0.11728789  1
  H  H111  1  0.62795868  0.28253424  0.12289807  1
  H  H112  1  0.63766218  0.61950891  0.12399846  1
  H  H113  1  0.61895039  0.93912901  0.08648623  1
  H  H114  1  0.37846062  0.05536733  0.61184454  1
  H  H115  1  0.38123842  0.38939149  0.59779828  1
  H  H116  1  0.37062512  0.71648554  0.62837735  1
  H  H117  1  0.87856237  0.05031387  0.61694949  1
  H  H118  1  0.87398740  0.39004960  0.60727878  1
  H  H119  1  0.86772252  0.72295235  0.60082934  1
  H  H120  1  0.12188699  0.11939400  0.37314392  1
  H  H121  1  0.12669821  0.44623811  0.38477667  1
  H  H122  1  0.13253400  0.77997239  0.39765137  1
  H  H123  1  0.62678563  0.10629476  0.40295588  1
  H  H124  1  0.62330141  0.44798306  0.38584175  1
  H  H125  1  0.63912733  0.77656769  0.40988123  1
  H  H126  1  0.37123240  0.21917973  0.88987345  1
  H  H127  1  0.36062435  0.56019098  0.90511141  1
  H  H128  1  0.37464907  0.88260083  0.89479507  1
  H  H129  1  0.86986354  0.22493137  0.90093893  1
  H  H130  1  0.85786644  0.55746037  0.90568382  1
  H  H131  1  0.87211868  0.88405112  0.88667689  1
  H  H132  1  0.37246324  0.11281966  0.11444111  1
  H  H133  1  0.37386500  0.44386542  0.09943217  1
  H  H134  1  0.37907477  0.77499278  0.09577057  1
  H  H135  1  0.85928836  0.10640798  0.08607160  1
  H  H136  1  0.88213484  0.45071142  0.11948948  1
  H  H137  1  0.87810314  0.78630495  0.12150747  1
  H  H138  1  0.12554615  0.22519108  0.59491662  1
  H  H139  1  0.13436610  0.55556966  0.60022533  1
  H  H140  1  0.12782167  0.89050321  0.60036977  1
  H  H141  1  0.62526573  0.22035270  0.61211043  1
  H  H142  1  0.63738803  0.55271293  0.60657994  1
  H  H143  1  0.62832378  0.88874935  0.60846839  1
  H  H144  1  0.27987251  0.08456944  0.50761925  1
  H  H145  1  0.40732051  0.08161103  0.99339116  1
  H  H146  1  0.39444650  0.91784162  0.48883025  1
  H  H147  1  0.72153338  0.74917340  0.50617318  1
  H  H148  1  0.77181007  0.07900154  -0.00762416  1
  H  H149  1  0.14042475  0.58518107  0.98667232  1
  H  H150  1  0.83635728  0.91900264  0.99853108  1
  H  H151  1  0.89047180  0.75064388  0.99013878  1
  H  H152  1  0.19849402  0.58480776  0.49298356  1
  H  H153  1  0.38643331  0.74674022  0.51458361  1
  H  H154  1  0.67659497  0.24297690  0.50556490  1
  H  H155  1  0.28703355  0.57944938  1.00711855  1
  H  H156  1  0.58152719  0.07207253  0.50083986  1
  H  H157  1  0.69216374  0.58437788  0.49693597  1
  H  H158  1  0.69767825  0.74957185  -0.01030316  1
  H  H159  1  0.54774180  0.75572260  0.49495431  1
  H  H160  1  0.32249185  0.40907803  0.49413794  1
  H  H161  1  0.44073016  0.24935289  -0.00478929  1
  H  H162  1  0.65600999  0.42011855  0.49323022  1
  H  H163  1  0.35262864  0.57911810  0.51065757  1
  H  H164  1  0.71097198  0.41655683  -0.00545560  1
  H  H165  1  0.70182401  0.07799028  0.50633494  1
  H  H166  1  0.08458606  0.41484578  0.50078580  1
  H  H167  1  0.33380560  0.91663981  1.00289287  1
  H  H168  1  0.53981950  0.41991581  1.00528438  1
  H  H169  1  0.18733972  0.08219295  -0.00725354  1
  H  H170  1  0.80571932  0.25424444  1.00770150  1
  H  H171  1  0.53094750  0.58019744  0.50731760  1
  H  H172  1  0.11405699  0.41185378  0.98330063  1
  H  H173  1  0.95805419  0.24796691  0.50933002  1
  H  H174  1  0.35076278  0.25210613  0.50414746  1
  H  H175  1  0.92244698  0.75209896  0.49906562  1
  H  H176  1  0.31951103  0.41191495  0.99265450  1
  H  H177  1  0.46318490  0.58654928  -0.01271318  1
  H  H178  1  0.85957201  0.08544298  0.48082650  1
  H  H179  1  0.60592628  0.25241741  0.00931088  1
  H  H180  1  0.97626379  0.08420745  1.00656247  1
  H  H181  1  0.63119993  0.58758165  0.00040892  1
  H  H182  1  0.42898854  0.07215469  0.50449592  1
  H  H183  1  0.53669503  0.25288716  0.51115850  1
  H  H184  1  0.06454287  0.24967567  -0.00115520  1
  H  H185  1  0.04897902  0.57884208  0.50374066  1
  H  H186  1  0.18981487  0.75078127  0.50168867  1
  H  H187  1  0.16911350  0.91360951  0.99822517  1
  H  H188  1  0.82912682  0.25448916  0.50525434  1
  H  H189  1  0.04144840  0.74825907  1.01005143  1
  H  H190  1  0.56188474  0.07499720  1.00825665  1
  H  H191  1  0.94467023  0.58023449  -0.00193900  1
  Pb  Pb192  1  0.25195380  0.04657003  0.74283329  1
  Pb  Pb193  1  0.24971948  0.38124090  0.74051845  1
  Pb  Pb194  1  0.24194017  0.71706835  0.75367442  1
  Pb  Pb195  1  0.75371933  0.04954145  0.75862162  1
  Pb  Pb196  1  0.74572731  0.38461812  0.76093561  1
  Pb  Pb197  1  0.74965058  0.71341974  0.74025428  1
  Pb  Pb198  1  0.24809508  0.28650652  0.24087149  1
  Pb  Pb199  1  0.25288246  0.61705631  0.24539240  1
  Pb  Pb200  1  0.24407793  0.95153326  0.24942632  1
  Pb  Pb201  1  0.75276032  0.28181753  0.26422260  1
  Pb  Pb202  1  0.74954034  0.61965455  0.25724930  1
  Pb  Pb203  1  0.75141844  0.95205861  0.24374442  1
  Pb  Pb204  1  0.00321772  0.21711200  0.74808413  1
  Pb  Pb205  1  -0.00078226  0.54723812  0.75201556  1
  Pb  Pb206  1  -0.00180859  0.88136761  0.74611385  1
  Pb  Pb207  1  0.49889447  0.21455492  0.75032525  1
  Pb  Pb208  1  0.49395557  0.55160674  0.74620121  1
  Pb  Pb209  1  0.50099194  0.87940994  0.75112681  1
  Pb  Pb210  1  0.00016014  0.12031737  0.23470564  1
  Pb  Pb211  1  -0.00050107  0.45256112  0.25665221  1
  Pb  Pb212  1  0.00323722  0.78568296  0.24996806  1
  Pb  Pb213  1  0.49254420  0.11486258  0.26176302  1
  Pb  Pb214  1  0.50547247  0.44945324  0.24413671  1
  Pb  Pb215  1  0.50146952  0.78550370  0.24931100  1
  C  C216  1  0.00580484  0.04357034  0.63102489  1
  C  C217  1  -0.00218293  0.37908773  0.63090156  1
  C  C218  1  -0.00987553  0.71253474  0.62818191  1
  C  C219  1  0.50196414  0.04145876  0.63463503  1
  C  C220  1  0.50138488  0.37944213  0.63097410  1
  C  C221  1  0.49811844  0.71303902  0.63409012  1
  C  C222  1  0.00419158  0.29012392  0.13430293  1
  C  C223  1  0.00605151  0.62207247  0.13325387  1
  C  C224  1  0.00037202  0.95230303  0.13124993  1
  C  C225  1  0.50084078  0.28720579  0.13302378  1
  C  C226  1  0.50887226  0.62305065  0.12898028  1
  C  C227  1  0.50533514  0.95363403  0.12681606  1
  C  C228  1  0.00200237  0.04345033  0.86785604  1
  C  C229  1  -0.00487969  0.37933800  0.87094275  1
  C  C230  1  0.00046527  0.71262772  0.87462116  1
  C  C231  1  0.50669085  0.04339042  0.87594159  1
  C  C232  1  0.50205418  0.37875447  0.86475261  1
  C  C233  1  0.49602909  0.71185155  0.87091326  1
  C  C234  1  -0.00549721  0.29058954  0.37290499  1
  C  C235  1  -0.00601497  0.62182719  0.36737235  1
  C  C236  1  -0.00593955  0.95634695  0.37159107  1
  C  C237  1  0.50212272  0.28770771  0.36657025  1
  C  C238  1  0.49649628  0.62139968  0.37010148  1
  C  C239  1  0.50337928  0.95177179  0.36825286  1
  C  C240  1  0.24551697  0.21379436  0.62739698  1
  C  C241  1  0.25528111  0.54538649  0.63148104  1
  C  C242  1  0.24816667  0.87867503  0.63380464  1
  C  C243  1  0.74945030  0.21016532  0.63490798  1
  C  C244  1  0.75939480  0.54318217  0.63235817  1
  C  C245  1  0.75391137  0.87996232  0.62972791  1
  C  C246  1  0.24525415  0.12024142  0.12557502  1
  C  C247  1  0.25302789  0.45399627  0.12712924  1
  C  C248  1  0.25967839  0.78736375  0.12956236  1
  C  C249  1  0.74791924  0.12308686  0.13032537  1
  C  C250  1  0.75418973  0.45856550  0.12962435  1
  C  C251  1  0.74937686  0.78986355  0.12883290  1
  C  C252  1  0.24718786  0.21033157  0.86486248  1
  C  C253  1  0.24268778  0.54308350  0.87187601  1
  C  C254  1  0.24969429  0.87654029  0.87187269  1
  C  C255  1  0.75102324  0.21400160  0.86899094  1
  C  C256  1  0.73791877  0.54734136  0.87404251  1
  C  C257  1  0.74663172  0.87782121  0.87135699  1
  C  C258  1  0.25078435  0.12567549  0.37003753  1
  C  C259  1  0.25207655  0.45481002  0.36336354  1
  C  C260  1  0.25507564  0.79051045  0.37122747  1
  C  C261  1  0.74295011  0.11926088  0.36484901  1
  C  C262  1  0.75032735  0.45375897  0.37243888  1
  C  C263  1  0.75290985  0.79392123  0.36998132  1
  C  C264  1  0.49231800  0.59677809  0.03118336  1
  C  C265  1  0.27998952  0.75206317  0.03664039  1
  C  C266  1  0.02754532  0.91953390  0.46134860  1
  C  C267  1  0.28149091  0.42413831  0.03147496  1
  C  C268  1  0.03028624  0.26073779  0.04020698  1
  C  C269  1  0.55685851  0.26174753  0.04369862  1
  C  C270  1  0.71216923  0.90959870  0.96442366  1
  C  C271  1  0.44320455  0.92644985  0.45620960  1
  C  C272  1  0.51428453  0.92369998  0.03045765  1
  C  C273  1  0.79366110  0.90842335  0.96216356  1
  C  C274  1  0.28525015  0.42305499  0.45520241  1
  C  C275  1  0.47051634  0.74159867  0.96505710  1
  C  C276  1  0.22082564  0.24299428  0.53179892  1
  C  C277  1  0.47840337  0.40894654  0.53570077  1
  C  C278  1  0.05987872  0.25522595  0.45468123  1
  C  C279  1  0.30343993  0.75889928  0.46106212  1
  C  C280  1  0.97844172  0.59312813  0.03912454  1
  C  C281  1  0.69201401  0.23831898  0.95705853  1
  C  C282  1  0.80926765  0.09403629  0.44970872  1
  C  C283  1  0.20018643  0.42616382  0.03772452  1
  C  C284  1  0.57262541  0.59941394  0.04279359  1
  C  C285  1  0.29031900  0.90531030  0.96450222  1
  C  C286  1  0.54449005  0.06709781  0.54199002  1
  C  C287  1  0.79128500  0.24258144  0.54444456  1
  C  C288  1  0.55079807  0.73905301  0.95841206  1
  C  C289  1  0.96089805  0.40773266  0.53742813  1
  C  C290  1  0.77261793  0.24195641  0.96628736  1
  C  C291  1  0.47523681  0.26011388  0.03651463  1
  C  C292  1  0.51727431  0.74215334  0.53724853  1
  C  C293  1  0.43543769  0.92842411  0.04442648  1
  C  C294  1  0.22917220  0.57400704  0.53604364  1
  C  C295  1  0.43627647  0.73846207  0.54721876  1
  C  C296  1  0.51084157  0.26364640  0.46617623  1
  C  C297  1  0.80917296  0.57109896  0.54236463  1
  C  C298  1  0.72789379  0.57254313  0.53729929  1
  C  C299  1  0.01751005  0.59146228  0.46154780  1
  C  C300  1  0.04239833  0.40539760  0.53793410  1
  C  C301  1  0.51302571  0.40733174  0.96097079  1
  C  C302  1  0.30184669  0.24140168  0.53850709  1
  C  C303  1  0.73060067  0.76230638  0.03124756  1
  C  C304  1  0.52391611  0.92403649  0.46499888  1
  C  C305  1  0.68176716  0.57551287  0.96236186  1
  C  C306  1  0.43198947  0.26758397  0.45061338  1
  C  C307  1  0.81095884  0.76594163  0.04176168  1
  C  C308  1  0.76287145  0.57683731  0.96904931  1
  C  C309  1  0.30097422  0.09341926  0.03618223  1
  C  C310  1  0.72898611  0.09043146  0.46236385  1
  C  C311  1  0.05089101  0.92413829  0.04217054  1
  N  N312  1  0.20795241  0.24353597  0.95597186  1
  N  N313  1  0.21039660  0.90827903  0.96237448  1
  N  N314  1  0.74390093  0.75732507  0.46189741  1
  N  N315  1  0.45343733  0.06367377  0.96532747  1
  N  N316  1  0.94031739  0.73487841  0.96041854  1
  N  N317  1  0.69979786  0.42835341  0.46013476  1
  N  N318  1  0.22443990  0.75838266  0.46318401  1
  N  N319  1  0.05753191  0.59548856  0.04264954  1
  N  N320  1  0.28469137  0.24298889  0.95651731  1
  N  N321  1  0.01672027  0.75028628  0.96627228  1
  N  N322  1  0.55573365  0.40743865  0.54145126  1
  N  N323  1  0.43527829  0.40401050  0.94988720  1
  N  N324  1  0.29891478  0.90706859  0.54458369  1
  N  N325  1  0.53052801  0.07999550  0.96740848  1
  N  N326  1  0.26239298  0.58065091  0.96300203  1
  N  N327  1  0.02928224  0.07646228  0.53658876  1
  N  N328  1  0.95113092  0.26120165  0.04468893  1
  N  N329  1  0.71144969  0.91005175  0.53840294  1
  N  N330  1  0.95857811  0.74284845  0.53686381  1
  N  N331  1  0.77723953  0.42592713  0.46834736  1
  N  N332  1  0.99703848  0.07653209  0.96134942  1
  N  N333  1  0.20589522  0.42463379  0.45457057  1
  N  N334  1  0.82063636  0.76159895  0.45092433  1
  N  N335  1  0.07318891  0.07262451  0.94848018  1
  N  N336  1  0.78762419  0.91057641  0.53643198  1
  N  N337  1  0.81361068  0.42721097  0.04451722  1
  N  N338  1  0.18311395  0.09342420  0.45088775  1
  N  N339  1  0.46498032  0.07031217  0.54288970  1
  N  N340  1  0.22184612  0.09151578  0.03085918  1
  N  N341  1  0.71158780  0.24231448  0.54451346  1
  N  N342  1  0.98554546  0.40946740  0.96799139  1
  N  N343  1  0.95378049  0.07332948  0.54262665  1
  N  N344  1  0.94996089  0.91961307  0.46092506  1
  N  N345  1  0.20299701  0.75414326  0.04274740  1
  N  N346  1  0.97341480  0.92205090  0.03500433  1
  N  N347  1  0.67633812  0.08964594  0.05180908  1
  N  N348  1  0.30803787  0.57340897  0.54412385  1
  N  N349  1  0.03702795  0.74206697  0.53764145  1
  N  N350  1  0.18528717  0.56750674  0.95793450  1
  N  N351  1  0.22325218  0.90907655  0.53880802  1
  N  N352  1  0.73627800  0.42445479  0.03768297  1
  N  N353  1  0.06120347  0.40447829  0.95311036  1
  N  N354  1  0.43162316  0.59097842  0.45291570  1
  N  N355  1  0.50821841  0.58767798  0.46309384  1
  N  N356  1  0.98230679  0.25483231  0.46600750  1
  N  N357  1  0.25944735  0.09102552  0.46254281  1
  N  N358  1  0.75212634  0.08695103  0.03792879  1
  N  N359  1  0.93856079  0.59240532  0.45596963  1
  N  N360  1  0.06314624  0.05790020  0.59115337  1
  N  N361  1  0.06414027  0.38757210  0.59721957  1
  N  N362  1  0.05566142  0.72398079  0.59490031  1
  N  N363  1  0.56789974  0.05130785  0.59947122  1
  N  N364  1  0.56998011  0.38914911  0.60211730  1
  N  N365  1  0.55444596  0.72585592  0.59166315  1
  N  N366  1  0.44171142  0.27581299  0.09255618  1
  N  N367  1  0.45347989  0.61154964  0.08599870  1
  N  N368  1  0.43071360  0.94628311  0.10364709  1
  N  N369  1  0.93679425  0.27955989  0.10353323  1
  N  N370  1  0.94558907  0.60962729  0.09418182  1
  N  N371  1  0.94184465  0.93980136  0.09210922  1
  N  N372  1  0.43816228  0.05078422  0.90578939  1
  N  N373  1  0.43030220  0.38644349  0.88993917  1
  N  N374  1  0.43693250  0.72508600  0.91165195  1
  N  N375  1  0.95244575  0.05633754  0.91381641  1
  N  N376  1  0.94479201  0.39409889  0.91651813  1
  N  N377  1  0.92952900  0.72006462  0.90116190  1
  N  N378  1  0.06734296  0.27668727  0.39686965  1
  N  N379  1  0.05313794  0.60949829  0.40760286  1
  N  N380  1  0.05732514  0.94160523  0.40761242  1
  N  N381  1  0.55399700  0.27647366  0.41216771  1
  N  N382  1  0.54911301  0.60903581  0.41416131  1
  N  N383  1  0.56021322  0.93926001  0.41206682  1
  N  N384  1  0.31560411  0.22315794  0.59913516  1
  N  N385  1  0.32390869  0.55417220  0.60229794  1
  N  N386  1  0.31603108  0.88817874  0.60330395  1
  N  N387  1  0.81499463  0.22438036  0.60106070  1
  N  N388  1  0.82780840  0.55355569  0.59968186  1
  N  N389  1  0.81552376  0.89195179  0.59285663  1
  N  N390  1  0.18703138  0.10960279  0.08566934  1
  N  N391  1  0.18371913  0.44394540  0.09591706  1
  N  N392  1  0.19037673  0.77650455  0.10216625  1
  N  N393  1  0.67450629  0.11077380  0.10969471  1
  N  N394  1  0.69841210  0.44579588  0.08796019  1
  N  N395  1  0.69308702  0.77766543  0.08691761  1
  N  N396  1  0.18353764  0.22351647  0.89915107  1
  N  N397  1  0.17247397  0.55407080  0.89839500  1
  N  N398  1  0.18568417  0.88928763  0.90560734  1
  N  N399  1  0.67936343  0.22169963  0.89816025  1
  N  N400  1  0.66764963  0.55721546  0.90223422  1
  N  N401  1  0.68393753  0.89103709  0.90962832  1
  N  N402  1  0.30245208  0.11288185  0.41479188  1
  N  N403  1  0.31499621  0.44145543  0.39960776  1
  N  N404  1  0.32283046  0.77745887  0.40365811  1
  N  N405  1  0.81624648  0.11183548  0.38929203  1
  N  N406  1  0.80823089  0.44163863  0.41324308  1
  N  N407  1  0.82523722  0.78215449  0.39274592  1
  N  N408  1  0.42703895  0.28183841  0.39049347  1
  N  N409  1  0.42471824  0.61024754  0.39448014  1
  N  N410  1  0.43199644  0.94369429  0.39493433  1
  N  N411  1  0.94085998  0.27900023  0.41657673  1
  N  N412  1  0.92577915  0.61106420  0.39717973  1
  N  N413  1  0.92895436  0.94292349  0.40381160  1
  N  N414  1  0.07538874  0.05405584  0.88957058  1
  N  N415  1  0.06781454  0.38564663  0.89442849  1
  N  N416  1  0.05531773  0.72677969  0.91668410  1
  N  N417  1  0.56476267  0.05630634  0.91574595  1
  N  N418  1  0.55539807  0.39213894  0.90917391  1
  N  N419  1  0.56630433  0.72113772  0.90066192  1
  N  N420  1  0.06430987  0.27785366  0.09490273  1
  N  N421  1  0.07326014  0.61284466  0.10202604  1
  N  N422  1  0.06935141  0.94228028  0.10047629  1
  N  N423  1  0.57084445  0.27828428  0.10392623  1
  N  N424  1  0.58182850  0.61538763  0.10291118  1
  N  N425  1  0.55688956  0.93897637  0.08093204  1
  N  N426  1  0.43867289  0.05105404  0.59902179  1
  N  N427  1  0.44300855  0.39204955  0.58955088  1
  N  N428  1  0.42616118  0.72059193  0.60750051  1
  N  N429  1  0.93745633  0.05315193  0.60118327  1
  N  N430  1  0.93420612  0.39210073  0.59352213  1
  N  N431  1  0.92872266  0.72404895  0.59117653  1
  N  N432  1  0.17832026  0.11303121  0.39262237  1
  N  N433  1  0.18704026  0.44426998  0.39706653  1
  N  N434  1  0.19382696  0.77972331  0.40832735  1
  N  N435  1  0.68863775  0.10642307  0.40897278  1
  N  N436  1  0.68200670  0.44515523  0.40226937  1
  N  N437  1  0.70140354  0.77965566  0.41419517  1
  N  N438  1  0.31011577  0.22237503  0.90029462  1
  N  N439  1  0.29873555  0.55580738  0.91348250  1
  N  N440  1  0.31436694  0.88675192  0.90778971  1
  N  N441  1  0.80846012  0.22640160  0.91001368  1
  N  N442  1  0.79651362  0.55973251  0.91561509  1
  N  N443  1  0.81384375  0.88876052  0.90311885  1
  N  N444  1  0.31514889  0.11031056  0.09516931  1
  N  N445  1  0.31329143  0.44195776  0.08853921  1
  N  N446  1  0.31741312  0.77222970  0.08833478  1
  N  N447  1  0.79697376  0.10931816  0.08430109  1
  N  N448  1  0.82408014  0.44668448  0.10243938  1
  N  N449  1  0.82177460  0.78230972  0.10118863  1
  N  N450  1  0.18687980  0.22649217  0.58540892  1
  N  N451  1  0.19605101  0.55719930  0.59044960  1
  N  N452  1  0.19008119  0.89141354  0.59388686  1
  N  N453  1  0.68611202  0.21915168  0.59923537  1
  N  N454  1  0.69790010  0.55507381  0.59467628  1
  N  N455  1  0.68889657  0.89091676  0.59610337  1
  Cl  Cl456  1  0.25559011  0.06409007  0.60245519  1
  Cl  Cl457  1  0.25731438  0.38760897  0.60835663  1
  Cl  Cl458  1  0.23614850  0.72075974  0.61473187  1
  Cl  Cl459  1  0.75026429  0.05692694  0.62554406  1
  Cl  Cl460  1  0.75193890  0.38655813  0.62824845  1
  Cl  Cl461  1  0.74153732  0.72549359  0.60030430  1
  Cl  Cl462  1  0.25279287  0.27977732  0.11303120  1
  Cl  Cl463  1  0.26568215  0.60489062  0.10444727  1
  Cl  Cl464  1  0.24800389  0.95077447  0.11362145  1
  Cl  Cl465  1  0.75403887  0.28363988  0.13176249  1
  Cl  Cl466  1  0.76427341  0.61317730  0.12728364  1
  Cl  Cl467  1  0.75224660  0.94304734  0.10784576  1
  Cl  Cl468  1  0.25871622  0.05070229  0.87743391  1
  Cl  Cl469  1  0.24664337  0.39141331  0.87333205  1
  Cl  Cl470  1  0.24281748  0.72501949  0.88665768  1
  Cl  Cl471  1  0.76524909  0.06149810  0.90153678  1
  Cl  Cl472  1  0.74363602  0.39439029  0.90047638  1
  Cl  Cl473  1  0.75065844  0.71475199  0.87150239  1
  Cl  Cl474  1  0.24650142  0.27605757  0.37286189  1
  Cl  Cl475  1  0.23789379  0.61298723  0.38305056  1
  Cl  Cl476  1  0.24181533  0.94773906  0.37687615  1
  Cl  Cl477  1  0.74664088  0.27275586  0.40380388  1
  Cl  Cl478  1  0.73181887  0.61194564  0.39272724  1
  Cl  Cl479  1  0.74324945  0.94367581  0.37578924  1
  Cl  Cl480  1  -0.00174509  0.22779712  0.60857867  1
  Cl  Cl481  1  0.01395552  0.55518655  0.61705002  1
  Cl  Cl482  1  0.00391056  0.88872470  0.61176965  1
  Cl  Cl483  1  0.50454828  0.22041035  0.61640656  1
  Cl  Cl484  1  0.51111122  0.55796758  0.60362219  1
  Cl  Cl485  1  0.50375022  0.89017377  0.61785131  1
  Cl  Cl486  1  -0.01598757  0.10384783  0.09655213  1
  Cl  Cl487  1  0.00471007  0.44755523  0.12609582  1
  Cl  Cl488  1  0.00575019  0.77422876  0.11387108  1
  Cl  Cl489  1  0.49323413  0.10670087  0.12688233  1
  Cl  Cl490  1  0.51252805  0.44207860  0.10833396  1
  Cl  Cl491  1  0.50348629  0.77960962  0.11662576  1
  Cl  Cl492  1  -0.00166373  0.22079073  0.88221987  1
  Cl  Cl493  1  -0.01564811  0.55490577  0.88759565  1
  Cl  Cl494  1  0.00266622  0.88413609  0.87751646  1
  Cl  Cl495  1  0.49393841  0.21526430  0.88349971  1
  Cl  Cl496  1  0.47801888  0.56056941  0.87930839  1
  Cl  Cl497  1  0.49845334  0.88355489  0.88355343  1
  Cl  Cl498  1  -0.00101035  0.12502308  0.36382136  1
  Cl  Cl499  1  -0.00399429  0.44147908  0.39186747  1
  Cl  Cl500  1  0.01022276  0.78068558  0.38285092  1
  Cl  Cl501  1  0.49054405  0.10359788  0.40161099  1
  Cl  Cl502  1  0.50032927  0.44767496  0.37797220  1
  Cl  Cl503  1  0.51595483  0.77521258  0.38559835  1
  Cl  Cl504  1  0.36366083  0.14664788  0.73762137  1
  Cl  Cl505  1  0.36462053  0.47975549  0.74479414  1
  Cl  Cl506  1  0.36464414  0.81046339  0.74400004  1
  Cl  Cl507  1  0.85513549  0.14837185  0.75083229  1
  Cl  Cl508  1  0.86000271  0.48311335  0.75069528  1
  Cl  Cl509  1  0.85980816  0.81506097  0.74908879  1
  Cl  Cl510  1  0.14105762  0.18287794  0.24341804  1
  Cl  Cl511  1  0.13928752  0.51754426  0.24547600  1
  Cl  Cl512  1  0.14238805  0.85019596  0.24080351  1
  Cl  Cl513  1  0.63600582  0.18529648  0.24664454  1
  Cl  Cl514  1  0.64232895  0.51591907  0.25091765  1
  Cl  Cl515  1  0.64239934  0.84936987  0.24839917  1
  Cl  Cl516  1  0.14063896  0.14810793  0.74740175  1
  Cl  Cl517  1  0.14361873  0.48504619  0.75341817  1
  Cl  Cl518  1  0.14400904  0.81626570  0.75215043  1
  Cl  Cl519  1  0.63577384  0.14673847  0.76016907  1
  Cl  Cl520  1  0.64079522  0.48079717  0.75500823  1
  Cl  Cl521  1  0.64189377  0.81621124  0.74903164  1
  Cl  Cl522  1  0.36245554  0.18719909  0.24652326  1
  Cl  Cl523  1  0.35852477  0.52099583  0.24808893  1
  Cl  Cl524  1  0.36116293  0.85399117  0.25381519  1
  Cl  Cl525  1  0.85533575  0.18460691  0.25040646  1
  Cl  Cl526  1  0.86047884  0.51812700  0.25621481  1
  Cl  Cl527  1  0.86496506  0.85181408  0.24748378  1
  Cl  Cl528  1  0.11054550  0.31464066  0.75388957  1
  Cl  Cl529  1  0.10475479  0.65199854  0.75432164  1
  Cl  Cl530  1  0.11512908  0.97980454  0.75538009  1
  Cl  Cl531  1  0.61185265  0.31458900  0.74775180  1
  Cl  Cl532  1  0.60761239  0.65108529  0.75303363  1
  Cl  Cl533  1  0.60514890  0.98342329  0.75676533  1
  Cl  Cl534  1  0.38941120  0.01812861  0.24954889  1
  Cl  Cl535  1  0.38367165  0.35479139  0.25263566  1
  Cl  Cl536  1  0.38441099  0.68744249  0.26012448  1
  Cl  Cl537  1  0.88933557  0.01972252  0.25256478  1
  Cl  Cl538  1  0.88779936  0.35103791  0.25026701  1
  Cl  Cl539  1  0.88943462  0.68652666  0.26019179  1
  Cl  Cl540  1  0.38713181  0.31461758  0.75442442  1
  Cl  Cl541  1  0.38488558  0.64226856  0.73778194  1
  Cl  Cl542  1  0.38454779  0.97756904  0.75196263  1
  Cl  Cl543  1  0.89216106  0.31611072  0.74949806  1
  Cl  Cl544  1  0.88827040  0.64869008  0.74802740  1
  Cl  Cl545  1  0.89129874  0.98459954  0.74823344  1
  Cl  Cl546  1  0.10763755  0.01814705  0.24406549  1
  Cl  Cl547  1  0.10977581  0.35078341  0.25763698  1
  Cl  Cl548  1  0.11210225  0.68403858  0.24181209  1
  Cl  Cl549  1  0.61068299  0.01845649  0.24992997  1
  Cl  Cl550  1  0.60547841  0.35129897  0.24923197  1
  Cl  Cl551  1  0.60607039  0.68036304  0.24712134  1
