# generated using pymatgen
data_H8PbC4(N3Cl2)2
_symmetry_space_group_name_H-M   'P 1'
_cell_length_a   16.62589394
_cell_length_b   22.51900631
_cell_length_c   21.59537923
_cell_angle_alpha   90.00216552
_cell_angle_beta   89.98081462
_cell_angle_gamma   89.99129879
_symmetry_Int_Tables_number   1
_chemical_formula_structural   H8PbC4(N3Cl2)2
_chemical_formula_sum   'H192 Pb24 C96 N144 Cl96'
_cell_volume   8085.27943002
_cell_formula_units_Z   24
loop_
 _symmetry_equiv_pos_site_id
 _symmetry_equiv_pos_as_xyz
  1  'x, y, z'
loop_
 _atom_site_type_symbol
 _atom_site_label
 _atom_site_symmetry_multiplicity
 _atom_site_fract_x
 _atom_site_fract_y
 _atom_site_fract_z
 _atom_site_occupancy
  H  H0  1  0.01141712  0.02593883  0.68134900  1
  H  H1  1  -0.00436548  0.36407241  0.67474746  1
  H  H2  1  0.00947865  0.69152875  0.67996369  1
  H  H3  1  0.50395955  0.02635109  0.67481935  1
  H  H4  1  0.49297974  0.36474817  0.68103635  1
  H  H5  1  0.49025793  0.69423450  0.67243693  1
  H  H6  1  -0.00319687  0.30644771  0.18036857  1
  H  H7  1  -0.01155578  0.63994378  0.17475558  1
  H  H8  1  0.01043020  0.96923894  0.17842249  1
  H  H9  1  0.48926800  0.30549187  0.17549112  1
  H  H10  1  0.51239199  0.64049042  0.17563873  1
  H  H11  1  0.48795890  0.97152253  0.17777553  1
  H  H12  1  -0.01869246  0.02996075  0.81974678  1
  H  H13  1  -0.01097222  0.36368786  0.81691709  1
  H  H14  1  0.00225440  0.69870113  0.82017726  1
  H  H15  1  0.51829712  0.03059215  0.82463839  1
  H  H16  1  0.49370594  0.36423893  0.82291847  1
  H  H17  1  0.51054318  0.69315034  0.82344048  1
  H  H18  1  0.00263528  0.30360903  0.32026417  1
  H  H19  1  -0.01438729  0.63228164  0.32319486  1
  H  H20  1  0.00771937  0.97318924  0.32419181  1
  H  H21  1  0.50169680  0.30412896  0.31930570  1
  H  H22  1  0.49753790  0.63786132  0.31932488  1
  H  H23  1  0.49798114  0.97400568  0.31727254  1
  H  H24  1  0.24762463  0.19591895  0.68173974  1
  H  H25  1  0.25826818  0.52774106  0.68140062  1
  H  H26  1  0.24309657  0.86376945  0.67989286  1
  H  H27  1  0.74189711  0.19017394  0.67502713  1
  H  H28  1  0.74568640  0.52849735  0.68029793  1
  H  H29  1  0.76578102  0.86328422  0.67542884  1
  H  H30  1  0.24852916  0.13603081  0.17917801  1
  H  H31  1  0.25843083  0.46819617  0.17787329  1
  H  H32  1  0.25250845  0.80460635  0.17530838  1
  H  H33  1  0.75556234  0.14115835  0.18225630  1
  H  H34  1  0.75641139  0.47205154  0.17732214  1
  H  H35  1  0.73858708  0.80072125  0.17766968  1
  H  H36  1  0.25836486  0.19655536  0.82069718  1
  H  H37  1  0.25097967  0.52996806  0.82382710  1
  H  H38  1  0.25154409  0.86228858  0.81996151  1
  H  H39  1  0.74380099  0.19695221  0.82363724  1
  H  H40  1  0.74887049  0.52915565  0.82033408  1
  H  H41  1  0.75707241  0.86314895  0.82067980  1
  H  H42  1  0.25298907  0.13778223  0.31902221  1
  H  H43  1  0.25196214  0.47294647  0.32254536  1
  H  H44  1  0.23436799  0.80506478  0.32392902  1
  H  H45  1  0.73804200  0.13615238  0.32416412  1
  H  H46  1  0.74348720  0.47261840  0.31892213  1
  H  H47  1  0.75668406  0.80615598  0.32315670  1
  H  H48  1  0.12208079  0.05391432  0.60068913  1
  H  H49  1  0.12975184  0.38816236  0.61508509  1
  H  H50  1  0.11733444  0.72352758  0.59788544  1
  H  H51  1  0.61991394  0.05772389  0.60150164  1
  H  H52  1  0.62963508  0.38307963  0.62282762  1
  H  H53  1  0.62212600  0.72050046  0.61291412  1
  H  H54  1  0.38858547  0.27586120  0.08942045  1
  H  H55  1  0.37963685  0.61653707  0.11566670  1
  H  H56  1  0.38465648  0.93751848  0.09315783  1
  H  H57  1  0.88222296  0.27794446  0.10316476  1
  H  H58  1  0.88944676  0.60621783  0.08864646  1
  H  H59  1  0.88701069  0.94493070  0.10659150  1
  H  H60  1  0.37468338  0.05176961  0.87121494  1
  H  H61  1  0.37716003  0.39053372  0.89815025  1
  H  H62  1  0.37175959  0.71597800  0.88082554  1
  H  H63  1  0.87823072  0.05815429  0.90563981  1
  H  H64  1  0.88112455  0.38942006  0.90012479  1
  H  H65  1  0.86999345  0.72065072  0.88289143  1
  H  H66  1  0.11531912  0.27666530  0.39815214  1
  H  H67  1  0.12377865  0.61653183  0.37529985  1
  H  H68  1  0.12757903  0.94272779  0.39567836  1
  H  H69  1  0.61588806  0.27578875  0.39715280  1
  H  H70  1  0.63002390  0.61456960  0.38337175  1
  H  H71  1  0.62679130  0.94995091  0.38609840  1
  H  H72  1  0.38264105  0.21828595  0.62095136  1
  H  H73  1  0.37207952  0.55534464  0.60066949  1
  H  H74  1  0.36872351  0.88716995  0.61080605  1
  H  H75  1  0.88034700  0.21698298  0.62245577  1
  H  H76  1  0.87056705  0.55454442  0.61004485  1
  H  H77  1  0.86970112  0.89145046  0.59136896  1
  H  H78  1  0.12811008  0.11158997  0.10709834  1
  H  H79  1  0.12342899  0.44991291  0.12159618  1
  H  H80  1  0.12946950  0.77717231  0.10694438  1
  H  H81  1  0.62847142  0.11364085  0.11698845  1
  H  H82  1  0.61629993  0.45161517  0.12411634  1
  H  H83  1  0.62950685  0.77494536  0.09604998  1
  H  H84  1  0.11747763  0.21431884  0.87064674  1
  H  H85  1  0.11832142  0.55148083  0.88550846  1
  H  H86  1  0.11182839  0.88173744  0.87547651  1
  H  H87  1  0.61275565  0.22100148  0.88730853  1
  H  H88  1  0.61433866  0.55011949  0.88320010  1
  H  H89  1  0.62051610  0.88121663  0.87641242  1
  H  H90  1  0.38535478  0.11387307  0.38301603  1
  H  H91  1  0.36228019  0.44311286  0.40311865  1
  H  H92  1  0.37785535  0.78378834  0.37101137  1
  H  H93  1  0.87578756  0.11651355  0.37590244  1
  H  H94  1  0.86557267  0.44683081  0.39129541  1
  H  H95  1  0.87229055  0.77859272  0.40075002  1
  H  H96  1  0.36767081  0.28286962  0.38257601  1
  H  H97  1  0.38205555  0.60988257  0.39815287  1
  H  H98  1  0.37819976  0.94452033  0.39159984  1
  H  H99  1  0.86777488  0.27703801  0.37891706  1
  H  H100  1  0.87904439  0.60727966  0.40639719  1
  H  H101  1  0.87880068  0.94824426  0.39063560  1
  H  H102  1  0.12273915  0.05081249  0.87178777  1
  H  H103  1  0.12785084  0.38628632  0.87320187  1
  H  H104  1  0.11910507  0.72164308  0.89506621  1
  H  H105  1  0.61716505  0.06259160  0.91176465  1
  H  H106  1  0.62495362  0.38447585  0.88351737  1
  H  H107  1  0.61754055  0.72516393  0.90633220  1
  H  H108  1  0.13036949  0.28244759  0.11869182  1
  H  H109  1  0.13195246  0.62183897  0.12530731  1
  H  H110  1  0.13522700  0.94112759  0.10894287  1
  H  H111  1  0.63208319  0.28526153  0.12743202  1
  H  H112  1  0.62698663  0.60979566  0.09793043  1
  H  H113  1  0.62788343  0.95026686  0.12535464  1
  H  H114  1  0.37193878  0.05116122  0.61309253  1
  H  H115  1  0.38175257  0.38939442  0.60227251  1
  H  H116  1  0.37479777  0.72471816  0.59660349  1
  H  H117  1  0.87454007  0.04819604  0.62254889  1
  H  H118  1  0.88259490  0.39000144  0.59619244  1
  H  H119  1  0.87142808  0.71598345  0.62765071  1
  H  H120  1  0.13747080  0.10956636  0.39777332  1
  H  H121  1  0.11570481  0.45036885  0.37916330  1
  H  H122  1  0.13724915  0.77383982  0.41337456  1
  H  H123  1  0.63095486  0.10787225  0.40572232  1
  H  H124  1  0.61672912  0.44739180  0.38664244  1
  H  H125  1  0.62522747  0.78111076  0.38699972  1
  H  H126  1  0.36192122  0.22651808  0.90360090  1
  H  H127  1  0.36691007  0.55194142  0.89951188  1
  H  H128  1  0.35783875  0.89317273  0.90242687  1
  H  H129  1  0.86087898  0.22674281  0.89703592  1
  H  H130  1  0.86265362  0.55914361  0.89752367  1
  H  H131  1  0.86683069  0.88766973  0.90055531  1
  H  H132  1  0.37695170  0.11380886  0.11422028  1
  H  H133  1  0.36989064  0.44321931  0.09807420  1
  H  H134  1  0.37862531  0.77815057  0.10734267  1
  H  H135  1  0.87782898  0.11278352  0.11054739  1
  H  H136  1  0.86212207  0.43957113  0.09485109  1
  H  H137  1  0.87540285  0.78308988  0.12341540  1
  H  H138  1  0.13504727  0.22180243  0.60213906  1
  H  H139  1  0.12439725  0.55090051  0.61898347  1
  H  H140  1  0.11901336  0.88827193  0.60802847  1
  H  H141  1  0.63659833  0.22215705  0.59197588  1
  H  H142  1  0.62136748  0.55310568  0.61000632  1
  H  H143  1  0.62585812  0.88143804  0.62664107  1
  H  H144  1  0.55158058  0.24839840  0.50335226  1
  H  H145  1  0.89717157  0.25260243  0.48790495  1
  H  H146  1  0.13079307  0.24592064  -0.01581418  1
  H  H147  1  0.59502841  0.41820272  0.99692407  1
  H  H148  1  0.08710939  0.91508870  0.00404927  1
  H  H149  1  0.89202979  0.75077677  0.51605530  1
  H  H150  1  0.63900625  0.91537683  0.51201278  1
  H  H151  1  0.65772519  0.41685101  0.49616399  1
  H  H152  1  0.43387778  0.75300285  0.49512470  1
  H  H153  1  0.28537308  0.92047649  1.00534857  1
  H  H154  1  0.66192046  0.75391695  0.49324162  1
  H  H155  1  0.17682837  0.08389542  -0.00250418  1
  H  H156  1  0.34175684  0.08704904  0.00160839  1
  H  H157  1  0.10774570  0.58458944  0.48995552  1
  H  H158  1  0.64784943  0.25170822  0.99526434  1
  H  H159  1  0.95307000  0.41932509  1.00307780  1
  H  H160  1  0.64253376  0.90718828  -0.00835472  1
  H  H161  1  0.14692527  0.41902230  1.00674184  1
  H  H162  1  0.80276520  0.91345914  1.00796283  1
  H  H163  1  0.33274807  0.74775148  0.00282019  1
  H  H164  1  0.32038314  0.91912668  0.50182521  1
  H  H165  1  0.44508880  0.41912612  0.49494579  1
  H  H166  1  0.06510817  0.74988108  1.00425549  1
  H  H167  1  0.95660223  0.08429171  1.00759521  1
  H  H168  1  0.05388033  0.08277184  0.49652912  1
  H  H169  1  0.79824344  0.59055576  1.00240143  1
  H  H170  1  0.67003139  0.58379972  0.50210050  1
  H  H171  1  0.46447255  0.91439093  -0.00577475  1
  H  H172  1  0.82377096  0.09145035  0.00432741  1
  H  H173  1  0.12198279  0.58487269  0.01660640  1
  H  H174  1  0.85798909  0.08172462  0.49024389  1
  H  H175  1  0.20243330  0.25081882  0.49667546  1
  H  H176  1  0.46881637  0.25035950  -0.00923828  1
  H  H177  1  0.71414893  0.24787064  0.49254235  1
  H  H178  1  0.53326610  0.08517134  1.00969106  1
  H  H179  1  0.40808173  0.08408282  0.50733743  1
  H  H180  1  0.94601619  0.24671031  -0.00256941  1
  H  H181  1  0.97334595  0.58803739  -0.00966399  1
  H  H182  1  0.85837652  0.75252679  0.00861067  1
  H  H183  1  0.22330214  0.74978602  0.50879882  1
  H  H184  1  0.78628774  0.41360328  -0.00527275  1
  H  H185  1  0.94985552  0.43597417  0.50451014  1
  H  H186  1  0.10140761  0.41428875  0.50665719  1
  H  H187  1  0.67084819  0.08130978  0.00649223  1
  H  H188  1  0.04564431  0.74741569  0.49757610  1
  H  H189  1  0.31192252  0.58014750  1.00845255  1
  H  H190  1  0.28987802  0.25596869  1.00704854  1
  H  H191  1  0.05171106  0.24591686  0.50492081  1
  Pb  Pb192  1  0.24587133  0.04703240  0.74498428  1
  Pb  Pb193  1  0.24821625  0.38057350  0.75016821  1
  Pb  Pb194  1  0.24746701  0.71388891  0.74685776  1
  Pb  Pb195  1  0.74739292  0.04765314  0.76096408  1
  Pb  Pb196  1  0.75202954  0.37982936  0.75483316  1
  Pb  Pb197  1  0.73873788  0.71661711  0.75375328  1
  Pb  Pb198  1  0.25577929  0.28496295  0.24975830  1
  Pb  Pb199  1  0.25475398  0.61792843  0.25422298  1
  Pb  Pb200  1  0.25071098  0.94930942  0.24850550  1
  Pb  Pb201  1  0.75150360  0.28587513  0.25204444  1
  Pb  Pb202  1  0.75148488  0.61849114  0.24500685  1
  Pb  Pb203  1  0.75983171  0.95092633  0.25128801  1
  Pb  Pb204  1  -0.00273030  0.21242264  0.74920457  1
  Pb  Pb205  1  -0.00641444  0.54969769  0.75559752  1
  Pb  Pb206  1  -0.00643178  0.88053787  0.74777640  1
  Pb  Pb207  1  0.49864096  0.21450553  0.75155403  1
  Pb  Pb208  1  0.49499022  0.54584094  0.74684773  1
  Pb  Pb209  1  0.48949776  0.88351830  0.75654547  1
  Pb  Pb210  1  0.00519635  0.11974528  0.25090776  1
  Pb  Pb211  1  -0.00096212  0.45215316  0.24782241  1
  Pb  Pb212  1  0.00146114  0.78344875  0.26164875  1
  Pb  Pb213  1  0.50705563  0.11523384  0.25071969  1
  Pb  Pb214  1  0.49921726  0.45281696  0.25047122  1
  Pb  Pb215  1  0.50428746  0.78566640  0.24808261  1
  C  C216  1  0.00241614  0.04204974  0.63444179  1
  C  C217  1  0.00269763  0.38061510  0.62770777  1
  C  C218  1  -0.00045113  0.70843262  0.63340614  1
  C  C219  1  0.49820769  0.04404610  0.62841183  1
  C  C220  1  0.50117250  0.37893150  0.63353047  1
  C  C221  1  0.49531482  0.71181128  0.62587588  1
  C  C222  1  0.00340967  0.28944731  0.13361326  1
  C  C223  1  0.00360313  0.62314695  0.12886409  1
  C  C224  1  0.01134172  0.95238288  0.13141866  1
  C  C225  1  0.50326549  0.28950023  0.12931409  1
  C  C226  1  0.50667010  0.62255103  0.12944936  1
  C  C227  1  0.49986926  0.95459330  0.13182931  1
  C  C228  1  -0.00558736  0.04531976  0.86633446  1
  C  C229  1  -0.00018064  0.37947990  0.86374066  1
  C  C230  1  -0.00243186  0.71366089  0.86771874  1
  C  C231  1  0.50379212  0.04696098  0.87057885  1
  C  C232  1  0.49938360  0.37960675  0.87024215  1
  C  C233  1  0.49997751  0.71033668  0.86976879  1
  C  C234  1  -0.00579390  0.28746779  0.36732267  1
  C  C235  1  -0.00284322  0.61835593  0.37037157  1
  C  C236  1  0.00446828  0.95507319  0.37047142  1
  C  C237  1  0.49494783  0.28823110  0.36646472  1
  C  C238  1  0.50311549  0.62148145  0.36640797  1
  C  C239  1  0.50088339  0.95736569  0.36439619  1
  C  C240  1  0.25539941  0.21134843  0.63459217  1
  C  C241  1  0.25171497  0.54401778  0.63437122  1
  C  C242  1  0.24355975  0.88001664  0.63262204  1
  C  C243  1  0.75284000  0.20835284  0.62927452  1
  C  C244  1  0.74599058  0.54529741  0.63326344  1
  C  C245  1  0.75274024  0.87884326  0.62904516  1
  C  C246  1  0.25133657  0.12024010  0.13166252  1
  C  C247  1  0.24966767  0.45379042  0.13049536  1
  C  C248  1  0.25394629  0.78721531  0.12855970  1
  C  C249  1  0.75447052  0.12431730  0.13501991  1
  C  C250  1  0.74520673  0.45577458  0.13081713  1
  C  C251  1  0.74864362  0.78624383  0.13044475  1
  C  C252  1  0.24519776  0.21234423  0.86714038  1
  C  C253  1  0.24552604  0.54425387  0.87163512  1
  C  C254  1  0.24006275  0.87779690  0.86671395  1
  C  C255  1  0.73848595  0.21388307  0.87035911  1
  C  C256  1  0.74179226  0.54556618  0.86725090  1
  C  C257  1  0.74750505  0.87741242  0.86820086  1
  C  C258  1  0.25853367  0.12150263  0.36617861  1
  C  C259  1  0.24343252  0.45599801  0.36892964  1
  C  C260  1  0.24965623  0.78868439  0.36967951  1
  C  C261  1  0.74937221  0.12045637  0.37077668  1
  C  C262  1  0.74196456  0.45582824  0.36593676  1
  C  C263  1  0.75131937  0.78953685  0.37015110  1
  C  C264  1  0.46835725  0.40945634  0.96438226  1
  C  C265  1  0.19379278  0.42775103  0.04097273  1
  C  C266  1  0.43384935  0.07609413  0.95256554  1
  C  C267  1  0.54829910  0.74325391  0.53726341  1
  C  C268  1  0.54964654  0.40798439  0.96100835  1
  C  C269  1  0.47813298  0.40678491  0.53650667  1
  C  C270  1  0.76925835  0.90918573  0.53274307  1
  C  C271  1  0.27470534  0.42588884  0.03463387  1
  C  C272  1  0.27425082  0.56993434  0.96820324  1
  C  C273  1  0.18933660  0.42602784  0.45579417  1
  C  C274  1  0.26087469  0.24240596  0.96398457  1
  C  C275  1  0.19247674  0.56891904  0.96248465  1
  C  C276  1  0.21569952  0.09427772  0.03653210  1
  C  C277  1  0.57084841  0.26257085  0.04569034  1
  C  C278  1  0.28143341  0.90795855  0.54058534  1
  C  C279  1  0.98272438  0.07326125  0.96271391  1
  C  C280  1  0.02739654  0.74008114  0.96423944  1
  C  C281  1  0.05844038  0.59285537  0.45779926  1
  C  C282  1  0.77095166  0.24786364  0.96366205  1
  C  C283  1  0.45728909  0.58889955  0.04254644  1
  C  C284  1  0.03643829  0.91985426  0.46135740  1
  C  C285  1  0.97783097  0.58994478  0.46705534  1
  C  C286  1  0.98219579  0.40810317  0.95929884  1
  C  C287  1  0.70152620  0.42751806  0.45763268  1
  C  C288  1  0.68892982  0.90630632  0.54332142  1
  C  C289  1  0.52994878  0.07945823  0.53540830  1
  C  C290  1  0.29776785  0.09555456  0.03882240  1
  C  C291  1  0.72889790  0.08971221  0.46647765  1
  C  C292  1  0.94608204  0.73958641  0.95795913  1
  C  C293  1  0.23329890  0.23979904  0.53963592  1
  C  C294  1  0.71001478  0.09294724  0.04496826  1
  C  C295  1  0.80757960  0.76091212  0.04169370  1
  C  C296  1  0.18048578  0.23766832  0.95247078  1
  C  C297  1  0.02064761  0.25747020  0.46221188  1
  C  C298  1  0.72690614  0.75809735  0.03421722  1
  C  C299  1  0.21328790  0.75578791  0.03593555  1
  C  C300  1  0.93913478  0.73978619  0.54906395  1
  C  C301  1  0.02322849  0.07111963  0.53940690  1
  C  C302  1  0.68943513  0.89941423  0.95734898  1
  C  C303  1  0.68183236  0.42762492  0.04557672  1
  C  C304  1  0.25623074  0.90763438  0.96203445  1
  C  C305  1  0.80957256  0.09192393  0.45766660  1
  C  C306  1  0.76589431  0.57718819  0.96079088  1
  C  C307  1  0.51920273  0.25995113  0.46122949  1
  C  C308  1  0.97815418  0.25839761  0.03976967  1
  C  C309  1  0.77066188  0.90241045  0.96569903  1
  C  C310  1  0.55916634  0.40385381  0.54514915  1
  C  C311  1  0.70932185  0.57354024  0.54104343  1
  N  N312  1  0.20210396  0.90810574  0.53930843  1
  N  N313  1  0.94458448  0.06936987  0.54659310  1
  N  N314  1  0.95920927  0.92151236  0.46099457  1
  N  N315  1  0.56390262  0.92487836  0.04862853  1
  N  N316  1  0.69244410  0.24361355  0.95976010  1
  N  N317  1  0.99376300  0.58688899  0.03604045  1
  N  N318  1  0.78970480  0.09253895  0.04381990  1
  N  N319  1  0.97732976  0.40507944  0.53226774  1
  N  N320  1  0.73813530  0.24190437  0.53648972  1
  N  N321  1  0.46913143  0.74423576  0.53299772  1
  N  N322  1  0.26618688  0.42305549  0.46473939  1
  N  N323  1  0.24402966  0.75702735  0.46373481  1
  N  N324  1  0.05563315  0.41275790  0.54238493  1
  N  N325  1  0.47589338  0.59106230  0.46106124  1
  N  N326  1  0.20098873  0.57331752  0.54560600  1
  N  N327  1  0.32022932  0.76115188  0.45120944  1
  N  N328  1  0.53423126  0.58652030  0.03570348  1
  N  N329  1  0.78087320  0.42686957  0.45991538  1
  N  N330  1  0.49334619  0.25865503  0.03416507  1
  N  N331  1  0.68703264  0.57466093  0.95604624  1
  N  N332  1  0.27671503  0.57475982  0.53953605  1
  N  N333  1  0.23134787  0.09178089  0.46102657  1
  N  N334  1  0.97037870  0.92453972  0.03865781  1
  N  N335  1  0.55192038  0.59261077  0.45634669  1
  N  N336  1  0.30769446  0.09324430  0.45602869  1
  N  N337  1  0.94169479  0.25833296  0.45444584  1
  N  N338  1  0.44040287  0.26190380  0.45627211  1
  N  N339  1  0.78312492  0.76028148  0.46466194  1
  N  N340  1  0.51088363  0.07894337  0.96547862  1
  N  N341  1  0.04847500  0.92323842  0.04102770  1
  N  N342  1  0.75959252  0.42313135  0.03670691  1
  N  N343  1  0.07002133  0.60007872  0.04593174  1
  N  N344  1  0.51852981  0.74374065  0.96460586  1
  N  N345  1  0.29241753  0.75694576  0.03758172  1
  N  N346  1  0.17795503  0.90377452  0.95332958  1
  N  N347  1  0.81519685  0.23976270  0.54558754  1
  N  N348  1  0.48750941  0.92195082  0.03855503  1
  N  N349  1  0.46788421  0.92589207  0.45760262  1
  N  N350  1  0.31201217  0.23973077  0.54618086  1
  N  N351  1  0.45121102  0.07594734  0.54050431  1
  N  N352  1  0.70503348  0.76095227  0.45867159  1
  N  N353  1  0.78867769  0.57494648  0.54059561  1
  N  N354  1  0.06060772  0.07173112  0.95135898  1
  N  N355  1  0.06048874  0.40746781  0.95014220  1
  N  N356  1  0.44297778  0.74010805  0.95647346  1
  N  N357  1  0.01789101  0.74218649  0.54001031  1
  N  N358  1  0.05684331  0.25894490  0.04542034  1
  N  N359  1  0.54404454  0.92786759  0.45552417  1
  N  N360  1  0.06011187  0.05497941  0.59312177  1
  N  N361  1  0.07123974  0.38922127  0.59792851  1
  N  N362  1  0.05516918  0.71976301  0.59109981  1
  N  N363  1  0.55931000  0.05984592  0.58980986  1
  N  N364  1  0.57240763  0.38732037  0.60400930  1
  N  N365  1  0.56424789  0.72419820  0.59505608  1
  N  N366  1  0.45109467  0.27772125  0.08505308  1
  N  N367  1  0.43766540  0.61030140  0.09931059  1
  N  N368  1  0.44669465  0.94196709  0.08804196  1
  N  N369  1  0.94383841  0.27667577  0.09380873  1
  N  N370  1  0.95202700  0.61056211  0.08383787  1
  N  N371  1  0.94793569  0.94163989  0.09555022  1
  N  N372  1  0.42931913  0.05800247  0.89330457  1
  N  N373  1  0.43816687  0.39230128  0.90988286  1
  N  N374  1  0.43016940  0.71919784  0.89762631  1
  N  N375  1  0.94052053  0.05719469  0.91096232  1
  N  N376  1  0.94354922  0.39133859  0.90649779  1
  N  N377  1  0.92852554  0.72391369  0.89949563  1
  N  N378  1  0.05360324  0.27482283  0.40795585  1
  N  N379  1  0.06880741  0.61048850  0.39656565  1
  N  N380  1  0.06718104  0.93998961  0.40700175  1
  N  N381  1  0.55434101  0.27571232  0.40635023  1
  N  N382  1  0.57028108  0.61146610  0.39771711  1
  N  N383  1  0.56608269  0.94746453  0.39806301  1
  N  N384  1  0.32404904  0.22193059  0.60529151  1
  N  N385  1  0.30983130  0.55632944  0.59431638  1
  N  N386  1  0.30851979  0.89098757  0.59759780  1
  N  N387  1  0.82369369  0.22105671  0.60408221  1
  N  N388  1  0.80977655  0.55728823  0.59851589  1
  N  N389  1  0.80771670  0.89276596  0.58429350  1
  N  N390  1  0.18829358  0.10946743  0.09457823  1
  N  N391  1  0.17952201  0.44519814  0.10190347  1
  N  N392  1  0.18924719  0.77428044  0.09239179  1
  N  N393  1  0.68794277  0.11117749  0.10199335  1
  N  N394  1  0.67252918  0.44637074  0.10435145  1
  N  N395  1  0.69121573  0.77329202  0.08752926  1
  N  N396  1  0.17220355  0.21931876  0.89246315  1
  N  N397  1  0.17601619  0.55356037  0.90323744  1
  N  N398  1  0.16952052  0.88511281  0.89373784  1
  N  N399  1  0.67179705  0.22203316  0.90236337  1
  N  N400  1  0.67379755  0.55503358  0.89781477  1
  N  N401  1  0.67641332  0.88426103  0.89665616  1
  N  N402  1  0.32581577  0.11149540  0.39727438  1
  N  N403  1  0.29999238  0.44262915  0.40944757  1
  N  N404  1  0.32279993  0.77865684  0.39193887  1
  N  N405  1  0.82080170  0.11110313  0.39712566  1
  N  N406  1  0.80431521  0.44473595  0.40219975  1
  N  N407  1  0.81119970  0.77709814  0.40896929  1
  N  N408  1  0.42693080  0.27930441  0.39729153  1
  N  N409  1  0.44409737  0.60877830  0.40551682  1
  N  N410  1  0.43966555  0.94403758  0.40122424  1
  N  N411  1  0.92554156  0.27920829  0.39677182  1
  N  N412  1  0.94077470  0.60555261  0.41453111  1
  N  N413  1  0.93898359  0.94381538  0.40309282  1
  N  N414  1  0.06592537  0.05451345  0.89136252  1
  N  N415  1  0.06986258  0.38952362  0.89073815  1
  N  N416  1  0.05838104  0.72372052  0.90643575  1
  N  N417  1  0.55521727  0.05787975  0.91583949  1
  N  N418  1  0.56763246  0.38919030  0.90107424  1
  N  N419  1  0.55520261  0.72550313  0.91118483  1
  N  N420  1  0.07136214  0.27852834  0.10379966  1
  N  N421  1  0.07624108  0.61346488  0.10589862  1
  N  N422  1  0.07502150  0.94131734  0.09657778  1
  N  N423  1  0.57736569  0.27994881  0.10540795  1
  N  N424  1  0.56543511  0.60819753  0.09099888  1
  N  N425  1  0.57148952  0.94444122  0.10672010  1
  N  N426  1  0.43096441  0.05347367  0.59758840  1
  N  N427  1  0.44313585  0.39080610  0.59277183  1
  N  N428  1  0.43587938  0.72309537  0.58725286  1
  N  N429  1  0.93309585  0.05114648  0.60589095  1
  N  N430  1  0.94421069  0.39477569  0.58889392  1
  N  N431  1  0.92772596  0.72026104  0.60741784  1
  N  N432  1  0.19966283  0.10927187  0.40550847  1
  N  N433  1  0.17290942  0.44529462  0.39718219  1
  N  N434  1  0.19965718  0.77635293  0.41552014  1
  N  N435  1  0.69272580  0.10691952  0.41418527  1
  N  N436  1  0.67645835  0.44453315  0.40007323  1
  N  N437  1  0.68481888  0.77982648  0.40191008  1
  N  N438  1  0.29983837  0.22648109  0.91033662  1
  N  N439  1  0.30585052  0.55450408  0.91060154  1
  N  N440  1  0.29555600  0.89179463  0.90933149  1
  N  N441  1  0.79985451  0.22915262  0.90857392  1
  N  N442  1  0.80112120  0.55934645  0.90680500  1
  N  N443  1  0.80525977  0.88880348  0.90979947  1
  N  N444  1  0.31820179  0.11137866  0.09843452  1
  N  N445  1  0.30829637  0.44163389  0.08839904  1
  N  N446  1  0.31825024  0.77660222  0.09448480  1
  N  N447  1  0.81693184  0.11533284  0.09826854  1
  N  N448  1  0.79982887  0.44285464  0.08850727  1
  N  N449  1  0.81956255  0.77838395  0.10295725  1
  N  N450  1  0.19685023  0.22277043  0.59354425  1
  N  N451  1  0.18379086  0.55485946  0.60440154  1
  N  N452  1  0.18022467  0.89099244  0.59708509  1
  N  N453  1  0.69888638  0.22002332  0.58600029  1
  N  N454  1  0.68164306  0.55590340  0.59761939  1
  N  N455  1  0.68025600  0.88756792  0.60441855  1
  Cl  Cl456  1  0.24671567  0.05447385  0.61414060  1
  Cl  Cl457  1  0.25266291  0.38801482  0.61930664  1
  Cl  Cl458  1  0.24130493  0.73069547  0.60300127  1
  Cl  Cl459  1  0.74288221  0.05524474  0.62944271  1
  Cl  Cl460  1  0.75863287  0.38402449  0.62264543  1
  Cl  Cl461  1  0.74420604  0.72398753  0.62072793  1
  Cl  Cl462  1  0.26650080  0.27883268  0.11481407  1
  Cl  Cl463  1  0.25603922  0.62067991  0.11913838  1
  Cl  Cl464  1  0.26312207  0.93478524  0.11034104  1
  Cl  Cl465  1  0.76056897  0.27793509  0.11915035  1
  Cl  Cl466  1  0.76737832  0.60674899  0.10850884  1
  Cl  Cl467  1  0.76324900  0.94889724  0.11676414  1
  Cl  Cl468  1  0.25010303  0.05267702  0.87682481  1
  Cl  Cl469  1  0.25537167  0.38965852  0.88202685  1
  Cl  Cl470  1  0.24682759  0.72159318  0.87996945  1
  Cl  Cl471  1  0.75004444  0.06534711  0.90269673  1
  Cl  Cl472  1  0.76083993  0.38892028  0.89683069  1
  Cl  Cl473  1  0.74182753  0.72395351  0.88778614  1
  Cl  Cl474  1  0.23745187  0.27865993  0.38455121  1
  Cl  Cl475  1  0.25901088  0.61345752  0.38178451  1
  Cl  Cl476  1  0.25455709  0.94293478  0.38153586  1
  Cl  Cl477  1  0.73802179  0.26955413  0.39494291  1
  Cl  Cl478  1  0.75453861  0.61324815  0.37886353  1
  Cl  Cl479  1  0.75141617  0.94744046  0.38410802  1
  Cl  Cl480  1  0.01111495  0.22396992  0.61251165  1
  Cl  Cl481  1  -0.00300421  0.54957595  0.62313885  1
  Cl  Cl482  1  -0.00598757  0.88619244  0.61506559  1
  Cl  Cl483  1  0.51769980  0.22107570  0.61654205  1
  Cl  Cl484  1  0.49523405  0.55485652  0.61476439  1
  Cl  Cl485  1  0.49147909  0.88175141  0.62781378  1
  Cl  Cl486  1  -0.00062774  0.10930356  0.11501469  1
  Cl  Cl487  1  -0.01673659  0.44194091  0.11275345  1
  Cl  Cl488  1  0.00796173  0.77866199  0.12907438  1
  Cl  Cl489  1  0.50567195  0.10881768  0.10777954  1
  Cl  Cl490  1  0.49087331  0.44360404  0.11745501  1
  Cl  Cl491  1  0.50295412  0.78008920  0.11709513  1
  Cl  Cl492  1  -0.01882039  0.22211459  0.88260194  1
  Cl  Cl493  1  -0.01411385  0.56422358  0.89555226  1
  Cl  Cl494  1  -0.01304574  0.88701848  0.88082549  1
  Cl  Cl495  1  0.48427493  0.22644418  0.89608821  1
  Cl  Cl496  1  0.48952278  0.54903600  0.87819366  1
  Cl  Cl497  1  0.47992882  0.89897542  0.89859333  1
  Cl  Cl498  1  0.01646946  0.11029367  0.38545997  1
  Cl  Cl499  1  -0.01011612  0.44584792  0.38625771  1
  Cl  Cl500  1  0.01130917  0.77198900  0.40213003  1
  Cl  Cl501  1  0.50932918  0.10870955  0.38506393  1
  Cl  Cl502  1  0.48837439  0.44359720  0.38463890  1
  Cl  Cl503  1  0.50573504  0.77624023  0.38453312  1
  Cl  Cl504  1  0.35856089  0.14889030  0.74704193  1
  Cl  Cl505  1  0.35299807  0.48437796  0.75098099  1
  Cl  Cl506  1  0.35355032  0.81745483  0.75245238  1
  Cl  Cl507  1  0.85368855  0.15128617  0.74649797  1
  Cl  Cl508  1  0.85751452  0.48318282  0.75283144  1
  Cl  Cl509  1  0.85408579  0.81572475  0.75173844  1
  Cl  Cl510  1  0.14132121  0.18578152  0.24163652  1
  Cl  Cl511  1  0.13392397  0.52208493  0.24229325  1
  Cl  Cl512  1  0.14877963  0.85317010  0.24612218  1
  Cl  Cl513  1  0.64333179  0.18468979  0.24778227  1
  Cl  Cl514  1  0.64014834  0.52013669  0.24519518  1
  Cl  Cl515  1  0.64085261  0.85457674  0.24778547  1
  Cl  Cl516  1  0.13483597  0.14588442  0.75846307  1
  Cl  Cl517  1  0.12811390  0.47628559  0.75835949  1
  Cl  Cl518  1  0.13183224  0.81252790  0.75067685  1
  Cl  Cl519  1  0.63329055  0.14710283  0.76136849  1
  Cl  Cl520  1  0.63911489  0.47962687  0.75222982  1
  Cl  Cl521  1  0.63500681  0.81429603  0.75027825  1
  Cl  Cl522  1  0.36087649  0.18549992  0.25267802  1
  Cl  Cl523  1  0.35577766  0.51247016  0.24901629  1
  Cl  Cl524  1  0.36679498  0.85146901  0.25652323  1
  Cl  Cl525  1  0.86596681  0.18735072  0.26373610  1
  Cl  Cl526  1  0.85919912  0.51555624  0.25193472  1
  Cl  Cl527  1  0.86230059  0.84744287  0.25052415  1
  Cl  Cl528  1  0.11352677  0.31050085  0.75480329  1
  Cl  Cl529  1  0.11199351  0.64515458  0.75031105  1
  Cl  Cl530  1  0.11043752  0.97833361  0.75642994  1
  Cl  Cl531  1  0.61353843  0.31316598  0.75827638  1
  Cl  Cl532  1  0.60628186  0.64696317  0.74593227  1
  Cl  Cl533  1  0.61022246  0.97897204  0.75508623  1
  Cl  Cl534  1  0.39673657  0.02033312  0.24404782  1
  Cl  Cl535  1  0.39512561  0.34798939  0.25303994  1
  Cl  Cl536  1  0.39249132  0.68473336  0.24877088  1
  Cl  Cl537  1  0.89398262  0.01859143  0.24940103  1
  Cl  Cl538  1  0.88693070  0.35191704  0.25765975  1
  Cl  Cl539  1  0.90089774  0.68498572  0.25237297  1
  Cl  Cl540  1  0.39145085  0.31746444  0.74973413  1
  Cl  Cl541  1  0.38784950  0.65059719  0.74760271  1
  Cl  Cl542  1  0.38993736  0.98524707  0.75198600  1
  Cl  Cl543  1  0.89350778  0.31735918  0.74247187  1
  Cl  Cl544  1  0.88892917  0.65025794  0.74915491  1
  Cl  Cl545  1  0.88768003  0.98503915  0.74550686  1
  Cl  Cl546  1  0.11413900  0.01723728  0.24706113  1
  Cl  Cl547  1  0.10569042  0.35073655  0.24604236  1
  Cl  Cl548  1  0.11996967  0.68612172  0.25449662  1
  Cl  Cl549  1  0.61584331  0.02264134  0.23887965  1
  Cl  Cl550  1  0.61582223  0.35399657  0.24217384  1
  Cl  Cl551  1  0.61549791  0.68484890  0.24884408  1
