# generated using pymatgen
data_H8PbC4(N3Cl2)2
_symmetry_space_group_name_H-M   'P 1'
_cell_length_a   16.63053151
_cell_length_b   22.52279635
_cell_length_c   21.59502719
_cell_angle_alpha   89.99816474
_cell_angle_beta   90.02510305
_cell_angle_gamma   90.00909337
_symmetry_Int_Tables_number   1
_chemical_formula_structural   H8PbC4(N3Cl2)2
_chemical_formula_sum   'H192 Pb24 C96 N144 Cl96'
_cell_volume   8088.76367800
_cell_formula_units_Z   24
loop_
 _symmetry_equiv_pos_site_id
 _symmetry_equiv_pos_as_xyz
  1  'x, y, z'
loop_
 _atom_site_type_symbol
 _atom_site_label
 _atom_site_symmetry_multiplicity
 _atom_site_fract_x
 _atom_site_fract_y
 _atom_site_fract_z
 _atom_site_occupancy
  H  H0  1  0.01772423  0.03510173  0.65382211  1
  H  H1  1  0.01601934  0.36274712  0.67829094  1
  H  H2  1  0.00522984  0.69271489  0.67315383  1
  H  H3  1  0.51803666  0.03152936  0.68057777  1
  H  H4  1  0.49061570  0.36109551  0.67515456  1
  H  H5  1  0.50943812  0.69606205  0.67957201  1
  H  H6  1  -0.02078508  0.30188799  0.17465957  1
  H  H7  1  -0.01155711  0.64200669  0.17394531  1
  H  H8  1  -0.00067212  0.97148143  0.17947774  1
  H  H9  1  0.51164032  0.30483773  0.17635172  1
  H  H10  1  0.51298577  0.64380349  0.17632989  1
  H  H11  1  0.50633249  0.97109786  0.18106392  1
  H  H12  1  0.00017280  0.02986943  0.82108660  1
  H  H13  1  -0.01084256  0.36034553  0.82780958  1
  H  H14  1  -0.01179163  0.69404466  0.82692030  1
  H  H15  1  0.49728562  0.02836635  0.82597348  1
  H  H16  1  0.50413340  0.36484896  0.81887200  1
  H  H17  1  0.49220490  0.69517490  0.82190026  1
  H  H18  1  -0.00398094  0.30184002  0.31722054  1
  H  H19  1  -0.01641111  0.63821539  0.32418840  1
  H  H20  1  0.00605799  0.97007293  0.31758648  1
  H  H21  1  0.49609829  0.30924857  0.32333987  1
  H  H22  1  0.51222799  0.63318785  0.32442132  1
  H  H23  1  0.50261669  0.97304928  0.32322893  1
  H  H24  1  0.25723364  0.19222167  0.68230037  1
  H  H25  1  0.24095417  0.53202496  0.67658720  1
  H  H26  1  0.24800434  0.86105457  0.68022367  1
  H  H27  1  0.75634602  0.19722594  0.68227695  1
  H  H28  1  0.76006422  0.52263751  0.67732625  1
  H  H29  1  0.74605799  0.86321692  0.68316116  1
  H  H30  1  0.24164782  0.14268726  0.17395532  1
  H  H31  1  0.24411952  0.47416832  0.17638810  1
  H  H32  1  0.25228302  0.80438982  0.17505926  1
  H  H33  1  0.75140257  0.13632099  0.17591113  1
  H  H34  1  0.75991999  0.47187056  0.17884611  1
  H  H35  1  0.75303565  0.80219634  0.17753732  1
  H  H36  1  0.26390466  0.19776978  0.81931062  1
  H  H37  1  0.23769811  0.53045695  0.82534862  1
  H  H38  1  0.23873562  0.85702903  0.82251227  1
  H  H39  1  0.74182287  0.19389260  0.81990737  1
  H  H40  1  0.75148257  0.53065808  0.82075050  1
  H  H41  1  0.75322319  0.85818570  0.82310543  1
  H  H42  1  0.23015970  0.12870432  0.34370752  1
  H  H43  1  0.25094996  0.47138721  0.31846048  1
  H  H44  1  0.25072344  0.80396216  0.32363190  1
  H  H45  1  0.73269884  0.13989908  0.31993231  1
  H  H46  1  0.73551656  0.47164583  0.32250016  1
  H  H47  1  0.74821881  0.80169653  0.31874492  1
  H  H48  1  0.15872641  0.05562370  0.60482778  1
  H  H49  1  0.11734302  0.39354106  0.59156461  1
  H  H50  1  0.11739859  0.72375010  0.59620000  1
  H  H51  1  0.63145874  0.06284968  0.60363312  1
  H  H52  1  0.62277882  0.38642583  0.61371780  1
  H  H53  1  0.61957229  0.72294316  0.59909135  1
  H  H54  1  0.37483089  0.27978297  0.12147112  1
  H  H55  1  0.37169140  0.61935472  0.12661034  1
  H  H56  1  0.37173698  0.95006461  0.12402539  1
  H  H57  1  0.87570335  0.27245179  0.09012915  1
  H  H58  1  0.86997647  0.61174724  0.10054755  1
  H  H59  1  0.86222512  0.94892252  0.12229924  1
  H  H60  1  0.37425976  0.06035164  0.89412318  1
  H  H61  1  0.38155401  0.38837819  0.88927102  1
  H  H62  1  0.37854513  0.72342872  0.89945268  1
  H  H63  1  0.86811014  0.05233633  0.88264407  1
  H  H64  1  0.89391345  0.39389418  0.91649213  1
  H  H65  1  0.88291975  0.72680971  0.90927010  1
  H  H66  1  0.13195518  0.28065937  0.37271457  1
  H  H67  1  0.11738455  0.61644252  0.38579846  1
  H  H68  1  0.11648572  0.94160025  0.39728079  1
  H  H69  1  0.63532868  0.28641527  0.37712302  1
  H  H70  1  0.61712129  0.60514405  0.40647516  1
  H  H71  1  0.61408812  0.94314075  0.40259389  1
  H  H72  1  0.36781698  0.22252361  0.60266139  1
  H  H73  1  0.37997622  0.55102834  0.62118302  1
  H  H74  1  0.38140368  0.88621916  0.61820884  1
  H  H75  1  0.86810716  0.22194157  0.60346492  1
  H  H76  1  0.87830908  0.55568501  0.60291515  1
  H  H77  1  0.88128373  0.88209725  0.62529381  1
  H  H78  1  0.12901597  0.11068644  0.09645619  1
  H  H79  1  0.11519354  0.44805546  0.10967831  1
  H  H80  1  0.12042801  0.77850377  0.11193505  1
  H  H81  1  0.62808381  0.11143571  0.10599535  1
  H  H82  1  0.61832420  0.45042429  0.12926421  1
  H  H83  1  0.62454832  0.78189143  0.11321717  1
  H  H84  1  0.12977227  0.21835337  0.88278662  1
  H  H85  1  0.12908983  0.55822796  0.90556150  1
  H  H86  1  0.13596496  0.89086246  0.90710003  1
  H  H87  1  0.63107565  0.22396541  0.89942209  1
  H  H88  1  0.63952509  0.56032703  0.89962636  1
  H  H89  1  0.63629607  0.88961452  0.89625990  1
  H  H90  1  0.33800515  0.10504059  0.42636414  1
  H  H91  1  0.38418848  0.44755400  0.38133078  1
  H  H92  1  0.38231506  0.77920411  0.38774170  1
  H  H93  1  0.86179657  0.12055905  0.38514436  1
  H  H94  1  0.87170965  0.45406290  0.37675642  1
  H  H95  1  0.88137564  0.77789722  0.38295926  1
  H  H96  1  0.38895218  0.27585546  0.40463604  1
  H  H97  1  0.37154779  0.61819685  0.37689471  1
  H  H98  1  0.36741390  0.94610482  0.37831068  1
  H  H99  1  0.88533401  0.27866397  0.39698510  1
  H  H100  1  0.86939606  0.60624305  0.39983029  1
  H  H101  1  0.86935480  0.95000177  0.37754138  1
  H  H102  1  0.11571152  0.05714428  0.89937231  1
  H  H103  1  0.13483883  0.38135137  0.87052366  1
  H  H104  1  0.12807603  0.71396030  0.88062775  1
  H  H105  1  0.62179418  0.04934315  0.89668882  1
  H  H106  1  0.63041247  0.38713459  0.88582602  1
  H  H107  1  0.62640724  0.72032105  0.88245800  1
  H  H108  1  0.11931737  0.28521418  0.12579403  1
  H  H109  1  0.11864398  0.61381675  0.11100593  1
  H  H110  1  0.10971129  0.94485092  0.09868022  1
  H  H111  1  0.62157579  0.27467253  0.09596363  1
  H  H112  1  0.61647914  0.61037271  0.09292581  1
  H  H113  1  0.61879125  0.94520596  0.10331668  1
  H  H114  1  0.38548521  0.04583916  0.61742630  1
  H  H115  1  0.37478880  0.39158978  0.59957957  1
  H  H116  1  0.37232682  0.71742415  0.62074553  1
  H  H117  1  0.91505859  0.06638384  0.56854303  1
  H  H118  1  0.87431370  0.38428415  0.62733665  1
  H  H119  1  0.87008518  0.71631799  0.61465864  1
  H  H120  1  0.09263650  0.10923283  0.39655903  1
  H  H121  1  0.13587335  0.44488206  0.39619140  1
  H  H122  1  0.13486260  0.77578835  0.40076621  1
  H  H123  1  0.61510293  0.10680475  0.39340023  1
  H  H124  1  0.62652595  0.44437578  0.40286060  1
  H  H125  1  0.63383470  0.77663471  0.39878666  1
  H  H126  1  0.37720182  0.22423839  0.90043759  1
  H  H127  1  0.37423584  0.54919876  0.87897991  1
  H  H128  1  0.37911962  0.88055627  0.87403351  1
  H  H129  1  0.87842667  0.21561987  0.87931342  1
  H  H130  1  0.88731274  0.55109608  0.88159903  1
  H  H131  1  0.88436379  0.88392983  0.88634728  1
  H  H132  1  0.37592131  0.11482237  0.11836100  1
  H  H133  1  0.36285971  0.44461707  0.10221122  1
  H  H134  1  0.36842424  0.77453642  0.09907627  1
  H  H135  1  0.87710543  0.11354741  0.10639795  1
  H  H136  1  0.86224600  0.43999177  0.09352500  1
  H  H137  1  0.87305920  0.77809288  0.10433935  1
  H  H138  1  0.12047483  0.21517874  0.62334527  1
  H  H139  1  0.13356879  0.56086751  0.59431960  1
  H  H140  1  0.13340793  0.88733176  0.60274887  1
  H  H141  1  0.62073893  0.21815003  0.62581572  1
  H  H142  1  0.63027200  0.54903188  0.61216744  1
  H  H143  1  0.63378840  0.88637126  0.60353548  1
  H  H144  1  0.19743228  0.91961842  0.49714805  1
  H  H145  1  0.54570665  0.57539497  0.51133994  1
  H  H146  1  0.78201993  0.41497666  -0.00535927  1
  H  H147  1  0.41800500  0.07812197  0.99920654  1
  H  H148  1  0.68540497  0.05164270  0.47796440  1
  H  H149  1  0.83298380  0.08566304  0.00109943  1
  H  H150  1  0.03569881  0.41908846  0.49445165  1
  H  H151  1  0.39674763  0.91854059  1.01080850  1
  H  H152  1  0.46316086  0.25126694  0.50563466  1
  H  H153  1  0.36208033  0.58073239  0.50999851  1
  H  H154  1  0.95057149  0.25055076  0.50469244  1
  H  H155  1  0.34363231  0.75186354  0.49408394  1
  H  H156  1  0.15453458  0.41917777  0.00264993  1
  H  H157  1  0.55132273  0.75127335  0.49419594  1
  H  H158  1  0.80435668  0.25786123  0.49836777  1
  H  H159  1  0.29904439  0.25351625  0.49882161  1
  H  H160  1  0.04301650  0.91447202  -0.00614965  1
  H  H161  1  0.57366348  0.08922578  0.99515060  1
  H  H162  1  0.15878278  0.74807430  0.00635417  1
  H  H163  1  0.85655796  0.90953866  0.51138738  1
  H  H164  1  0.43077144  0.05086112  0.50782376  1
  H  H165  1  0.53714880  0.58454991  -0.00657680  1
  H  H166  1  0.70664796  0.59211754  1.00357456  1
  H  H167  1  0.90143031  0.74797571  0.50712934  1
  H  H168  1  0.27280126  0.07894751  0.53286714  1
  H  H169  1  0.55699497  0.91336157  -0.00337716  1
  H  H170  1  0.04792510  0.91076783  0.50197163  1
  H  H171  1  0.85119817  0.42309299  0.49225503  1
  H  H172  1  0.19558775  0.07990248  -0.00401395  1
  H  H173  1  0.35540995  0.58114546  -0.00575933  1
  H  H174  1  0.10691546  0.25070109  1.01149608  1
  H  H175  1  0.81338908  0.10951542  0.49385349  1
  H  H176  1  0.20374784  0.59048267  0.49059561  1
  H  H177  1  0.64334822  0.25124377  0.51305629  1
  H  H178  1  0.88819727  0.91906412  0.01468872  1
  H  H179  1  0.99070467  0.08708552  0.46788512  1
  H  H180  1  0.97987383  0.41864034  1.01245902  1
  H  H181  1  0.54993724  0.24706132  -0.00487939  1
  H  H182  1  0.11006795  0.25389122  0.48707015  1
  H  H183  1  0.21640469  0.91687338  1.00526667  1
  H  H184  1  0.55661419  0.11383243  0.51786191  1
  H  H185  1  0.54427233  0.91327279  0.50353345  1
  H  H186  1  0.69985567  0.25578570  1.00292145  1
  H  H187  1  0.42869775  0.41680215  0.99982981  1
  H  H188  1  0.59258903  0.41374180  0.99800652  1
  H  H189  1  0.66076256  0.75396340  -0.00016745  1
  H  H190  1  0.19929841  0.41473956  0.50186822  1
  H  H191  1  0.69638817  0.90928781  0.49488338  1
  Pb  Pb192  1  0.25246205  0.04644009  0.76365965  1
  Pb  Pb193  1  0.25723285  0.38505768  0.74064295  1
  Pb  Pb194  1  0.25364468  0.71506369  0.74902425  1
  Pb  Pb195  1  0.75757163  0.05036816  0.73819720  1
  Pb  Pb196  1  0.75855487  0.38225857  0.76339856  1
  Pb  Pb197  1  0.75748761  0.71554852  0.75415980  1
  Pb  Pb198  1  0.25298794  0.28333660  0.25713023  1
  Pb  Pb199  1  0.24481186  0.61967262  0.25066414  1
  Pb  Pb200  1  0.24046663  0.94910085  0.24570404  1
  Pb  Pb201  1  0.74883201  0.28495784  0.24379855  1
  Pb  Pb202  1  0.74743307  0.61632352  0.24814293  1
  Pb  Pb203  1  0.74347455  0.95165749  0.25248456  1
  Pb  Pb204  1  0.00575268  0.21527769  0.74803675  1
  Pb  Pb205  1  0.00825047  0.55015515  0.74609010  1
  Pb  Pb206  1  0.00624914  0.88372092  0.75146282  1
  Pb  Pb207  1  0.50317595  0.21731932  0.75188513  1
  Pb  Pb208  1  0.50989419  0.55095450  0.75996475  1
  Pb  Pb209  1  0.50788027  0.88217732  0.74581319  1
  Pb  Pb210  1  -0.00292747  0.12002337  0.24261040  1
  Pb  Pb211  1  0.00104172  0.44994916  0.25408819  1
  Pb  Pb212  1  -0.00440359  0.78342517  0.25425347  1
  Pb  Pb213  1  0.49333203  0.11864986  0.25863356  1
  Pb  Pb214  1  0.49670080  0.45259222  0.24745732  1
  Pb  Pb215  1  0.49731962  0.78418006  0.25075898  1
  C  C216  1  0.02971064  0.05055298  0.60708875  1
  C  C217  1  0.00274823  0.37895951  0.63203796  1
  C  C218  1  -0.00291064  0.70995080  0.62672192  1
  C  C219  1  0.51172184  0.04640603  0.63295883  1
  C  C220  1  0.49626179  0.37891851  0.62892841  1
  C  C221  1  0.50009144  0.71183577  0.63256991  1
  C  C222  1  -0.00757320  0.28624433  0.12833935  1
  C  C223  1  -0.00747811  0.62297281  0.12815506  1
  C  C224  1  -0.01023530  0.95503131  0.13269676  1
  C  C225  1  0.50289982  0.28767700  0.13003191  1
  C  C226  1  0.50070351  0.62597222  0.13066414  1
  C  C227  1  0.49842782  0.95538232  0.13386783  1
  C  C228  1  -0.00503475  0.04558421  0.86817228  1
  C  C229  1  0.00593463  0.37686772  0.87329566  1
  C  C230  1  0.00016118  0.71081409  0.87289755  1
  C  C231  1  0.49763404  0.04541979  0.87315446  1
  C  C232  1  0.50555980  0.38014226  0.86660759  1
  C  C233  1  0.49946849  0.71246182  0.86820220  1
  C  C234  1  0.00501373  0.28757662  0.36478336  1
  C  C235  1  -0.00959816  0.62079266  0.37053115  1
  C  C236  1  -0.00316190  0.95390551  0.36444995  1
  C  C237  1  0.50637423  0.29188242  0.36951220  1
  C  C238  1  0.50030293  0.61874132  0.37152506  1
  C  C239  1  0.49479763  0.95553304  0.36948555  1
  C  C240  1  0.24808612  0.21015708  0.63612909  1
  C  C241  1  0.25221636  0.54711601  0.62947119  1
  C  C242  1  0.25470712  0.87758204  0.63334723  1
  C  C243  1  0.74785043  0.21268826  0.63506868  1
  C  C244  1  0.75631857  0.54109138  0.63096129  1
  C  C245  1  0.75415303  0.87686209  0.63529006  1
  C  C246  1  0.24858546  0.12378193  0.12816400  1
  C  C247  1  0.24008171  0.45681456  0.12960999  1
  C  C248  1  0.24659022  0.78697475  0.12844105  1
  C  C249  1  0.75257141  0.12086065  0.12841405  1
  C  C250  1  0.74702576  0.45558107  0.13261281  1
  C  C251  1  0.74961910  0.78785586  0.12976266  1
  C  C252  1  0.25720288  0.21303458  0.86667821  1
  C  C253  1  0.24798593  0.54612575  0.87212043  1
  C  C254  1  0.25113989  0.87473652  0.86817683  1
  C  C255  1  0.75076104  0.21094256  0.86637972  1
  C  C256  1  0.75968383  0.54697816  0.86758707  1
  C  C257  1  0.75839870  0.87646010  0.86913034  1
  C  C258  1  0.22011262  0.11427588  0.39112262  1
  C  C259  1  0.25728199  0.45539113  0.36560877  1
  C  C260  1  0.25641641  0.78731213  0.37056371  1
  C  C261  1  0.73621417  0.12341155  0.36717420  1
  C  C262  1  0.74561087  0.45695878  0.36962573  1
  C  C263  1  0.75459367  0.78633960  0.36622539  1
  C  C264  1  0.72289888  0.42908289  0.46588746  1
  C  C265  1  0.46940971  0.41427905  0.53707624  1
  C  C266  1  0.30674007  0.57281715  0.96042150  1
  C  C267  1  0.73791566  0.57842380  0.96160450  1
  C  C268  1  0.72882967  0.90047172  0.53775569  1
  C  C269  1  0.43554148  0.59422277  0.45741978  1
  C  C270  1  0.44361392  0.25416398  0.04463154  1
  C  C271  1  0.26860584  0.24126962  0.54182400  1
  C  C272  1  0.43554358  0.59388384  0.04795009  1
  C  C273  1  0.09515890  0.07825028  0.52273000  1
  C  C274  1  0.68030407  0.42559936  0.04951962  1
  C  C275  1  0.47422821  0.74612913  0.96133269  1
  C  C276  1  0.46770125  0.40576472  0.96115677  1
  C  C277  1  0.23284481  0.57742432  0.53367395  1
  C  C278  1  0.52430362  0.92604420  0.03813180  1
  C  C279  1  0.56825806  0.26280815  0.45498940  1
  C  C280  1  0.98449063  0.74457750  0.96730971  1
  C  C281  1  0.96531865  0.58534248  0.46252539  1
  C  C282  1  0.52060747  0.74022651  0.53723284  1
  C  C283  1  0.51580018  0.58916327  0.46878199  1
  C  C284  1  0.05672116  0.25920840  0.04264452  1
  C  C285  1  0.54977795  0.40485334  0.96007733  1
  C  C286  1  0.15965844  0.09012432  0.47960245  1
  C  C287  1  0.01755104  0.92380554  0.45927805  1
  C  C288  1  0.30529374  0.08920100  0.04238008  1
  C  C289  1  0.94603212  0.07459576  0.95746745  1
  C  C290  1  0.97650341  0.25517904  0.03209040  1
  C  C291  1  0.24170397  0.08813396  0.48944598  1
  C  C292  1  0.80374362  0.43164679  0.45845768  1
  C  C293  1  0.43698322  0.92014506  0.45460903  1
  C  C294  1  0.81036802  0.90007219  0.54572653  1
  C  C295  1  0.78514734  0.76200959  0.03508256  1
  C  C296  1  0.98169346  0.26148449  0.46195101  1
  C  C297  1  0.07837000  0.40614915  0.95368098  1
  C  C298  1  0.72887632  0.91150809  0.96114226  1
  C  C299  1  0.44268908  0.92832853  0.04528503  1
  C  C300  1  0.02421896  0.74459286  0.53267173  1
  C  C301  1  0.23204772  0.42635209  0.45991171  1
  C  C302  1  0.77241419  0.24383383  0.53973643  1
  C  C303  1  0.73045564  0.24234573  0.96061519  1
  C  C304  1  0.06300173  0.26268366  0.45323213  1
  C  C305  1  0.96267452  0.58653220  0.03734650  1
  C  C306  1  0.22604433  0.57649807  0.96761642  1
  C  C307  1  0.71216297  0.09248265  0.03455811  1
  C  C308  1  0.01291639  0.92532219  0.03716434  1
  C  C309  1  0.22968227  0.90808737  0.53935067  1
  C  C310  1  0.70373530  0.76306710  0.03660585  1
  C  C311  1  0.69097361  0.24173832  0.54742164  1
  N  N312  1  0.19007953  0.23966220  0.54904100  1
  N  N313  1  0.20082192  0.75629485  0.04103187  1
  N  N314  1  0.30858271  0.90873942  0.54479971  1
  N  N315  1  0.03985520  0.58668274  0.03949832  1
  N  N316  1  0.80613380  0.90912869  0.95895272  1
  N  N317  1  0.80909681  0.23943442  0.95407556  1
  N  N318  1  0.22631078  0.08802106  0.03636404  1
  N  N319  1  0.04246680  0.58846134  0.45929271  1
  N  N320  1  0.22424570  0.75905197  0.46539647  1
  N  N321  1  1.01576185  0.08360303  0.51229387  1
  N  N322  1  0.19752079  0.42773924  0.04014077  1
  N  N323  1  0.31577303  0.90498364  0.95115818  1
  N  N324  1  0.01318653  0.41177485  0.53861947  1
  N  N325  1  0.28233343  0.24239082  0.96209240  1
  N  N326  1  0.49020873  0.25887021  0.46338346  1
  N  N327  1  0.80390287  0.75908993  0.45643670  1
  N  N328  1  1.00155433  0.41066459  0.96765563  1
  N  N329  1  0.81667071  0.57556658  0.95576277  1
  N  N330  1  0.93901992  0.92670871  0.45240818  1
  N  N331  1  0.44185689  0.73900804  0.54440514  1
  N  N332  1  0.54646185  0.41234428  0.53998237  1
  N  N333  1  0.06114325  0.74013906  0.95920181  1
  N  N334  1  0.31107625  0.42695993  0.45507235  1
  N  N335  1  0.79140004  0.09366082  0.03625102  1
  N  N336  1  0.52190741  0.25399045  0.03689624  1
  N  N337  1  0.51531558  0.92083557  0.46211691  1
  N  N338  1  0.53615156  0.06435124  0.96728641  1
  N  N339  1  0.93440263  0.92439701  0.04706854  1
  N  N340  1  0.54020801  0.07436520  0.53824011  1
  N  N341  1  0.45771900  0.07206102  0.54457300  1
  N  N342  1  0.75767720  0.42267850  0.03835316  1
  N  N343  1  0.23924648  0.90865309  0.96105973  1
  N  N344  1  0.71096073  0.57378976  0.54134078  1
  N  N345  1  0.51305533  0.59101089  0.03726799  1
  N  N346  1  0.02330299  0.07599196  0.96409702  1
  N  N347  1  0.93666419  0.40795165  0.54921450  1
  N  N348  1  0.27556156  0.42571354  0.03676775  1
  N  N349  1  0.78602482  0.09256681  0.45494875  1
  N  N350  1  0.31144419  0.57345568  0.54344500  1
  N  N351  1  0.27863772  0.75530089  0.03500571  1
  N  N352  1  0.55157517  0.74476776  0.95691344  1
  N  N353  1  0.72772415  0.75902150  0.46201519  1
  N  N354  1  0.78696968  0.57597826  0.53863255  1
  N  N355  1  0.30201900  0.76040027  0.45945050  1
  N  N356  1  0.70390873  0.09149647  0.45963149  1
  N  N357  1  0.20670078  0.24039675  0.95634911  1
  N  N358  1  0.45884712  0.08027912  0.96228250  1
  N  N359  1  0.94577399  0.74085557  0.53987186  1
  N  N360  1  0.10292125  0.05957098  0.58265732  1
  N  N361  1  0.05493404  0.39136627  0.58766444  1
  N  N362  1  0.05622532  0.72572172  0.58642948  1
  N  N363  1  0.56968716  0.06633834  0.59668919  1
  N  N364  1  0.56349815  0.38983450  0.59845313  1
  N  N365  1  0.55768032  0.72397361  0.59091046  1
  N  N366  1  0.43173762  0.27439310  0.10246318  1
  N  N367  1  0.42747005  0.61362762  0.10640891  1
  N  N368  1  0.42812475  0.94631323  0.10486565  1
  N  N369  1  0.93763780  0.27154189  0.08360857  1
  N  N370  1  0.93061074  0.60824965  0.09059450  1
  N  N371  1  0.92050182  0.94328684  0.10561569  1
  N  N372  1  0.43391270  0.05818883  0.90737019  1
  N  N373  1  0.44169466  0.39041168  0.90284876  1
  N  N374  1  0.44004133  0.72643165  0.90825154  1
  N  N375  1  0.92637910  0.05627862  0.89925170  1
  N  N376  1  0.95635751  0.38948867  0.91914481  1
  N  N377  1  0.94497885  0.72724841  0.91550401  1
  N  N378  1  0.07591857  0.27872624  0.39289086  1
  N  N379  1  0.05815988  0.61098081  0.40066223  1
  N  N380  1  0.05458040  0.94066775  0.40568080  1
  N  N381  1  0.57877864  0.28143990  0.39639728  1
  N  N382  1  0.55523905  0.60506666  0.41410760  1
  N  N383  1  0.55203151  0.94458025  0.41043563  1
  N  N384  1  0.30566262  0.22349082  0.59495362  1
  N  N385  1  0.32270936  0.55404604  0.60218580  1
  N  N386  1  0.32236282  0.88956392  0.60347330  1
  N  N387  1  0.80658227  0.22548929  0.59458118  1
  N  N388  1  0.81673307  0.55596772  0.59407626  1
  N  N389  1  0.82444604  0.88562095  0.60631104  1
  N  N390  1  0.19076453  0.11143147  0.08836463  1
  N  N391  1  0.17478811  0.44757535  0.09615065  1
  N  N392  1  0.17986102  0.77673906  0.09699931  1
  N  N393  1  0.68801407  0.10899079  0.09188903  1
  N  N394  1  0.67328937  0.44464835  0.10830746  1
  N  N395  1  0.68283812  0.77920737  0.09670249  1
  N  N396  1  0.18941052  0.22265850  0.89714891  1
  N  N397  1  0.19068682  0.56044590  0.91463867  1
  N  N398  1  0.19825510  0.88801980  0.91180598  1
  N  N399  1  0.69294735  0.22506973  0.90716360  1
  N  N400  1  0.70139404  0.56084434  0.90801780  1
  N  N401  1  0.69729426  0.89190006  0.90700289  1
  N  N402  1  0.27690262  0.10350557  0.43409542  1
  N  N403  1  0.32478600  0.44504901  0.39634805  1
  N  N404  1  0.32307673  0.77781773  0.40235336  1
  N  N405  1  0.80233702  0.12097434  0.40110579  1
  N  N406  1  0.81644214  0.44868752  0.39728126  1
  N  N407  1  0.82181966  0.77566339  0.39705614  1
  N  N408  1  0.45116657  0.27942058  0.41139305  1
  N  N409  1  0.42690235  0.61188908  0.39800803  1
  N  N410  1  0.42408717  0.94109696  0.39715991  1
  N  N411  1  0.94680621  0.27711806  0.40646670  1
  N  N412  1  0.93060818  0.60459275  0.40934537  1
  N  N413  1  0.92769885  0.94503681  0.39316599  1
  N  N414  1  0.05392647  0.05728358  0.90722840  1
  N  N415  1  0.08129553  0.38682904  0.89445890  1
  N  N416  1  0.07083068  0.71857167  0.89922898  1
  N  N417  1  0.56129009  0.05417474  0.90859842  1
  N  N418  1  0.57173055  0.38914627  0.90078407  1
  N  N419  1  0.56738544  0.72397213  0.89751968  1
  N  N420  1  0.06495177  0.27852883  0.10356187  1
  N  N421  1  0.05870673  0.60960974  0.09736034  1
  N  N422  1  0.04760528  0.94348282  0.09050904  1
  N  N423  1  0.55959249  0.27662173  0.08866011  1
  N  N424  1  0.55421776  0.61394066  0.08727440  1
  N  N425  1  0.55747749  0.94289439  0.09358304  1
  N  N426  1  0.44435872  0.04653801  0.60051364  1
  N  N427  1  0.43561337  0.39407123  0.59034585  1
  N  N428  1  0.43082112  0.72120236  0.60424573  1
  N  N429  1  0.97606452  0.06112937  0.56290188  1
  N  N430  1  0.93072144  0.38942804  0.60781820  1
  N  N431  1  0.92842684  0.71880297  0.59755481  1
  N  N432  1  0.14865554  0.10663666  0.41779855  1
  N  N433  1  0.19750213  0.44364811  0.40548509  1
  N  N434  1  0.19634860  0.77542366  0.40955066  1
  N  N435  1  0.67660041  0.10288846  0.40133264  1
  N  N436  1  0.68805309  0.44404713  0.41241950  1
  N  N437  1  0.69587719  0.77591912  0.40625033  1
  N  N438  1  0.31533987  0.22520032  0.90678041  1
  N  N439  1  0.31897438  0.55404787  0.89954349  1
  N  N440  1  0.32284320  0.88547770  0.89289940  1
  N  N441  1  0.81983380  0.22032854  0.89535919  1
  N  N442  1  0.82831647  0.55629639  0.89714981  1
  N  N443  1  0.82499778  0.88710033  0.90048073  1
  N  N444  1  0.31887014  0.10986551  0.09986721  1
  N  N445  1  0.30136020  0.44311787  0.09253903  1
  N  N446  1  0.30674543  0.77362430  0.09006118  1
  N  N447  1  0.81676953  0.11163909  0.09389912  1
  N  N448  1  0.79989494  0.44395998  0.08866889  1
  N  N449  1  0.81272664  0.77664077  0.09133164  1
  N  N450  1  0.17889024  0.22061817  0.60789789  1
  N  N451  1  0.19559934  0.56116754  0.58687466  1
  N  N452  1  0.19500206  0.88948762  0.59338272  1
  N  N453  1  0.67739545  0.22262194  0.60693824  1
  N  N454  1  0.69035407  0.55187470  0.59847730  1
  N  N455  1  0.69526167  0.88621168  0.59400957  1
  Cl  Cl456  1  0.27009227  0.05379552  0.63156805  1
  Cl  Cl457  1  0.24062856  0.39282284  0.60464428  1
  Cl  Cl458  1  0.24353336  0.72056891  0.61642068  1
  Cl  Cl459  1  0.76201083  0.06244287  0.60092245  1
  Cl  Cl460  1  0.74734868  0.38507163  0.63274868  1
  Cl  Cl461  1  0.74448234  0.72128177  0.62257813  1
  Cl  Cl462  1  0.25123886  0.28178888  0.12988765  1
  Cl  Cl463  1  0.24348044  0.61494485  0.11956127  1
  Cl  Cl464  1  0.23097746  0.93984323  0.10110150  1
  Cl  Cl465  1  0.74590574  0.27522166  0.10708791  1
  Cl  Cl466  1  0.73944660  0.60880169  0.11068488  1
  Cl  Cl467  1  0.73971710  0.95163969  0.11997242  1
  Cl  Cl468  1  0.24364039  0.05766560  0.89887102  1
  Cl  Cl469  1  0.25932309  0.38849565  0.87212659  1
  Cl  Cl470  1  0.25544862  0.72065621  0.88181514  1
  Cl  Cl471  1  0.74306890  0.05330642  0.87882079  1
  Cl  Cl472  1  0.77100955  0.39474794  0.90206574  1
  Cl  Cl473  1  0.75779636  0.72600527  0.88934656  1
  Cl  Cl474  1  0.26763540  0.27095001  0.39293238  1
  Cl  Cl475  1  0.24172610  0.61476262  0.38524741  1
  Cl  Cl476  1  0.23834499  0.94576993  0.38039792  1
  Cl  Cl477  1  0.76213308  0.27858219  0.37758322  1
  Cl  Cl478  1  0.74309968  0.60815143  0.37938365  1
  Cl  Cl479  1  0.73601214  0.94867698  0.38935710  1
  Cl  Cl480  1  -0.00951530  0.21511001  0.61261382  1
  Cl  Cl481  1  0.00612907  0.55852349  0.61184875  1
  Cl  Cl482  1  0.01217748  0.88679153  0.61574641  1
  Cl  Cl483  1  0.48866750  0.22338361  0.60641710  1
  Cl  Cl484  1  0.50774710  0.55103350  0.62621804  1
  Cl  Cl485  1  0.51187033  0.89449844  0.60631286  1
  Cl  Cl486  1  0.00240598  0.11213641  0.11379757  1
  Cl  Cl487  1  -0.01506407  0.43766120  0.10519998  1
  Cl  Cl488  1  -0.00230743  0.77857858  0.12139116  1
  Cl  Cl489  1  0.50304679  0.11199570  0.11635692  1
  Cl  Cl490  1  0.48559154  0.44648466  0.11314980  1
  Cl  Cl491  1  0.49070497  0.77409728  0.11988990  1
  Cl  Cl492  1  0.00587073  0.21745529  0.87915578  1
  Cl  Cl493  1  0.01091193  0.54813246  0.87802179  1
  Cl  Cl494  1  0.01452522  0.89249170  0.88969380  1
  Cl  Cl495  1  0.50605563  0.22379718  0.89437557  1
  Cl  Cl496  1  0.51748189  0.56454539  0.89774971  1
  Cl  Cl497  1  0.51158156  0.88876528  0.87867377  1
  Cl  Cl498  1  -0.02443534  0.10562576  0.37857845  1
  Cl  Cl499  1  0.01379427  0.43993370  0.39189374  1
  Cl  Cl500  1  0.00857809  0.77479058  0.39007882  1
  Cl  Cl501  1  0.48657346  0.10798189  0.39662977  1
  Cl  Cl502  1  0.50739826  0.44239974  0.37778090  1
  Cl  Cl503  1  0.50971054  0.77787642  0.38831099  1
  Cl  Cl504  1  0.36509564  0.14688166  0.75433613  1
  Cl  Cl505  1  0.36323852  0.48030741  0.74943055  1
  Cl  Cl506  1  0.36964763  0.81368765  0.74558517  1
  Cl  Cl507  1  0.85387908  0.14984383  0.75589210  1
  Cl  Cl508  1  0.86191052  0.47879785  0.75197878  1
  Cl  Cl509  1  0.86994430  0.81500355  0.74863089  1
  Cl  Cl510  1  0.13586933  0.18487493  0.26551981  1
  Cl  Cl511  1  0.13379869  0.51840835  0.24438953  1
  Cl  Cl512  1  0.14585979  0.84932492  0.25139254  1
  Cl  Cl513  1  0.63470087  0.18557752  0.24860984  1
  Cl  Cl514  1  0.64103351  0.51347934  0.24387314  1
  Cl  Cl515  1  0.63974556  0.84679164  0.24683099  1
  Cl  Cl516  1  0.14263643  0.14803641  0.74711833  1
  Cl  Cl517  1  0.14463726  0.48455947  0.74858808  1
  Cl  Cl518  1  0.14530159  0.81804301  0.75314017  1
  Cl  Cl519  1  0.63192620  0.14418241  0.74099234  1
  Cl  Cl520  1  0.64192155  0.48045219  0.75975750  1
  Cl  Cl521  1  0.64551539  0.81668957  0.75352653  1
  Cl  Cl522  1  0.35509036  0.17846058  0.24652515  1
  Cl  Cl523  1  0.35644928  0.51842497  0.25195212  1
  Cl  Cl524  1  0.36185688  0.85450451  0.24742759  1
  Cl  Cl525  1  0.85462576  0.18078203  0.24977053  1
  Cl  Cl526  1  0.86592107  0.51842713  0.25752948  1
  Cl  Cl527  1  0.86135960  0.85486772  0.24832163  1
  Cl  Cl528  1  0.10937165  0.31471683  0.75188003  1
  Cl  Cl529  1  0.10971041  0.65385867  0.75102995  1
  Cl  Cl530  1  0.11132536  0.98790460  0.74163405  1
  Cl  Cl531  1  0.60950216  0.31280153  0.75216309  1
  Cl  Cl532  1  0.60709202  0.65040715  0.75463553  1
  Cl  Cl533  1  0.61180608  0.98370633  0.74993919  1
  Cl  Cl534  1  0.38674719  0.01776152  0.24738278  1
  Cl  Cl535  1  0.39172281  0.34835801  0.25058136  1
  Cl  Cl536  1  0.38370904  0.68491113  0.25905771  1
  Cl  Cl537  1  0.88147370  0.02007316  0.25234429  1
  Cl  Cl538  1  0.89267233  0.34780173  0.24982955  1
  Cl  Cl539  1  0.88557052  0.68852774  0.25058947  1
  Cl  Cl540  1  0.38998627  0.31439754  0.74713342  1
  Cl  Cl541  1  0.38782721  0.64449069  0.74459237  1
  Cl  Cl542  1  0.39349512  0.98126526  0.75341583  1
  Cl  Cl543  1  0.89068956  0.31437958  0.74767317  1
  Cl  Cl544  1  0.89095396  0.64746491  0.75085748  1
  Cl  Cl545  1  0.89221640  0.98356082  0.74233248  1
  Cl  Cl546  1  0.10466355  0.01694571  0.24720248  1
  Cl  Cl547  1  0.11524393  0.35163181  0.24445016  1
  Cl  Cl548  1  0.10593035  0.68355056  0.25278860  1
  Cl  Cl549  1  0.60649180  0.01824692  0.25369883  1
  Cl  Cl550  1  0.61130623  0.35252195  0.24648761  1
  Cl  Cl551  1  0.60645027  0.68139524  0.25066269  1
