# generated using pymatgen
data_H8PbC4(N3Cl2)2
_symmetry_space_group_name_H-M   'P 1'
_cell_length_a   16.63119398
_cell_length_b   22.51719015
_cell_length_c   21.59575368
_cell_angle_alpha   89.99751103
_cell_angle_beta   89.98586015
_cell_angle_gamma   89.99849588
_symmetry_Int_Tables_number   1
_chemical_formula_structural   H8PbC4(N3Cl2)2
_chemical_formula_sum   'H192 Pb24 C96 N144 Cl96'
_cell_volume   8087.34510550
_cell_formula_units_Z   24
loop_
 _symmetry_equiv_pos_site_id
 _symmetry_equiv_pos_as_xyz
  1  'x, y, z'
loop_
 _atom_site_type_symbol
 _atom_site_label
 _atom_site_symmetry_multiplicity
 _atom_site_fract_x
 _atom_site_fract_y
 _atom_site_fract_z
 _atom_site_occupancy
  H  H0  1  0.00089678  0.02587191  0.67252957  1
  H  H1  1  0.00571005  0.36292880  0.67647804  1
  H  H2  1  0.00746880  0.69712654  0.68181888  1
  H  H3  1  0.49045025  0.02837695  0.67712102  1
  H  H4  1  0.50504313  0.36436412  0.67868672  1
  H  H5  1  0.50041528  0.69548762  0.67816946  1
  H  H6  1  -0.01752922  0.30286036  0.17975352  1
  H  H7  1  0.00509694  0.63581267  0.18030319  1
  H  H8  1  0.00779476  0.96886545  0.18055731  1
  H  H9  1  0.51500036  0.30544009  0.17526133  1
  H  H10  1  0.49204675  0.64032144  0.17560156  1
  H  H11  1  0.49276851  0.97109678  0.18063553  1
  H  H12  1  0.00211773  0.02905711  0.81938045  1
  H  H13  1  0.00448582  0.36386224  0.81848216  1
  H  H14  1  -0.00513404  0.68878802  0.82319544  1
  H  H15  1  0.49949735  0.03439818  0.82000233  1
  H  H16  1  0.49802266  0.36213917  0.82075768  1
  H  H17  1  0.49739627  0.69751445  0.81860103  1
  H  H18  1  -0.00253769  0.30262209  0.32607517  1
  H  H19  1  0.00460802  0.63691360  0.32327114  1
  H  H20  1  -0.00373428  0.97537982  0.32659134  1
  H  H21  1  0.50813974  0.30581090  0.32308302  1
  H  H22  1  0.49665220  0.63559311  0.32155240  1
  H  H23  1  0.50791903  0.96829897  0.31891407  1
  H  H24  1  0.25692854  0.19768753  0.68079496  1
  H  H25  1  0.25788119  0.52413715  0.67510297  1
  H  H26  1  0.24547254  0.86284468  0.68153548  1
  H  H27  1  0.74459753  0.19616783  0.67605450  1
  H  H28  1  0.75538465  0.52818573  0.67524806  1
  H  H29  1  0.73893394  0.86403117  0.67879172  1
  H  H30  1  0.24794985  0.13953318  0.17972413  1
  H  H31  1  0.25448209  0.47069569  0.17776631  1
  H  H32  1  0.25795386  0.80185916  0.18182825  1
  H  H33  1  0.74698012  0.13665228  0.17820353  1
  H  H34  1  0.75763967  0.47315782  0.17939094  1
  H  H35  1  0.76327937  0.80763698  0.17739238  1
  H  H36  1  0.26353649  0.19774316  0.82496150  1
  H  H37  1  0.24993334  0.53151489  0.82012180  1
  H  H38  1  0.26562782  0.86036690  0.82088047  1
  H  H39  1  0.74695616  0.19375481  0.81874041  1
  H  H40  1  0.75275741  0.53232952  0.82061968  1
  H  H41  1  0.73782124  0.86226335  0.82261264  1
  H  H42  1  0.25299033  0.13650382  0.31949296  1
  H  H43  1  0.24105790  0.46924005  0.31964964  1
  H  H44  1  0.24696284  0.80908522  0.32311272  1
  H  H45  1  0.75830602  0.13630693  0.32517482  1
  H  H46  1  0.74151785  0.47163466  0.32235086  1
  H  H47  1  0.73904999  0.80449377  0.32088224  1
  H  H48  1  0.12975408  0.05334603  0.60803014  1
  H  H49  1  0.12466554  0.38656554  0.60238509  1
  H  H50  1  0.11514366  0.72393367  0.60026991  1
  H  H51  1  0.63094835  0.05035965  0.62459982  1
  H  H52  1  0.62520894  0.38952960  0.60621320  1
  H  H53  1  0.61165363  0.72599560  0.59708861  1
  H  H54  1  0.37438332  0.28477460  0.12255112  1
  H  H55  1  0.38582696  0.60841479  0.09407026  1
  H  H56  1  0.38285474  0.94348280  0.09925609  1
  H  H57  1  0.88323580  0.27574701  0.09337230  1
  H  H58  1  0.88016208  0.61253370  0.10852476  1
  H  H59  1  0.87731409  0.94950756  0.11732546  1
  H  H60  1  0.36613471  0.05457869  0.88115090  1
  H  H61  1  0.37394772  0.38745848  0.89271970  1
  H  H62  1  0.38098788  0.72083453  0.89447515  1
  H  H63  1  0.86882686  0.05046323  0.88362507  1
  H  H64  1  0.87547830  0.38676026  0.88742064  1
  H  H65  1  0.89003061  0.72486892  0.90550365  1
  H  H66  1  0.10984578  0.27777354  0.40484728  1
  H  H67  1  0.13255235  0.61094231  0.39122064  1
  H  H68  1  0.11561204  0.94208239  0.39608808  1
  H  H69  1  0.61430379  0.27591358  0.40554505  1
  H  H70  1  0.63366199  0.61374834  0.37991202  1
  H  H71  1  0.61219356  0.94329046  0.40366697  1
  H  H72  1  0.38137699  0.22198119  0.61230313  1
  H  H73  1  0.36050333  0.55767491  0.59078863  1
  H  H74  1  0.37779670  0.88477130  0.61694020  1
  H  H75  1  0.88498039  0.21262176  0.62396535  1
  H  H76  1  0.86540230  0.55666692  0.59488891  1
  H  H77  1  0.87963898  0.88332900  0.62597064  1
  H  H78  1  0.13361892  0.11308327  0.10220087  1
  H  H79  1  0.12707626  0.44771161  0.11304641  1
  H  H80  1  0.12183907  0.78291583  0.12402515  1
  H  H81  1  0.63310360  0.10772880  0.10066934  1
  H  H82  1  0.62945930  0.44739870  0.11350984  1
  H  H83  1  0.62134735  0.78527434  0.12738978  1
  H  H84  1  0.12795104  0.21656978  0.87996693  1
  H  H85  1  0.11605473  0.55008336  0.88171610  1
  H  H86  1  0.12536535  0.88153862  0.87392572  1
  H  H87  1  0.62601705  0.22254103  0.89144046  1
  H  H88  1  0.61870538  0.55414486  0.88341400  1
  H  H89  1  0.62584579  0.89205221  0.90148027  1
  H  H90  1  0.35988591  0.10862955  0.40248462  1
  H  H91  1  0.37481854  0.44751913  0.38370760  1
  H  H92  1  0.37968731  0.78022325  0.38175209  1
  H  H93  1  0.86672292  0.10831059  0.40607426  1
  H  H94  1  0.87445585  0.44799620  0.38497183  1
  H  H95  1  0.87889382  0.78355750  0.37470792  1
  H  H96  1  0.36889272  0.28434771  0.37635922  1
  H  H97  1  0.38595698  0.60945805  0.40187526  1
  H  H98  1  0.36731395  0.94952062  0.36901510  1
  H  H99  1  0.86239294  0.28198897  0.38236761  1
  H  H100  1  0.88426647  0.61078166  0.39749955  1
  H  H101  1  0.86753430  0.94974657  0.39201558  1
  H  H102  1  0.11701436  0.05561037  0.89643496  1
  H  H103  1  0.12388309  0.38825386  0.89480160  1
  H  H104  1  0.13445698  0.71287943  0.87285494  1
  H  H105  1  0.61448359  0.05376494  0.89734950  1
  H  H106  1  0.62302816  0.38797764  0.88970835  1
  H  H107  1  0.62860693  0.71824804  0.87932983  1
  H  H108  1  0.12633481  0.28844143  0.13183736  1
  H  H109  1  0.12848421  0.61024984  0.10764555  1
  H  H110  1  0.12595101  0.94328184  0.10634641  1
  H  H111  1  0.61877374  0.27326621  0.08993812  1
  H  H112  1  0.63079632  0.62052997  0.12079296  1
  H  H113  1  0.63010514  0.95071380  0.12162264  1
  H  H114  1  0.38527040  0.05936438  0.59382370  1
  H  H115  1  0.37649573  0.38552604  0.61485802  1
  H  H116  1  0.36538827  0.71940571  0.61909725  1
  H  H117  1  0.88137483  0.05727184  0.60205376  1
  H  H118  1  0.87613340  0.38440638  0.61375215  1
  H  H119  1  0.86945317  0.71333883  0.62743865  1
  H  H120  1  0.11362337  0.11663645  0.37575552  1
  H  H121  1  0.12729110  0.44237221  0.40002408  1
  H  H122  1  0.13372044  0.77964683  0.40230588  1
  H  H123  1  0.62140205  0.11803425  0.37860552  1
  H  H124  1  0.62639624  0.44233651  0.39854292  1
  H  H125  1  0.63501831  0.77494887  0.40641728  1
  H  H126  1  0.37388596  0.22453338  0.90521339  1
  H  H127  1  0.36439778  0.55541335  0.89624551  1
  H  H128  1  0.36887256  0.89100976  0.90675452  1
  H  H129  1  0.87554831  0.21731737  0.88427963  1
  H  H130  1  0.86574628  0.55848234  0.90123341  1
  H  H131  1  0.87300823  0.88475436  0.88154014  1
  H  H132  1  0.38181655  0.11565560  0.11743955  1
  H  H133  1  0.37620318  0.44726387  0.10530561  1
  H  H134  1  0.36893999  0.77715388  0.10348245  1
  H  H135  1  0.88079754  0.11419000  0.11845626  1
  H  H136  1  0.87750187  0.44534766  0.10496041  1
  H  H137  1  0.86396486  0.77421512  0.09123446  1
  H  H138  1  0.13207893  0.21993063  0.61190271  1
  H  H139  1  0.11748113  0.54621552  0.62317265  1
  H  H140  1  0.13036674  0.89053756  0.60217852  1
  H  H141  1  0.63914958  0.22550553  0.59403201  1
  H  H142  1  0.61879972  0.54985653  0.61743198  1
  H  H143  1  0.63670871  0.89435115  0.59294262  1
  H  H144  1  0.07407331  0.91547633  -0.00200782  1
  H  H145  1  0.45282663  0.91424869  -0.00462310  1
  H  H146  1  0.46181773  0.08504363  0.49344694  1
  H  H147  1  0.20392552  0.75331114  0.50372056  1
  H  H148  1  0.88819912  0.74079172  0.51296373  1
  H  H149  1  0.38109698  0.91961366  0.48303192  1
  H  H150  1  0.60771796  0.58354903  0.01510021  1
  H  H151  1  0.08743080  0.58248894  0.49602201  1
  H  H152  1  0.71691438  0.92167439  0.49523597  1
  H  H153  1  0.88136302  0.24653815  0.50433747  1
  H  H154  1  0.64013899  0.08650798  0.49398012  1
  H  H155  1  0.53933216  0.75144898  0.49610968  1
  H  H156  1  0.45170235  0.57896378  0.50714341  1
  H  H157  1  0.68171613  0.24317095  0.99746664  1
  H  H158  1  0.04723001  0.75141087  0.49453748  1
  H  H159  1  0.81876147  0.42001977  0.00167897  1
  H  H160  1  0.60676350  0.58409975  0.48738448  1
  H  H161  1  0.71169703  0.25382280  0.48900983  1
  H  H162  1  0.54023344  0.91374061  0.50689935  1
  H  H163  1  0.28737720  0.07981020  0.50551596  1
  H  H164  1  0.41310728  0.41775197  0.50234947  1
  H  H165  1  0.17529110  0.25394211  0.50308024  1
  H  H166  1  0.57519063  0.41980492  0.99782301  1
  H  H167  1  0.16638557  0.41636326  0.00062032  1
  H  H168  1  0.96488700  0.74536274  1.00560732  1
  H  H169  1  0.46106109  0.59397262  -0.00710991  1
  H  H170  1  0.30459945  0.74659048  -0.00450139  1
  H  H171  1  0.91088194  0.41426327  0.50054179  1
  H  H172  1  0.05338584  0.08565624  1.00310465  1
  H  H173  1  0.71415151  0.75066229  0.50550155  1
  H  H174  1  0.08860061  0.08661379  0.50287030  1
  H  H175  1  0.53943877  0.25169076  0.50655824  1
  H  H176  1  0.53703450  0.24772051  -0.00795822  1
  H  H177  1  0.91054293  0.92046384  0.00468042  1
  H  H178  1  0.28106653  0.58286640  0.49242777  1
  H  H179  1  0.14775532  0.25124700  0.99473397  1
  H  H180  1  0.11989628  0.74658905  0.98679069  1
  H  H181  1  0.59750119  0.74691261  -0.00625068  1
  H  H182  1  0.55514639  0.07910539  1.00784757  1
  H  H183  1  0.30491586  0.58111849  1.00673783  1
  H  H184  1  0.33982463  0.25098467  0.50161403  1
  H  H185  1  0.69941965  0.07802997  -0.00160746  1
  H  H186  1  0.78152985  0.75100065  -0.00656689  1
  H  H187  1  0.90875997  0.91667786  0.49706402  1
  H  H188  1  0.96246406  0.25108517  -0.01065754  1
  H  H189  1  0.83451627  0.24949624  0.99502472  1
  H  H190  1  0.19811028  0.08540817  -0.00479830  1
  H  H191  1  0.28847503  0.91640219  1.00483035  1
  Pb  Pb192  1  0.24563140  0.05062509  0.74693000  1
  Pb  Pb193  1  0.24767706  0.38124018  0.75263750  1
  Pb  Pb194  1  0.24859780  0.71284699  0.74397164  1
  Pb  Pb195  1  0.75076581  0.04574161  0.75691058  1
  Pb  Pb196  1  0.75139879  0.38329279  0.75295509  1
  Pb  Pb197  1  0.74784895  0.71723396  0.75222644  1
  Pb  Pb198  1  0.24866845  0.28730978  0.25756175  1
  Pb  Pb199  1  0.25268428  0.61943771  0.25050139  1
  Pb  Pb200  1  0.24706594  0.95236762  0.24008946  1
  Pb  Pb201  1  0.74642717  0.28419500  0.24241498  1
  Pb  Pb202  1  0.75380760  0.61966060  0.25360241  1
  Pb  Pb203  1  0.74958274  0.95453530  0.26074601  1
  Pb  Pb204  1  -0.00063703  0.21377770  0.75163899  1
  Pb  Pb205  1  -0.00463183  0.54703328  0.74604115  1
  Pb  Pb206  1  0.00255506  0.88037175  0.74482817  1
  Pb  Pb207  1  0.50506404  0.21682621  0.74777446  1
  Pb  Pb208  1  0.49662559  0.54849837  0.74957025  1
  Pb  Pb209  1  0.49571500  0.88371457  0.75254554  1
  Pb  Pb210  1  -0.00083687  0.12043303  0.25099637  1
  Pb  Pb211  1  -0.00034871  0.45141394  0.25354382  1
  Pb  Pb212  1  -0.00117130  0.78567852  0.24568229  1
  Pb  Pb213  1  0.49703255  0.11888885  0.25548786  1
  Pb  Pb214  1  0.50123733  0.45288482  0.25106887  1
  Pb  Pb215  1  0.50292610  0.78620746  0.25779766  1
  C  C216  1  0.00451060  0.04451032  0.62638104  1
  C  C217  1  0.00149530  0.37765786  0.62885280  1
  C  C218  1  -0.00325808  0.71113130  0.63440200  1
  C  C219  1  0.50181093  0.04474129  0.63071385  1
  C  C220  1  0.50159567  0.37961252  0.63119224  1
  C  C221  1  0.49268419  0.71212310  0.63143596  1
  C  C222  1  -0.00274655  0.28910139  0.13295320  1
  C  C223  1  0.00465800  0.61987846  0.13288430  1
  C  C224  1  0.00359453  0.95347471  0.13295719  1
  C  C225  1  0.50331200  0.28910190  0.12889683  1
  C  C226  1  0.50312829  0.62373174  0.12904118  1
  C  C227  1  0.50210940  0.95537942  0.13367343  1
  C  C228  1  -0.00438879  0.04465922  0.86662794  1
  C  C229  1  0.00104335  0.37925017  0.86606062  1
  C  C230  1  0.00642550  0.70672676  0.86906799  1
  C  C231  1  0.49351734  0.04770484  0.86796066  1
  C  C232  1  0.49817240  0.37926003  0.86766572  1
  C  C233  1  0.50323400  0.71175892  0.86626043  1
  C  C234  1  -0.01051778  0.28738958  0.37328193  1
  C  C235  1  0.00771255  0.62010508  0.37021348  1
  C  C236  1  -0.00736403  0.95698456  0.37280626  1
  C  C237  1  0.49721732  0.28984023  0.36974988  1
  C  C238  1  0.50608276  0.61941302  0.36844797  1
  C  C239  1  0.49518467  0.95382365  0.36590792  1
  C  C240  1  0.25689814  0.21349241  0.63327635  1
  C  C241  1  0.24552815  0.54177919  0.62930174  1
  C  C242  1  0.25125003  0.87848583  0.63422195  1
  C  C243  1  0.75639085  0.21154980  0.62924527  1
  C  C244  1  0.74598714  0.54460729  0.62882122  1
  C  C245  1  0.75166609  0.87965506  0.63226703  1
  C  C246  1  0.25486062  0.12320382  0.13275737  1
  C  C247  1  0.25199645  0.45529511  0.13032323  1
  C  C248  1  0.24968539  0.78750812  0.13430812  1
  C  C249  1  0.75337385  0.12069817  0.13121501  1
  C  C250  1  0.75518002  0.45619628  0.13246367  1
  C  C251  1  0.74969836  0.79078797  0.13149591  1
  C  C252  1  0.25432679  0.21304331  0.87200446  1
  C  C253  1  0.24366910  0.54525154  0.86790188  1
  C  C254  1  0.25357436  0.87670472  0.86722805  1
  C  C255  1  0.74902169  0.21001657  0.86615584  1
  C  C256  1  0.74567416  0.54683288  0.86828712  1
  C  C257  1  0.74576010  0.87940667  0.86892356  1
  C  C258  1  0.24172433  0.12080601  0.36627412  1
  C  C259  1  0.24784561  0.45391407  0.36703931  1
  C  C260  1  0.25319455  0.79086137  0.36928758  1
  C  C261  1  0.74786849  0.12063340  0.37192452  1
  C  C262  1  0.74776586  0.45466133  0.36889633  1
  C  C263  1  0.75095529  0.78927281  0.36766445  1
  C  C264  1  0.93431400  0.25997084  0.46160446  1
  C  C265  1  0.01687771  0.73840017  0.53705617  1
  C  C266  1  0.20790010  0.42728461  0.03772651  1
  C  C267  1  0.47168699  0.73745774  0.96186921  1
  C  C268  1  0.68893942  0.09435348  0.46009571  1
  C  C269  1  0.98814872  0.26251204  0.03413547  1
  C  C270  1  0.44018701  0.07116847  0.95803913  1
  C  C271  1  0.29814157  0.24103170  0.53988128  1
  C  C272  1  0.43075016  0.92840833  0.45141245  1
  C  C273  1  0.48210970  0.59025565  0.46406335  1
  C  C274  1  0.43432033  0.26113243  0.45516120  1
  C  C275  1  0.02850723  0.92012276  0.46413790  1
  C  C276  1  0.72072683  0.42075484  0.46161785  1
  C  C277  1  0.96851252  0.08107332  0.53485234  1
  C  C278  1  0.55305639  0.73711916  0.95797439  1
  C  C279  1  0.95422067  0.40442850  0.53682941  1
  C  C280  1  0.52112257  0.07094749  0.96561451  1
  C  C281  1  0.93602564  0.73330461  0.54634989  1
  C  C282  1  0.23021088  0.09545376  0.03791185  1
  C  C283  1  0.28940244  0.42733652  0.03667724  1
  C  C284  1  0.27255120  0.75930244  0.03735920  1
  C  C285  1  0.53596433  0.40862813  0.95929785  1
  C  C286  1  0.02108083  0.07355180  0.96102734  1
  C  C287  1  0.03568130  0.40460812  0.53418021  1
  C  C288  1  0.07006523  0.73686572  0.95270102  1
  C  C289  1  0.72288391  0.91297075  0.96238665  1
  C  C290  1  0.95443811  0.92883007  0.04113114  1
  C  C291  1  0.51136645  0.92570082  0.46339102  1
  C  C292  1  0.19695703  0.24074955  0.96052286  1
  C  C293  1  0.25840153  0.09190230  0.46189927  1
  C  C294  1  0.76963227  0.09092336  0.46779359  1
  C  C295  1  0.56504221  0.07468389  0.54628788  1
  C  C296  1  0.27117115  0.57054425  0.96499781  1
  C  C297  1  0.79499877  0.23966960  0.95634642  1
  C  C298  1  0.48264435  0.92639157  0.03847332  1
  C  C299  1  0.76733195  0.57682728  0.53443546  1
  C  C300  1  0.03642931  0.92680004  0.03747210  1
  C  C301  1  0.45581917  0.40737817  0.53900191  1
  C  C302  1  0.80869670  0.08936064  0.04335642  1
  C  C303  1  0.53742808  0.40839399  0.53742904  1
  C  C304  1  0.06695755  0.26676054  0.04925142  1
  C  C305  1  0.19024962  0.56808906  0.95805975  1
  C  C306  1  0.74047268  0.24091600  0.53224794  1
  C  C307  1  0.19180189  0.76235146  0.04599627  1
  C  C308  1  0.82070236  0.23617235  0.54368622  1
  C  C309  1  0.21605855  0.24165405  0.54028033  1
  C  C310  1  0.27785635  0.24271596  0.96740964  1
  C  C311  1  0.01507594  0.25876792  0.46823468  1
  N  N312  1  0.81413536  0.76032579  0.45171466  1
  N  N313  1  0.29780415  0.42759712  0.45746740  1
  N  N314  1  0.30914144  0.09563640  0.04319872  1
  N  N315  1  0.79802649  0.42251762  0.45836218  1
  N  N316  1  0.18012033  0.09486190  0.45314757  1
  N  N317  1  0.99163992  0.74077670  0.96258889  1
  N  N318  1  0.03401488  0.40735428  0.96044749  1
  N  N319  1  0.56231232  0.60139149  0.04297188  1
  N  N320  1  0.51238356  0.25863502  0.46426488  1
  N  N321  1  0.22398666  0.90689920  0.53901811  1
  N  N322  1  0.26531698  0.90853014  0.96087102  1
  N  N323  1  0.45669485  0.40875963  0.96060775  1
  N  N324  1  0.04793907  0.59195928  0.46011291  1
  N  N325  1  0.69027202  0.57424141  0.54059427  1
  N  N326  1  0.77072052  0.57366074  0.96435824  1
  N  N327  1  0.73745833  0.75740674  0.46114797  1
  N  N328  1  0.69457584  0.57078183  0.95870667  1
  N  N329  1  0.97005759  0.59160463  0.46361371  1
  N  N330  1  0.68308977  0.76150120  0.04910522  1
  N  N331  1  0.30903729  0.75885917  0.45579441  1
  N  N332  1  0.51235747  0.74351685  0.53864498  1
  N  N333  1  0.43814828  0.25890311  0.04596056  1
  N  N334  1  0.18055898  0.57109126  0.54596769  1
  N  N335  1  0.43489389  0.74122045  0.54466435  1
  N  N336  1  0.94969098  0.92422451  0.46165884  1
  N  N337  1  0.04719225  0.07807650  0.53777660  1
  N  N338  1  0.95731437  0.40639271  0.95827113  1
  N  N339  1  0.81710274  0.90672301  0.54828604  1
  N  N340  1  0.51486296  0.25508886  0.03626596  1
  N  N341  1  0.18851102  0.90480971  0.95106385  1
  N  N342  1  0.79993358  0.91042372  0.95754251  1
  N  N343  1  0.04195084  0.59150011  0.03951941  1
  N  N344  1  0.48494959  0.58857702  0.03649368  1
  N  N345  1  0.48733556  0.07743247  0.53655112  1
  N  N346  1  0.56077594  0.59055187  0.45490892  1
  N  N347  1  0.70700254  0.42669099  0.04221786  1
  N  N348  1  0.29987335  0.90509059  0.54385636  1
  N  N349  1  0.56122901  0.92857874  0.04570701  1
  N  N350  1  0.78528788  0.42538989  0.04114880  1
  N  N351  1  0.74045490  0.91147674  0.53865962  1
  N  N352  1  0.94209443  0.07210605  0.95646656  1
  N  N353  1  0.96577741  0.59182497  0.03985678  1
  N  N354  1  0.23146437  0.75849462  0.46139154  1
  N  N355  1  0.75946876  0.75777397  0.03815819  1
  N  N356  1  0.71538114  0.24164992  0.95778114  1
  N  N357  1  0.22188397  0.42582588  0.46276763  1
  N  N358  1  0.25749765  0.57576607  0.53644505  1
  N  N359  1  0.73029199  0.08840532  0.03806559  1
  N  N360  1  0.07029071  0.05460723  0.59384332  1
  N  N361  1  0.06411031  0.38846431  0.58964748  1
  N  N362  1  0.05329221  0.72444204  0.59240767  1
  N  N363  1  0.57451382  0.05578422  0.60498729  1
  N  N364  1  0.56476648  0.39187722  0.59305099  1
  N  N365  1  0.54915544  0.72381617  0.59018300  1
  N  N366  1  0.43146834  0.27860242  0.10414008  1
  N  N367  1  0.44771317  0.61271506  0.08643038  1
  N  N368  1  0.44481121  0.94261069  0.09201353  1
  N  N369  1  0.94509844  0.27659152  0.08789351  1
  N  N370  1  0.94113221  0.60896723  0.09774686  1
  N  N371  1  0.93570521  0.94488157  0.10069021  1
  N  N372  1  0.42392021  0.05743300  0.89912440  1
  N  N373  1  0.43495183  0.39044865  0.90323302  1
  N  N374  1  0.44189948  0.72240270  0.90656937  1
  N  N375  1  0.92809135  0.05411966  0.89764478  1
  N  N376  1  0.93590402  0.38932458  0.89967723  1
  N  N377  1  0.95217652  0.71897153  0.91207406  1
  N  N378  1  0.04836597  0.27532364  0.41442927  1
  N  N379  1  0.07254083  0.60991646  0.40391645  1
  N  N380  1  0.05530097  0.94017086  0.40919179  1
  N  N381  1  0.55208853  0.27893639  0.41243827  1
  N  N382  1  0.57520559  0.60889336  0.39620515  1
  N  N383  1  0.55011151  0.94174885  0.40964827  1
  N  N384  1  0.32197477  0.22376321  0.59827423  1
  N  N385  1  0.29837790  0.55518635  0.58581703  1
  N  N386  1  0.31850377  0.88799079  0.60277964  1
  N  N387  1  0.82918716  0.21851297  0.60339843  1
  N  N388  1  0.80366965  0.55912197  0.58738522  1
  N  N389  1  0.82343929  0.88845898  0.60700132  1
  N  N390  1  0.19519833  0.11172559  0.09264641  1
  N  N391  1  0.18588219  0.44468196  0.09717102  1
  N  N392  1  0.17823340  0.77897430  0.10479869  1
  N  N393  1  0.69479124  0.10924960  0.09162093  1
  N  N394  1  0.68922269  0.44356855  0.10019111  1
  N  N395  1  0.67743458  0.78009534  0.10773868  1
  N  N396  1  0.18396694  0.22211782  0.89986082  1
  N  N397  1  0.17400370  0.55325805  0.89946059  1
  N  N398  1  0.18198858  0.88707690  0.89236055  1
  N  N399  1  0.68709561  0.21982823  0.90315608  1
  N  N400  1  0.67761026  0.55408512  0.89916453  1
  N  N401  1  0.68703556  0.89416337  0.90950193  1
  N  N402  1  0.29741992  0.10744602  0.40890454  1
  N  N403  1  0.31526631  0.44487571  0.39814640  1
  N  N404  1  0.32183966  0.77716022  0.39758611  1
  N  N405  1  0.80495647  0.10687411  0.41473623  1
  N  N406  1  0.81506132  0.44407072  0.39933838  1
  N  N407  1  0.82226380  0.77841675  0.39303321  1
  N  N408  1  0.42478891  0.27903246  0.39610451  1
  N  N409  1  0.44769313  0.60757603  0.41025608  1
  N  N410  1  0.42236136  0.94577041  0.39100423  1
  N  N411  1  0.91927202  0.27764273  0.40190397  1
  N  N412  1  0.94550205  0.60851871  0.40727443  1
  N  N413  1  0.92694540  0.94810926  0.40582211  1
  N  N414  1  0.05554202  0.05698335  0.90622586  1
  N  N415  1  0.06216644  0.39050277  0.90376889  1
  N  N416  1  0.07901346  0.71756207  0.89403634  1
  N  N417  1  0.55344560  0.05630915  0.90802892  1
  N  N418  1  0.56304963  0.39119271  0.90243640  1
  N  N419  1  0.57143749  0.72111927  0.89726402  1
  N  N420  1  0.07215021  0.28243565  0.10895560  1
  N  N421  1  0.06777083  0.60897525  0.09704431  1
  N  N422  1  0.06553643  0.94214383  0.09499917  1
  N  N423  1  0.55644706  0.27601690  0.08535885  1
  N  N424  1  0.57366538  0.61326648  0.10306848  1
  N  N425  1  0.57146981  0.94624900  0.10507533  1
  N  N426  1  0.44740820  0.05624509  0.58784111  1
  N  N427  1  0.43488462  0.38940070  0.59851930  1
  N  N428  1  0.42321547  0.72308025  0.60299016  1
  N  N429  1  0.94168841  0.06035467  0.58966890  1
  N  N430  1  0.93430367  0.38762140  0.59681564  1
  N  N431  1  0.92492812  0.71666176  0.60668153  1
  N  N432  1  0.17143836  0.11276290  0.39335854  1
  N  N433  1  0.18943744  0.44202159  0.40706007  1
  N  N434  1  0.19578480  0.78003918  0.40999836  1
  N  N435  1  0.67674335  0.11253147  0.39903764  1
  N  N436  1  0.68753157  0.43996370  0.40795218  1
  N  N437  1  0.69745976  0.77813367  0.41154353  1
  N  N438  1  0.31252283  0.22600082  0.91425513  1
  N  N439  1  0.30357493  0.55612468  0.90744989  1
  N  N440  1  0.30644388  0.88869785  0.91122562  1
  N  N441  1  0.81609832  0.22173682  0.89908501  1
  N  N442  1  0.80367824  0.55867927  0.90853380  1
  N  N443  1  0.81433414  0.88973301  0.89766149  1
  N  N444  1  0.32266488  0.11300281  0.10231395  1
  N  N445  1  0.31601575  0.44419627  0.09245635  1
  N  N446  1  0.30760445  0.77539876  0.09365039  1
  N  N447  1  0.82339655  0.10915880  0.10102270  1
  N  N448  1  0.81610689  0.44587842  0.09467881  1
  N  N449  1  0.80155610  0.77841681  0.08687575  1
  N  N450  1  0.19194720  0.22454255  0.59843853  1
  N  N451  1  0.17393465  0.55234370  0.60460628  1
  N  N452  1  0.19238390  0.89017199  0.59475868  1
  N  N453  1  0.70125582  0.22530437  0.58669488  1
  N  N454  1  0.67672185  0.55392207  0.60071729  1
  N  N455  1  0.69907055  0.89279851  0.58851679  1
  Cl  Cl456  1  0.26075116  0.06007464  0.61025238  1
  Cl  Cl457  1  0.24693384  0.38876130  0.62466058  1
  Cl  Cl458  1  0.23649886  0.72367896  0.60684112  1
  Cl  Cl459  1  0.75793285  0.05057564  0.62539425  1
  Cl  Cl460  1  0.74738697  0.38730229  0.62524537  1
  Cl  Cl461  1  0.72926936  0.73075270  0.60290150  1
  Cl  Cl462  1  0.25247456  0.28638857  0.12892498  1
  Cl  Cl463  1  0.26294199  0.60760194  0.11607962  1
  Cl  Cl464  1  0.25925813  0.93969183  0.10084295  1
  Cl  Cl465  1  0.74337182  0.27011706  0.09923952  1
  Cl  Cl466  1  0.75661718  0.61847662  0.12146838  1
  Cl  Cl467  1  0.75357165  0.95369558  0.13045437  1
  Cl  Cl468  1  0.23895191  0.05358635  0.88164534  1
  Cl  Cl469  1  0.24722111  0.38793075  0.88869720  1
  Cl  Cl470  1  0.26153978  0.72241277  0.87605677  1
  Cl  Cl471  1  0.73825037  0.05627965  0.89407918  1
  Cl  Cl472  1  0.75197354  0.38800153  0.88983054  1
  Cl  Cl473  1  0.76976012  0.73323022  0.89556795  1
  Cl  Cl474  1  0.23613223  0.27767963  0.39096802  1
  Cl  Cl475  1  0.26039365  0.60782237  0.39567012  1
  Cl  Cl476  1  0.23627326  0.94503263  0.37016118  1
  Cl  Cl477  1  0.73260659  0.27705048  0.37734483  1
  Cl  Cl478  1  0.75976084  0.61265071  0.38874202  1
  Cl  Cl479  1  0.73698447  0.94208046  0.40058986  1
  Cl  Cl480  1  0.01042479  0.21308400  0.62099311  1
  Cl  Cl481  1  -0.00996267  0.55180815  0.61259965  1
  Cl  Cl482  1  0.00775610  0.89428986  0.60958588  1
  Cl  Cl483  1  0.51440622  0.22596706  0.60771514  1
  Cl  Cl484  1  0.48418355  0.55775815  0.61253429  1
  Cl  Cl485  1  0.51365654  0.88951800  0.61619954  1
  Cl  Cl486  1  0.01055962  0.11245460  0.11748813  1
  Cl  Cl487  1  -0.00161683  0.44326305  0.12250351  1
  Cl  Cl488  1  -0.01722171  0.76854914  0.10534356  1
  Cl  Cl489  1  0.51160420  0.11062191  0.12158412  1
  Cl  Cl490  1  0.50429403  0.45020953  0.11799060  1
  Cl  Cl491  1  0.49198148  0.78093644  0.12744645  1
  Cl  Cl492  1  -0.00233607  0.21810599  0.88462999  1
  Cl  Cl493  1  -0.01225182  0.55676214  0.87734974  1
  Cl  Cl494  1  -0.00271348  0.88209149  0.87656554  1
  Cl  Cl495  1  0.50396748  0.22689574  0.89300809  1
  Cl  Cl496  1  0.49080808  0.56327152  0.88849094  1
  Cl  Cl497  1  0.49029554  0.89108471  0.88964586  1
  Cl  Cl498  1  -0.01227332  0.10896524  0.38592921  1
  Cl  Cl499  1  0.00361496  0.44368355  0.38877768  1
  Cl  Cl500  1  0.01357518  0.78174931  0.38055169  1
  Cl  Cl501  1  0.48105241  0.10976962  0.39747698  1
  Cl  Cl502  1  0.50093516  0.44480707  0.38576749  1
  Cl  Cl503  1  0.51703039  0.77000780  0.39817852  1
  Cl  Cl504  1  0.36043635  0.14730306  0.75591966  1
  Cl  Cl505  1  0.35825058  0.48298778  0.75257940  1
  Cl  Cl506  1  0.36225431  0.81347659  0.73796694  1
  Cl  Cl507  1  0.86194323  0.14679035  0.75315995  1
  Cl  Cl508  1  0.85053852  0.48199777  0.75079164  1
  Cl  Cl509  1  0.86680115  0.81094149  0.73733181  1
  Cl  Cl510  1  0.14039132  0.18441949  0.25176725  1
  Cl  Cl511  1  0.13945840  0.51976840  0.25153933  1
  Cl  Cl512  1  0.13294052  0.85373063  0.23407466  1
  Cl  Cl513  1  0.63672644  0.18231725  0.25615188  1
  Cl  Cl514  1  0.63987180  0.51992236  0.24896588  1
  Cl  Cl515  1  0.64147108  0.85157179  0.24811247  1
  Cl  Cl516  1  0.14118431  0.14857476  0.75361168  1
  Cl  Cl517  1  0.13612639  0.48322041  0.75042048  1
  Cl  Cl518  1  0.14199843  0.81603833  0.75532309  1
  Cl  Cl519  1  0.64154359  0.14872608  0.74809991  1
  Cl  Cl520  1  0.62748805  0.47684409  0.74704298  1
  Cl  Cl521  1  0.64448181  0.81393685  0.75359735  1
  Cl  Cl522  1  0.36053324  0.18635379  0.24792008  1
  Cl  Cl523  1  0.36239894  0.51817168  0.25329284  1
  Cl  Cl524  1  0.35739191  0.85221705  0.25868811  1
  Cl  Cl525  1  0.85646493  0.18260992  0.24674972  1
  Cl  Cl526  1  0.85976796  0.51614553  0.25499177  1
  Cl  Cl527  1  0.86220593  0.85351172  0.25796796  1
  Cl  Cl528  1  0.10788033  0.31575312  0.74836995  1
  Cl  Cl529  1  0.10713159  0.64824078  0.75071445  1
  Cl  Cl530  1  0.10802047  0.98374445  0.74811149  1
  Cl  Cl531  1  0.60435540  0.31297036  0.75474745  1
  Cl  Cl532  1  0.61602520  0.64568827  0.75398127  1
  Cl  Cl533  1  0.61268566  0.98152927  0.74802394  1
  Cl  Cl534  1  0.38415686  0.01896791  0.25142016  1
  Cl  Cl535  1  0.38928681  0.35185569  0.25284005  1
  Cl  Cl536  1  0.39181375  0.68481078  0.25836270  1
  Cl  Cl537  1  0.88954628  0.01810209  0.25094300  1
  Cl  Cl538  1  0.88469833  0.35089545  0.25306839  1
  Cl  Cl539  1  0.89484752  0.68272195  0.26013526  1
  Cl  Cl540  1  0.38568008  0.31278608  0.74637707  1
  Cl  Cl541  1  0.39256264  0.65336112  0.74754133  1
  Cl  Cl542  1  0.39353299  0.98022998  0.74826585  1
  Cl  Cl543  1  0.88610232  0.31381712  0.75009056  1
  Cl  Cl544  1  0.88128847  0.64669428  0.74251402  1
  Cl  Cl545  1  0.88868748  0.97874937  0.75249673  1
  Cl  Cl546  1  0.10788367  0.01813146  0.25163058  1
  Cl  Cl547  1  0.10839763  0.34927169  0.25007510  1
  Cl  Cl548  1  0.11566895  0.68781777  0.24722533  1
  Cl  Cl549  1  0.60635574  0.01641193  0.25473100  1
  Cl  Cl550  1  0.61023779  0.35083301  0.24667298  1
  Cl  Cl551  1  0.61220264  0.68634100  0.24676599  1
