# generated using pymatgen
data_H8PbC4(N3Cl2)2
_symmetry_space_group_name_H-M   'P 1'
_cell_length_a   16.62800926
_cell_length_b   22.51222425
_cell_length_c   21.59348451
_cell_angle_alpha   89.99970863
_cell_angle_beta   90.00149738
_cell_angle_gamma   89.99833937
_symmetry_Int_Tables_number   1
_chemical_formula_structural   H8PbC4(N3Cl2)2
_chemical_formula_sum   'H192 Pb24 C96 N144 Cl96'
_cell_volume   8083.16405327
_cell_formula_units_Z   24
loop_
 _symmetry_equiv_pos_site_id
 _symmetry_equiv_pos_as_xyz
  1  'x, y, z'
loop_
 _atom_site_type_symbol
 _atom_site_label
 _atom_site_symmetry_multiplicity
 _atom_site_fract_x
 _atom_site_fract_y
 _atom_site_fract_z
 _atom_site_occupancy
  H  H0  1  0.00909475  0.02794179  0.68118604  1
  H  H1  1  -0.01120977  0.36402578  0.67791788  1
  H  H2  1  -0.00993954  0.69725389  0.68198085  1
  H  H3  1  0.49457962  0.02930814  0.67800308  1
  H  H4  1  0.51033216  0.36518055  0.67727446  1
  H  H5  1  0.51190178  0.69958501  0.68078322  1
  H  H6  1  0.00121355  0.30583378  0.17639579  1
  H  H7  1  -0.00221390  0.63636288  0.18452211  1
  H  H8  1  -0.00338784  0.96884978  0.18044354  1
  H  H9  1  0.49923721  0.30249333  0.17794336  1
  H  H10  1  0.50584100  0.64010332  0.17935827  1
  H  H11  1  0.49275394  0.96731855  0.18016174  1
  H  H12  1  0.01957071  0.03322900  0.82880640  1
  H  H13  1  -0.00220179  0.36328219  0.82125255  1
  H  H14  1  0.00273947  0.69701770  0.82169235  1
  H  H15  1  0.48576542  0.02708753  0.82276968  1
  H  H16  1  0.50371737  0.36330275  0.82164583  1
  H  H17  1  0.49223748  0.69353837  0.82042661  1
  H  H18  1  0.00850078  0.30595269  0.32149496  1
  H  H19  1  -0.00738969  0.63559169  0.32217064  1
  H  H20  1  0.00467397  0.97139617  0.32416617  1
  H  H21  1  0.50383320  0.30189946  0.31886062  1
  H  H22  1  0.50392408  0.63655141  0.31748871  1
  H  H23  1  0.50562424  0.97288633  0.31795887  1
  H  H24  1  0.24074108  0.19251175  0.67856371  1
  H  H25  1  0.25927937  0.53003316  0.67507326  1
  H  H26  1  0.25110738  0.86506046  0.67876095  1
  H  H27  1  0.74425613  0.19335462  0.68022625  1
  H  H28  1  0.74138378  0.53023502  0.68104286  1
  H  H29  1  0.74055931  0.86856420  0.67665978  1
  H  H30  1  0.26115755  0.13485517  0.17836752  1
  H  H31  1  0.24254610  0.47008240  0.17450857  1
  H  H32  1  0.24792231  0.80526552  0.17809362  1
  H  H33  1  0.73818910  0.13742497  0.17809597  1
  H  H34  1  0.74650352  0.47122540  0.17857664  1
  H  H35  1  0.75750652  0.80382454  0.17817881  1
  H  H36  1  0.24007761  0.19746239  0.82513066  1
  H  H37  1  0.23436118  0.52808471  0.82155408  1
  H  H38  1  0.25368304  0.86402983  0.81912475  1
  H  H39  1  0.76275215  0.19635425  0.82187224  1
  H  H40  1  0.76127097  0.53295191  0.81975577  1
  H  H41  1  0.75540815  0.86007436  0.82339721  1
  H  H42  1  0.25470252  0.13579275  0.32061298  1
  H  H43  1  0.24611700  0.47052244  0.32325393  1
  H  H44  1  0.23856247  0.80199060  0.32037016  1
  H  H45  1  0.73502724  0.13274946  0.32491100  1
  H  H46  1  0.74874644  0.46971392  0.31940896  1
  H  H47  1  0.75953300  0.79976477  0.31714139  1
  H  H48  1  0.12297619  0.05512642  0.60079892  1
  H  H49  1  0.11864809  0.38638212  0.61216140  1
  H  H50  1  0.12066515  0.72074505  0.61680704  1
  H  H51  1  0.62131398  0.05341705  0.60888781  1
  H  H52  1  0.61172164  0.39500532  0.59127945  1
  H  H53  1  0.61550883  0.72226884  0.59577249  1
  H  H54  1  0.36739681  0.28189381  0.11482992  1
  H  H55  1  0.37624037  0.61444079  0.11243472  1
  H  H56  1  0.38746159  0.94142168  0.09783433  1
  H  H57  1  0.86569414  0.28113036  0.11767737  1
  H  H58  1  0.87307364  0.61749187  0.11431908  1
  H  H59  1  0.88931560  0.94366585  0.09878493  1
  H  H60  1  0.38163748  0.05910529  0.90761801  1
  H  H61  1  0.37310500  0.38573055  0.88714802  1
  H  H62  1  0.37774339  0.72331087  0.89937397  1
  H  H63  1  0.87665567  0.04889060  0.87376115  1
  H  H64  1  0.87157711  0.38739868  0.89153092  1
  H  H65  1  0.87521642  0.71980783  0.89002719  1
  H  H66  1  0.11602062  0.27602206  0.40384874  1
  H  H67  1  0.13092729  0.61464981  0.37635370  1
  H  H68  1  0.11492625  0.94200008  0.40499030  1
  H  H69  1  0.61566290  0.27263178  0.39907164  1
  H  H70  1  0.62906891  0.61331707  0.38970172  1
  H  H71  1  0.61648879  0.94742828  0.39892544  1
  H  H72  1  0.37771429  0.21610164  0.62302033  1
  H  H73  1  0.36596271  0.55557924  0.59086273  1
  H  H74  1  0.37585593  0.88733638  0.61114422  1
  H  H75  1  0.88081567  0.21827278  0.62638773  1
  H  H76  1  0.87217814  0.55145751  0.61730256  1
  H  H77  1  0.88129616  0.88517688  0.62294060  1
  H  H78  1  0.12245540  0.11532160  0.12100597  1
  H  H79  1  0.13077293  0.43924600  0.09644275  1
  H  H80  1  0.12459431  0.77882707  0.10839134  1
  H  H81  1  0.62153289  0.11062351  0.10154199  1
  H  H82  1  0.62466475  0.44411642  0.10604101  1
  H  H83  1  0.62830925  0.78237586  0.11510149  1
  H  H84  1  0.13972692  0.22800174  0.91171487  1
  H  H85  1  0.12877370  0.55839567  0.90532372  1
  H  H86  1  0.11810798  0.88375521  0.87573949  1
  H  H87  1  0.62868705  0.21830655  0.88073504  1
  H  H88  1  0.62285119  0.54872104  0.87553258  1
  H  H89  1  0.61791992  0.88294850  0.87690908  1
  H  H90  1  0.38026127  0.11164247  0.39170545  1
  H  H91  1  0.37916369  0.44681533  0.38572378  1
  H  H92  1  0.37716761  0.78371237  0.37308094  1
  H  H93  1  0.87533042  0.11786057  0.37440193  1
  H  H94  1  0.88305975  0.44773871  0.38225953  1
  H  H95  1  0.87721687  0.77851882  0.39383625  1
  H  H96  1  0.36832481  0.28096586  0.37662900  1
  H  H97  1  0.38059545  0.61213619  0.39036963  1
  H  H98  1  0.36907320  0.94987849  0.37730165  1
  H  H99  1  0.87040785  0.28167630  0.37529517  1
  H  H100  1  0.88403150  0.60897506  0.40248273  1
  H  H101  1  0.86816698  0.95056403  0.38150605  1
  H  H102  1  0.11775516  0.06184947  0.91726867  1
  H  H103  1  0.12030174  0.38772962  0.89391386  1
  H  H104  1  0.12403304  0.72254849  0.89420642  1
  H  H105  1  0.62646610  0.04853429  0.87285166  1
  H  H106  1  0.62129706  0.38983214  0.89646436  1
  H  H107  1  0.62515498  0.71662761  0.88385322  1
  H  H108  1  0.11276553  0.27570131  0.09575383  1
  H  H109  1  0.12256607  0.61343584  0.11587911  1
  H  H110  1  0.13590626  0.95235972  0.12571485  1
  H  H111  1  0.61611204  0.27880631  0.10380518  1
  H  H112  1  0.62435153  0.61107941  0.10366043  1
  H  H113  1  0.63314823  0.95053569  0.12751872  1
  H  H114  1  0.37214508  0.05554578  0.60718233  1
  H  H115  1  0.36816501  0.38279978  0.62771097  1
  H  H116  1  0.37063613  0.71503307  0.62943754  1
  H  H117  1  0.87537001  0.05101577  0.61783974  1
  H  H118  1  0.86995950  0.39136315  0.60397088  1
  H  H119  1  0.87108931  0.71787257  0.60597769  1
  H  H120  1  0.13133431  0.11296724  0.39422781  1
  H  H121  1  0.13198771  0.44189689  0.40150067  1
  H  H122  1  0.13153650  0.77878130  0.40365508  1
  H  H123  1  0.63192928  0.10624009  0.40987072  1
  H  H124  1  0.63479827  0.44497920  0.39846763  1
  H  H125  1  0.62783686  0.78098921  0.38241893  1
  H  H126  1  0.38296072  0.21512002  0.87517080  1
  H  H127  1  0.37434987  0.54784567  0.87347850  1
  H  H128  1  0.36492191  0.88714771  0.89860434  1
  H  H129  1  0.87525555  0.22381687  0.90244202  1
  H  H130  1  0.86947566  0.55591978  0.90113481  1
  H  H131  1  0.86418675  0.89011466  0.90566245  1
  H  H132  1  0.36821122  0.10707419  0.09369506  1
  H  H133  1  0.37790653  0.44647953  0.11645205  1
  H  H134  1  0.37369219  0.78078159  0.10850366  1
  H  H135  1  0.87022111  0.11531659  0.11359436  1
  H  H136  1  0.87273863  0.44641260  0.10985504  1
  H  H137  1  0.87693920  0.77838942  0.10512781  1
  H  H138  1  0.13323529  0.22472382  0.59609155  1
  H  H139  1  0.12065962  0.55067398  0.62026463  1
  H  H140  1  0.12701954  0.88767471  0.60881724  1
  H  H141  1  0.63471984  0.22098881  0.59721480  1
  H  H142  1  0.62313796  0.55266140  0.60686914  1
  H  H143  1  0.63652372  0.89371023  0.59073893  1
  H  H144  1  0.20369523  0.58205944  1.00490243  1
  H  H145  1  0.81903219  0.76006935  0.50492702  1
  H  H146  1  0.36182566  0.75280786  0.48838798  1
  H  H147  1  0.34518552  0.41921500  0.49387729  1
  H  H148  1  0.29176062  0.08410534  -0.00638250  1
  H  H149  1  0.54793225  0.91947347  0.50397910  1
  H  H150  1  0.95909144  0.91570020  -0.00768101  1
  H  H151  1  0.66316360  0.74786221  0.00354602  1
  H  H152  1  0.20875329  0.24766209  0.49604352  1
  H  H153  1  0.66817944  0.74563210  0.48709668  1
  H  H154  1  0.63659798  0.91485089  0.99150920  1
  H  H155  1  0.30060954  0.91210902  1.00699351  1
  H  H156  1  0.53302034  0.42043451  0.49292691  1
  H  H157  1  0.92165240  0.41368919  0.99653841  1
  H  H158  1  0.56303301  0.25140554  -0.00572808  1
  H  H159  1  0.67653402  0.58448525  0.49820113  1
  H  H160  1  0.29048564  0.59580776  0.49860985  1
  H  H161  1  0.94982995  0.57484450  0.50665210  1
  H  H162  1  0.92851123  0.73584908  0.49465909  1
  H  H163  1  0.79303130  0.91364592  1.00604892  1
  H  H164  1  0.71587393  0.93101535  0.49742503  1
  H  H165  1  0.13790770  0.91406870  0.99032568  1
  H  H166  1  0.20212507  0.75511532  0.51030015  1
  H  H167  1  0.34754198  0.41609271  0.00850934  1
  H  H168  1  0.45846673  0.08076411  1.00682638  1
  H  H169  1  0.54891798  0.24798235  0.50079457  1
  H  H170  1  0.45998588  0.91167706  -0.00766571  1
  H  H171  1  0.08019046  0.74378016  0.50895060  1
  H  H172  1  0.33357258  0.91888801  0.49979850  1
  H  H173  1  0.22265511  0.24414461  1.01047453  1
  H  H174  1  0.61238274  0.08244367  0.98511104  1
  H  H175  1  0.69960162  0.41870595  0.50512044  1
  H  H176  1  0.04110120  0.24864547  -0.00498019  1
  H  H177  1  0.04190019  0.25250874  0.50538630  1
  H  H178  1  0.07806295  0.59160655  0.00249684  1
  H  H179  1  0.70581095  0.24241663  0.49612263  1
  H  H180  1  0.37164179  0.25026211  0.98528022  1
  H  H181  1  0.91899904  0.59939583  0.00022795  1
  H  H182  1  0.39488013  0.24870052  0.48874612  1
  H  H183  1  0.86318444  0.08682515  0.48974810  1
  H  H184  1  0.13997952  0.57639823  0.50931084  1
  H  H185  1  0.67957173  0.41854966  0.00169645  1
  H  H186  1  0.85946225  0.24744025  0.51227100  1
  H  H187  1  0.86328004  0.91117028  0.51180648  1
  H  H188  1  0.80087618  0.58162057  1.00913916  1
  H  H189  1  0.88277035  0.08125150  -0.01138031  1
  H  H190  1  0.54052092  0.74697084  0.48963653  1
  H  H191  1  0.35658849  0.58424063  0.98487905  1
  Pb  Pb192  1  0.24958574  0.04681970  0.75708395  1
  Pb  Pb193  1  0.25154908  0.38187251  0.75507624  1
  Pb  Pb194  1  0.24781932  0.71396878  0.75436219  1
  Pb  Pb195  1  0.74944893  0.04794647  0.74676284  1
  Pb  Pb196  1  0.74776555  0.37998977  0.74777860  1
  Pb  Pb197  1  0.74501690  0.71499332  0.74175454  1
  Pb  Pb198  1  0.24621683  0.28597254  0.25042785  1
  Pb  Pb199  1  0.25767733  0.61687078  0.24726873  1
  Pb  Pb200  1  0.25157722  0.95397664  0.25228159  1
  Pb  Pb201  1  0.75229303  0.28417033  0.25686876  1
  Pb  Pb202  1  0.75035746  0.61988036  0.25289593  1
  Pb  Pb203  1  0.75548694  0.95187143  0.24886575  1
  Pb  Pb204  1  0.00738037  0.21729171  0.75362821  1
  Pb  Pb205  1  -0.00231532  0.54745736  0.75899410  1
  Pb  Pb206  1  -0.00262539  0.88072496  0.75456631  1
  Pb  Pb207  1  0.50167223  0.21296426  0.73909643  1
  Pb  Pb208  1  0.49844555  0.54563404  0.74022061  1
  Pb  Pb209  1  0.49793774  0.88111394  0.74431575  1
  Pb  Pb210  1  0.00265222  0.12016584  0.25280717  1
  Pb  Pb211  1  0.00129471  0.45354747  0.24572933  1
  Pb  Pb212  1  0.00668651  0.78397873  0.25809990  1
  Pb  Pb213  1  0.50220673  0.11952413  0.24609821  1
  Pb  Pb214  1  0.50560892  0.44943719  0.25550922  1
  Pb  Pb215  1  0.50099148  0.78857180  0.24818933  1
  C  C216  1  0.00260228  0.04420104  0.63412061  1
  C  C217  1  -0.00738286  0.38025364  0.63097225  1
  C  C218  1  -0.00567444  0.71271321  0.63437966  1
  C  C219  1  0.49628686  0.04610428  0.63112956  1
  C  C220  1  0.49694592  0.37986652  0.63046858  1
  C  C221  1  0.49929884  0.71218895  0.63325167  1
  C  C222  1  -0.00628179  0.28890132  0.12980087  1
  C  C223  1  -0.00215753  0.62239979  0.13638352  1
  C  C224  1  0.00724181  0.95525779  0.13300783  1
  C  C225  1  0.49441671  0.28797252  0.13015628  1
  C  C226  1  0.50212105  0.62298208  0.13245630  1
  C  C227  1  0.50459776  0.95330460  0.13294973  1
  C  C228  1  0.00376167  0.04816959  0.87491319  1
  C  C229  1  -0.00384064  0.37917631  0.86862257  1
  C  C230  1  0.00039320  0.71289073  0.86891110  1
  C  C231  1  0.49781412  0.04339108  0.86932451  1
  C  C232  1  0.49899958  0.37902302  0.86871400  1
  C  C233  1  0.49814804  0.71018417  0.86735537  1
  C  C234  1  -0.00151004  0.28992695  0.36827978  1
  C  C235  1  0.00231596  0.61950035  0.36892353  1
  C  C236  1  -0.00403336  0.95483602  0.37069395  1
  C  C237  1  0.49610200  0.28678894  0.36628590  1
  C  C238  1  0.50454633  0.62102874  0.36512193  1
  C  C239  1  0.49676364  0.95733336  0.36505807  1
  C  C240  1  0.25039087  0.20959821  0.63223116  1
  C  C241  1  0.24835458  0.54550600  0.62803415  1
  C  C242  1  0.25188423  0.88035166  0.63120699  1
  C  C243  1  0.75313401  0.20933649  0.63320272  1
  C  C244  1  0.74523587  0.54525295  0.63349788  1
  C  C245  1  0.75322566  0.88221997  0.62921564  1
  C  C246  1  0.25098590  0.11997153  0.13122674  1
  C  C247  1  0.25093113  0.45294427  0.12805379  1
  C  C248  1  0.24898451  0.78830404  0.13128024  1
  C  C249  1  0.74349984  0.12160828  0.13113645  1
  C  C250  1  0.74768561  0.45486100  0.13136088  1
  C  C251  1  0.75358594  0.78810574  0.13083860  1
  C  C252  1  0.25467890  0.21319696  0.87151916  1
  C  C253  1  0.24564277  0.54394692  0.86839829  1
  C  C254  1  0.24506288  0.87844026  0.86669678  1
  C  C255  1  0.75587864  0.21242320  0.86873187  1
  C  C256  1  0.75130179  0.54607927  0.86736667  1
  C  C257  1  0.74595115  0.87652439  0.87023594  1
  C  C258  1  0.25546981  0.12036176  0.36817878  1
  C  C259  1  0.25300112  0.45388823  0.37009587  1
  C  C260  1  0.24969623  0.78813662  0.36783417  1
  C  C261  1  0.74846720  0.11879868  0.37178090  1
  C  C262  1  0.75575771  0.45440665  0.36673747  1
  C  C263  1  0.75432721  0.78567369  0.36513952  1
  C  C264  1  0.95720178  0.60315421  0.04093326  1
  C  C265  1  0.52443890  0.26219989  0.03379881  1
  C  C266  1  0.03422490  0.74248685  0.96167009  1
  C  C267  1  0.71457178  0.09258426  0.03673261  1
  C  C268  1  0.96206041  0.41020371  0.53790012  1
  C  C269  1  0.70417148  0.24178449  0.95670068  1
  C  C270  1  0.71332914  0.57313996  0.53802388  1
  C  C271  1  0.42963975  0.40650063  0.54655582  1
  C  C272  1  0.98927864  0.92801544  0.03522775  1
  C  C273  1  0.69081656  0.56917019  0.95474955  1
  C  C274  1  0.18733760  0.90324619  0.95563374  1
  C  C275  1  0.77096822  0.57141534  0.96554104  1
  C  C276  1  0.06320890  0.59083756  0.45487625  1
  C  C277  1  0.30848603  0.57461936  0.95207809  1
  C  C278  1  0.94234876  0.92506004  0.45765911  1
  C  C279  1  0.29270334  0.90816698  0.53750533  1
  C  C280  1  0.01433866  0.07729767  0.97236401  1
  C  C281  1  0.43974458  0.25810313  0.45342582  1
  C  C282  1  0.23107228  0.76339006  0.46589240  1
  C  C283  1  0.46111713  0.07819249  0.53963201  1
  C  C284  1  0.22435461  0.41897039  0.03341662  1
  C  C285  1  0.44252696  0.26438332  0.03853262  1
  C  C286  1  0.52928911  0.40874357  0.96285984  1
  C  C287  1  0.56898152  0.92902141  0.04698280  1
  C  C288  1  0.93489780  0.07315049  0.95903883  1
  C  C289  1  0.81292447  0.09451767  0.45817254  1
  C  C290  1  0.78670025  0.76421807  0.46141695  1
  C  C291  1  0.26873326  0.90329221  0.96398844  1
  C  C292  1  0.43346833  0.73412072  0.54738985  1
  C  C293  1  0.93711276  0.26074040  0.45392865  1
  C  C294  1  0.48896571  0.92500664  0.03531670  1
  C  C295  1  0.56240910  0.07314131  0.95266106  1
  C  C296  1  0.70683921  0.75898376  0.03927585  1
  C  C297  1  0.21139600  0.90780686  0.53840026  1
  C  C298  1  0.98267501  0.58825372  0.46526073  1
  C  C299  1  0.51759981  0.92998322  0.46058700  1
  C  C300  1  0.68543313  0.90531223  0.95612984  1
  C  C301  1  0.81241123  0.23839997  0.54725477  1
  C  C302  1  0.06956112  0.93134980  0.04596517  1
  C  C303  1  0.31187998  0.76350647  0.45494388  1
  C  C304  1  0.03910427  0.60058398  0.04177147  1
  C  C305  1  0.73272893  0.09066001  0.46901619  1
  C  C306  1  0.79472257  0.57205556  0.54288591  1
  C  C307  1  0.96085616  0.73436013  0.53838433  1
  C  C308  1  0.78827923  0.75847958  0.03729077  1
  C  C309  1  0.73149125  0.42815166  0.46214762  1
  C  C310  1  0.21266575  0.75741380  0.03972775  1
  C  C311  1  0.51312727  0.73660081  0.53423918  1
  N  N312  1  0.45740788  0.59245684  0.04188338  1
  N  N313  1  0.03674409  0.40598170  0.96194458  1
  N  N314  1  0.21868643  0.09273958  0.46178703  1
  N  N315  1  0.47185242  0.74201828  0.96175185  1
  N  N316  1  0.46712758  0.59457180  0.45910066  1
  N  N317  1  0.78098886  0.24373953  0.96478203  1
  N  N318  1  0.51872338  0.25517826  0.45981441  1
  N  N319  1  0.45157382  0.40713743  0.96072608  1
  N  N320  1  0.24341790  0.24707649  0.96509445  1
  N  N321  1  0.81037129  0.42819165  0.45657089  1
  N  N322  1  0.54370990  0.59503510  0.45887656  1
  N  N323  1  0.26670728  0.09227978  0.03678240  1
  N  N324  1  0.93667343  0.25815908  0.04359063  1
  N  N325  1  0.01926832  0.92190908  0.46632854  1
  N  N326  1  0.50725892  0.40986474  0.53505728  1
  N  N327  1  0.81515218  0.90942218  0.54589513  1
  N  N328  1  0.95865666  0.40617192  0.95949038  1
  N  N329  1  0.03966901  0.73942499  0.54419452  1
  N  N330  1  0.95698017  0.74148788  0.96185792  1
  N  N331  1  0.53847828  0.07770976  0.53893728  1
  N  N332  1  0.73359657  0.23962620  0.53872092  1
  N  N333  1  0.02808187  0.07551314  0.53953682  1
  N  N334  1  0.22992614  0.57802412  0.96201406  1
  N  N335  1  0.54777460  0.73921527  0.95697618  1
  N  N336  1  0.31129794  0.23889786  0.54710112  1
  N  N337  1  0.71475515  0.42526943  0.04007634  1
  N  N338  1  0.73803184  0.90412016  0.53218270  1
  N  N339  1  0.95241840  0.07483534  0.54568580  1
  N  N340  1  0.22358839  0.42452726  0.46480224  1
  N  N341  1  0.29003840  0.75792559  0.03855469  1
  N  N342  1  0.48397425  0.07658106  0.96340075  1
  N  N343  1  0.30283206  0.42279038  0.04095060  1
  N  N344  1  0.53344507  0.59064115  0.03921040  1
  N  N345  1  0.43900589  0.93027289  0.45329541  1
  N  N346  1  0.32009805  0.23527924  0.95514351  1
  N  N347  1  0.79310809  0.42722632  0.03973380  1
  N  N348  1  0.01406549  0.25647024  0.03759122  1
  N  N349  1  0.70736007  0.76457950  0.45648032  1
  N  N350  1  0.01502895  0.25907473  0.46291086  1
  N  N351  1  0.79204146  0.09338286  0.04001166  1
  N  N352  1  0.76444060  0.90854551  0.96411304  1
  N  N353  1  0.18872495  0.57483674  0.54420196  1
  N  N354  1  0.03925842  0.40850027  0.53908103  1
  N  N355  1  0.23410393  0.24255966  0.53941611  1
  N  N356  1  0.29494654  0.09279188  0.46115819  1
  N  N357  1  0.26602969  0.56791937  0.53132015  1
  N  N358  1  0.18955658  0.09536474  0.04461415  1
  N  N359  1  0.30129671  0.42619849  0.45817050  1
  N  N360  1  0.06089991  0.05588979  0.59399982  1
  N  N361  1  0.05859209  0.38992784  0.59842508  1
  N  N362  1  0.06038799  0.72520902  0.60309510  1
  N  N363  1  0.56063856  0.05765628  0.59736731  1
  N  N364  1  0.54949458  0.39155429  0.58636446  1
  N  N365  1  0.55348547  0.72274046  0.58910428  1
  N  N366  1  0.42544148  0.27974783  0.09772428  1
  N  N367  1  0.43634416  0.61256619  0.09966824  1
  N  N368  1  0.44954221  0.94091086  0.09004930  1
  N  N369  1  0.92432438  0.27683637  0.10163677  1
  N  N370  1  0.93281720  0.61618730  0.10010091  1
  N  N371  1  0.95132480  0.94331984  0.09068396  1
  N  N372  1  0.44414261  0.05451459  0.91315296  1
  N  N373  1  0.43283789  0.38839897  0.90088207  1
  N  N374  1  0.43956835  0.72418629  0.90635296  1
  N  N375  1  0.93000038  0.05522141  0.89761170  1
  N  N376  1  0.93218766  0.38886252  0.90355197  1
  N  N377  1  0.93553439  0.72278180  0.90267804  1
  N  N378  1  0.05394311  0.28012577  0.41082770  1
  N  N379  1  0.07453455  0.60949085  0.39623652  1
  N  N380  1  0.05248797  0.94119312  0.41115363  1
  N  N381  1  0.55350727  0.27584130  0.40707620  1
  N  N382  1  0.56806260  0.61078508  0.40054401  1
  N  N383  1  0.55447083  0.94612686  0.40673584  1
  N  N384  1  0.32077118  0.22090484  0.60569467  1
  N  N385  1  0.30360548  0.56013162  0.58649235  1
  N  N386  1  0.31693143  0.89092031  0.59666901  1
  N  N387  1  0.82454644  0.22149742  0.60647021  1
  N  N388  1  0.81346916  0.55549618  0.60062395  1
  N  N389  1  0.82466714  0.88695848  0.60270229  1
  N  N390  1  0.18031064  0.11098009  0.10382221  1
  N  N391  1  0.19193061  0.43744708  0.08731129  1
  N  N392  1  0.18465496  0.77551306  0.09559728  1
  N  N393  1  0.68250010  0.10912129  0.09202424  1
  N  N394  1  0.68565026  0.44426239  0.09472493  1
  N  N395  1  0.68654860  0.77762179  0.09884317  1
  N  N396  1  0.20241930  0.22396807  0.91659847  1
  N  N397  1  0.19119476  0.55571269  0.91134749  1
  N  N398  1  0.17461615  0.88790892  0.89492563  1
  N  N399  1  0.68616074  0.22321492  0.89853070  1
  N  N400  1  0.67936799  0.55411876  0.89559149  1
  N  N401  1  0.67415597  0.88712698  0.89705463  1
  N  N402  1  0.31941387  0.10992652  0.40316836  1
  N  N403  1  0.32046121  0.44487426  0.40099640  1
  N  N404  1  0.32162627  0.77879476  0.39393143  1
  N  N405  1  0.82106071  0.11168585  0.39669481  1
  N  N406  1  0.82364749  0.44489404  0.39725790  1
  N  N407  1  0.81629841  0.77806088  0.40500168  1
  N  N408  1  0.42538447  0.27674807  0.39506185  1
  N  N409  1  0.44172495  0.61072534  0.40130437  1
  N  N410  1  0.42768433  0.94726799  0.39364150  1
  N  N411  1  0.92639292  0.27841261  0.39500567  1
  N  N412  1  0.94562066  0.60668806  0.41036620  1
  N  N413  1  0.92540449  0.94461602  0.39912542  1
  N  N414  1  0.05600067  0.06219941  0.92165975  1
  N  N415  1  0.05949929  0.39031586  0.90462532  1
  N  N416  1  0.06369933  0.72540645  0.90579306  1
  N  N417  1  0.57064123  0.05431513  0.89375678  1
  N  N418  1  0.56038652  0.39169605  0.90741298  1
  N  N419  1  0.56561539  0.71937141  0.89857510  1
  N  N420  1  0.05074269  0.27744434  0.08873913  1
  N  N421  1  0.06308116  0.61234328  0.10139396  1
  N  N422  1  0.08001490  0.94769186  0.10528229  1
  N  N423  1  0.55535252  0.27686724  0.09201421  1
  N  N424  1  0.56273881  0.60954392  0.09507175  1
  N  N425  1  0.57802434  0.94584324  0.10624948  1
  N  N426  1  0.43231505  0.05906206  0.59498690  1
  N  N427  1  0.42303380  0.38852427  0.60581842  1
  N  N428  1  0.42544629  0.71952244  0.60729245  1
  N  N429  1  0.93493433  0.05646350  0.60440742  1
  N  N430  1  0.93038340  0.39329540  0.59310270  1
  N  N431  1  0.93191367  0.71949092  0.59478694  1
  N  N432  1  0.19267570  0.10944815  0.40419187  1
  N  N433  1  0.19386492  0.44094132  0.40956331  1
  N  N434  1  0.19340082  0.77845017  0.41117221  1
  N  N435  1  0.69375901  0.10548986  0.41705604  1
  N  N436  1  0.69630467  0.44352101  0.40727214  1
  N  N437  1  0.68772225  0.77484866  0.39632282  1
  N  N438  1  0.32707448  0.22302076  0.89487148  1
  N  N439  1  0.31821488  0.55496095  0.89359863  1
  N  N440  1  0.30344993  0.88812573  0.90827611  1
  N  N441  1  0.81365379  0.22479001  0.90875624  1
  N  N442  1  0.80807313  0.55684031  0.90971645  1
  N  N443  1  0.80164022  0.88786553  0.91229176  1
  N  N444  1  0.30593153  0.10919159  0.08835836  1
  N  N445  1  0.31973705  0.44435629  0.09900948  1
  N  N446  1  0.31290920  0.77732499  0.09689446  1
  N  N447  1  0.81018863  0.11174400  0.09987357  1
  N  N448  1  0.81263052  0.44402582  0.09728029  1
  N  N449  1  0.81645077  0.77580561  0.09235410  1
  N  N450  1  0.19556283  0.22159722  0.58975835  1
  N  N451  1  0.17768938  0.55248104  0.60088135  1
  N  N452  1  0.18689423  0.89106019  0.59477438  1
  N  N453  1  0.69720669  0.21840318  0.59066195  1
  N  N454  1  0.68352195  0.55639014  0.59567373  1
  N  N455  1  0.69932490  0.89676502  0.58664891  1
  Cl  Cl456  1  0.24519066  0.05367872  0.62515170  1
  Cl  Cl457  1  0.24240179  0.38442782  0.62344413  1
  Cl  Cl458  1  0.24059268  0.71808715  0.61867423  1
  Cl  Cl459  1  0.74675308  0.05003463  0.61309961  1
  Cl  Cl460  1  0.73590691  0.39125959  0.61182806  1
  Cl  Cl461  1  0.74326859  0.72488126  0.60353484  1
  Cl  Cl462  1  0.23523664  0.27191626  0.10651909  1
  Cl  Cl463  1  0.24851047  0.60602591  0.10947302  1
  Cl  Cl464  1  0.26643324  0.94548699  0.11785081  1
  Cl  Cl465  1  0.74117078  0.28294066  0.12632841  1
  Cl  Cl466  1  0.74787124  0.61168351  0.11831389  1
  Cl  Cl467  1  0.76711028  0.94140498  0.11262916  1
  Cl  Cl468  1  0.25874785  0.06423632  0.89851813  1
  Cl  Cl469  1  0.24561535  0.38821540  0.89100096  1
  Cl  Cl470  1  0.25134612  0.71989377  0.88536004  1
  Cl  Cl471  1  0.74852488  0.05035855  0.87688850  1
  Cl  Cl472  1  0.74648768  0.38936527  0.88438479  1
  Cl  Cl473  1  0.74941061  0.71954875  0.87442191  1
  Cl  Cl474  1  0.23697707  0.27235304  0.39129334  1
  Cl  Cl475  1  0.25901129  0.60963638  0.38578655  1
  Cl  Cl476  1  0.23877047  0.94326678  0.38508631  1
  Cl  Cl477  1  0.73621312  0.26872029  0.39688294  1
  Cl  Cl478  1  0.75389206  0.61483506  0.38739331  1
  Cl  Cl479  1  0.73946076  0.94598223  0.39161790  1
  Cl  Cl480  1  0.01411707  0.23025870  0.60876677  1
  Cl  Cl481  1  -0.00372105  0.55200207  0.62583246  1
  Cl  Cl482  1  0.00454865  0.88312755  0.62406736  1
  Cl  Cl483  1  0.51361262  0.22756695  0.60128477  1
  Cl  Cl484  1  0.48901076  0.54838472  0.60838775  1
  Cl  Cl485  1  0.51630629  0.89129493  0.60931888  1
  Cl  Cl486  1  -0.00371823  0.11487969  0.11903804  1
  Cl  Cl487  1  -0.00139041  0.44196781  0.11080288  1
  Cl  Cl488  1  0.00106772  0.78063751  0.12705405  1
  Cl  Cl489  1  0.49179455  0.10539754  0.10201681  1
  Cl  Cl490  1  0.50302109  0.44216432  0.12303968  1
  Cl  Cl491  1  0.49767592  0.78427597  0.12115108  1
  Cl  Cl492  1  0.01753551  0.22890280  0.89761602  1
  Cl  Cl493  1  0.00258089  0.55862745  0.89471646  1
  Cl  Cl494  1  -0.01492555  0.88954652  0.88915072  1
  Cl  Cl495  1  0.50564455  0.21458566  0.87101933  1
  Cl  Cl496  1  0.49816871  0.54511236  0.87133222  1
  Cl  Cl497  1  0.48826666  0.88911717  0.87802584  1
  Cl  Cl498  1  0.00911033  0.12086850  0.38098720  1
  Cl  Cl499  1  0.01061128  0.44482226  0.37760016  1
  Cl  Cl500  1  0.00468342  0.77324511  0.39610236  1
  Cl  Cl501  1  0.50663789  0.11342554  0.37797110  1
  Cl  Cl502  1  0.50897336  0.44031720  0.39610327  1
  Cl  Cl503  1  0.50794420  0.78173933  0.38338324  1
  Cl  Cl504  1  0.36425002  0.14630922  0.75018854  1
  Cl  Cl505  1  0.35800569  0.47822098  0.74996491  1
  Cl  Cl506  1  0.35970049  0.81450477  0.74340121  1
  Cl  Cl507  1  0.85983509  0.14689185  0.74745584  1
  Cl  Cl508  1  0.86023051  0.48046226  0.74934744  1
  Cl  Cl509  1  0.86426425  0.81132377  0.73996605  1
  Cl  Cl510  1  0.14123362  0.18353550  0.24416074  1
  Cl  Cl511  1  0.14064593  0.51906011  0.24666899  1
  Cl  Cl512  1  0.14183221  0.85202313  0.24716862  1
  Cl  Cl513  1  0.64142981  0.18304829  0.24984314  1
  Cl  Cl514  1  0.64176194  0.51642585  0.25276480  1
  Cl  Cl515  1  0.63852574  0.85511741  0.24694032  1
  Cl  Cl516  1  0.14339415  0.15139608  0.75430214  1
  Cl  Cl517  1  0.13935174  0.48174976  0.74830529  1
  Cl  Cl518  1  0.13682769  0.81468649  0.75276110  1
  Cl  Cl519  1  0.63916916  0.14828040  0.74947248  1
  Cl  Cl520  1  0.63898315  0.48248407  0.75271343  1
  Cl  Cl521  1  0.64738247  0.81549983  0.75094018  1
  Cl  Cl522  1  0.36298296  0.18828770  0.24589563  1
  Cl  Cl523  1  0.35862829  0.52067538  0.25103432  1
  Cl  Cl524  1  0.36234403  0.85275048  0.25762368  1
  Cl  Cl525  1  0.86078102  0.18970122  0.25579971  1
  Cl  Cl526  1  0.86184423  0.51896645  0.24952381  1
  Cl  Cl527  1  0.85762351  0.85301822  0.25334500  1
  Cl  Cl528  1  0.10173515  0.31464510  0.75231383  1
  Cl  Cl529  1  0.11346630  0.64535857  0.74777287  1
  Cl  Cl530  1  0.10666618  0.98370157  0.75807776  1
  Cl  Cl531  1  0.60646676  0.31669255  0.74916181  1
  Cl  Cl532  1  0.60786246  0.64764071  0.74965679  1
  Cl  Cl533  1  0.61345951  0.97960758  0.75401922  1
  Cl  Cl534  1  0.39288969  0.01836715  0.25315425  1
  Cl  Cl535  1  0.38074392  0.35592769  0.25301993  1
  Cl  Cl536  1  0.38890345  0.68765313  0.25156056  1
  Cl  Cl537  1  0.88838714  0.02104104  0.25935657  1
  Cl  Cl538  1  0.88597315  0.35398843  0.25293157  1
  Cl  Cl539  1  0.88861279  0.68696569  0.25285353  1
  Cl  Cl540  1  0.38573709  0.31153405  0.74542917  1
  Cl  Cl541  1  0.38406485  0.64497713  0.74345009  1
  Cl  Cl542  1  0.39097167  0.98194124  0.74849716  1
  Cl  Cl543  1  0.88511683  0.31133869  0.74900778  1
  Cl  Cl544  1  0.89317137  0.64683286  0.75094569  1
  Cl  Cl545  1  0.88439400  0.97976729  0.74900163  1
  Cl  Cl546  1  0.11040867  0.01886380  0.24529345  1
  Cl  Cl547  1  0.10884845  0.35005165  0.24663682  1
  Cl  Cl548  1  0.10970009  0.68674424  0.25774094  1
  Cl  Cl549  1  0.61625912  0.02129581  0.24081598  1
  Cl  Cl550  1  0.60106459  0.35010085  0.25237460  1
  Cl  Cl551  1  0.61098577  0.68668682  0.25201231  1
