# generated using pymatgen
data_H8PbC4(N3Cl2)2
_symmetry_space_group_name_H-M   'P 1'
_cell_length_a   16.62157328
_cell_length_b   22.50866143
_cell_length_c   21.59035577
_cell_angle_alpha   90.00172687
_cell_angle_beta   89.97314117
_cell_angle_gamma   90.00058987
_symmetry_Int_Tables_number   1
_chemical_formula_structural   H8PbC4(N3Cl2)2
_chemical_formula_sum   'H192 Pb24 C96 N144 Cl96'
_cell_volume   8077.58520697
_cell_formula_units_Z   24
loop_
 _symmetry_equiv_pos_site_id
 _symmetry_equiv_pos_as_xyz
  1  'x, y, z'
loop_
 _atom_site_type_symbol
 _atom_site_label
 _atom_site_symmetry_multiplicity
 _atom_site_fract_x
 _atom_site_fract_y
 _atom_site_fract_z
 _atom_site_occupancy
  H  H0  1  0.00226299  0.03041300  0.68064935  1
  H  H1  1  -0.00223980  0.36385317  0.67970343  1
  H  H2  1  -0.01136039  0.69762362  0.67584813  1
  H  H3  1  0.49514470  0.03086505  0.68336574  1
  H  H4  1  0.49605440  0.36281998  0.68127026  1
  H  H5  1  0.50381763  0.69692175  0.67804663  1
  H  H6  1  -0.00225778  0.30426180  0.18229734  1
  H  H7  1  -0.01370512  0.63505535  0.17559885  1
  H  H8  1  -0.00499243  0.96849281  0.18092319  1
  H  H9  1  0.49259164  0.30269709  0.17774924  1
  H  H10  1  0.50870342  0.63681176  0.17717263  1
  H  H11  1  0.49952140  0.97094950  0.17705652  1
  H  H12  1  -0.00057654  0.03048266  0.82406453  1
  H  H13  1  -0.01147041  0.36512649  0.82334140  1
  H  H14  1  -0.00792695  0.69639389  0.82355543  1
  H  H15  1  0.50182041  0.03241215  0.82574449  1
  H  H16  1  0.50840687  0.36521276  0.82265629  1
  H  H17  1  0.50327892  0.69780972  0.82306209  1
  H  H18  1  0.00254978  0.30354058  0.31707727  1
  H  H19  1  0.00411382  0.63522104  0.32109230  1
  H  H20  1  -0.00706288  0.97070700  0.31916896  1
  H  H21  1  0.49453736  0.30197019  0.32230582  1
  H  H22  1  0.49809644  0.63569023  0.31817777  1
  H  H23  1  0.50834391  0.96859945  0.32212373  1
  H  H24  1  0.23725977  0.19735275  0.67752093  1
  H  H25  1  0.25575992  0.53027636  0.68223147  1
  H  H26  1  0.24604704  0.86300909  0.67618125  1
  H  H27  1  0.76342096  0.19623394  0.67721622  1
  H  H28  1  0.73777856  0.52790855  0.67799745  1
  H  H29  1  0.74522258  0.86238372  0.68059185  1
  H  H30  1  0.25960488  0.13562935  0.17622789  1
  H  H31  1  0.25325862  0.46864621  0.17879555  1
  H  H32  1  0.25034074  0.80187663  0.17696868  1
  H  H33  1  0.74059984  0.13558501  0.17675871  1
  H  H34  1  0.74316804  0.47021149  0.17790032  1
  H  H35  1  0.74764070  0.80217603  0.17925017  1
  H  H36  1  0.25501904  0.19393692  0.82032390  1
  H  H37  1  0.25983345  0.53197228  0.82385668  1
  H  H38  1  0.25472741  0.86461102  0.81915708  1
  H  H39  1  0.74881845  0.19661867  0.81949783  1
  H  H40  1  0.74204950  0.53145543  0.82210764  1
  H  H41  1  0.75738173  0.86396948  0.82186600  1
  H  H42  1  0.26034013  0.13360629  0.31887036  1
  H  H43  1  0.25930866  0.46757759  0.31913628  1
  H  H44  1  0.24451219  0.80215172  0.32353070  1
  H  H45  1  0.74962769  0.13692434  0.31729192  1
  H  H46  1  0.74395449  0.47181124  0.32252282  1
  H  H47  1  0.75455965  0.80537567  0.32154034  1
  H  H48  1  0.13132131  0.05241432  0.61418392  1
  H  H49  1  0.12953020  0.38497148  0.61624375  1
  H  H50  1  0.12664108  0.71763161  0.61894236  1
  H  H51  1  0.62855336  0.05046427  0.62262058  1
  H  H52  1  0.63006336  0.38545394  0.61833906  1
  H  H53  1  0.62671217  0.72125277  0.60726569  1
  H  H54  1  0.38524004  0.27189685  0.09584100  1
  H  H55  1  0.36999473  0.61561666  0.12365527  1
  H  H56  1  0.38577118  0.94445687  0.09880745  1
  H  H57  1  0.87757753  0.27991638  0.10892853  1
  H  H58  1  0.88272792  0.60605698  0.08903645  1
  H  H59  1  0.88747106  0.94434008  0.09890554  1
  H  H60  1  0.37685932  0.05407666  0.89286836  1
  H  H61  1  0.36989890  0.38370179  0.87804532  1
  H  H62  1  0.37379361  0.72342873  0.88709538  1
  H  H63  1  0.87826961  0.05553721  0.89600371  1
  H  H64  1  0.87674211  0.39265979  0.90273631  1
  H  H65  1  0.87915397  0.72544303  0.90181147  1
  H  H66  1  0.12632188  0.27959072  0.38629454  1
  H  H67  1  0.11668196  0.61253908  0.40046547  1
  H  H68  1  0.12401282  0.94728201  0.38415415  1
  H  H69  1  0.62387560  0.28239200  0.38561893  1
  H  H70  1  0.61551163  0.60953168  0.39361424  1
  H  H71  1  0.61984574  0.94112663  0.40226289  1
  H  H72  1  0.37545025  0.21868261  0.62249683  1
  H  H73  1  0.37859912  0.55535058  0.60864143  1
  H  H74  1  0.37704558  0.88578029  0.61364397  1
  H  H75  1  0.86654891  0.22757632  0.59238740  1
  H  H76  1  0.87647913  0.54924809  0.62308318  1
  H  H77  1  0.87466134  0.88429850  0.61243439  1
  H  H78  1  0.12303587  0.11365804  0.11794663  1
  H  H79  1  0.12939697  0.44580639  0.10789082  1
  H  H80  1  0.12395706  0.78031569  0.10998192  1
  H  H81  1  0.62174486  0.11030659  0.10232559  1
  H  H82  1  0.63244931  0.44205491  0.09769925  1
  H  H83  1  0.62406420  0.77713099  0.10949130  1
  H  H84  1  0.11955355  0.21766765  0.87686397  1
  H  H85  1  0.12327000  0.54848425  0.88107440  1
  H  H86  1  0.11814949  0.88359216  0.87504178  1
  H  H87  1  0.61968731  0.21755017  0.88942789  1
  H  H88  1  0.63128615  0.56037390  0.90434531  1
  H  H89  1  0.61886236  0.88505800  0.87762525  1
  H  H90  1  0.36367063  0.11055596  0.40395656  1
  H  H91  1  0.36428541  0.44190186  0.40218150  1
  H  H92  1  0.37075402  0.77869618  0.39103334  1
  H  H93  1  0.87102336  0.11153757  0.38933309  1
  H  H94  1  0.87178568  0.44820271  0.38976706  1
  H  H95  1  0.87032688  0.77582596  0.39817063  1
  H  H96  1  0.37541212  0.27667409  0.39674485  1
  H  H97  1  0.36664440  0.61437362  0.38457663  1
  H  H98  1  0.37300985  0.94713247  0.38346261  1
  H  H99  1  0.87646156  0.28295306  0.38561147  1
  H  H100  1  0.86943730  0.61700310  0.37911372  1
  H  H101  1  0.87546764  0.94315971  0.39402603  1
  H  H102  1  0.12750348  0.05423848  0.89091138  1
  H  H103  1  0.12374210  0.38609817  0.88246255  1
  H  H104  1  0.12610519  0.71528816  0.88499478  1
  H  H105  1  0.62539933  0.05423725  0.89441824  1
  H  H106  1  0.61520809  0.39407221  0.90562779  1
  H  H107  1  0.62197143  0.71915742  0.89902084  1
  H  H108  1  0.12637940  0.27904502  0.11477513  1
  H  H109  1  0.12665505  0.61710230  0.12092883  1
  H  H110  1  0.13411724  0.94929788  0.12640288  1
  H  H111  1  0.63107914  0.28422520  0.12176404  1
  H  H112  1  0.61597098  0.60732098  0.09430488  1
  H  H113  1  0.63333084  0.95097747  0.11476997  1
  H  H114  1  0.38000188  0.05438887  0.60670611  1
  H  H115  1  0.38135152  0.38654022  0.60219723  1
  H  H116  1  0.37701743  0.72301227  0.61014910  1
  H  H117  1  0.88250709  0.05589916  0.60569992  1
  H  H118  1  0.88158492  0.38897507  0.60159172  1
  H  H119  1  0.88049519  0.72393712  0.59354383  1
  H  H120  1  0.11836516  0.11709062  0.36996444  1
  H  H121  1  0.11794202  0.45305154  0.37263058  1
  H  H122  1  0.12155220  0.77607394  0.39468907  1
  H  H123  1  0.62179943  0.11438254  0.38678424  1
  H  H124  1  0.62276156  0.44219910  0.39355093  1
  H  H125  1  0.62256388  0.78178537  0.38292271  1
  H  H126  1  0.36676277  0.22168992  0.90100862  1
  H  H127  1  0.37023291  0.55863864  0.90300598  1
  H  H128  1  0.36513123  0.88939920  0.89940662  1
  H  H129  1  0.86780133  0.22200969  0.89493107  1
  H  H130  1  0.87801140  0.55020635  0.88195188  1
  H  H131  1  0.86341214  0.89164037  0.90627689  1
  H  H132  1  0.37011403  0.10717653  0.09624404  1
  H  H133  1  0.37816823  0.44447338  0.10804343  1
  H  H134  1  0.37259229  0.77836178  0.10664291  1
  H  H135  1  0.87051965  0.11532442  0.11399848  1
  H  H136  1  0.87937720  0.44777551  0.12040140  1
  H  H137  1  0.87308163  0.77857350  0.10886423  1
  H  H138  1  0.12922881  0.22497882  0.59479938  1
  H  H139  1  0.12920916  0.55325707  0.61274469  1
  H  H140  1  0.12853199  0.88879669  0.60031473  1
  H  H141  1  0.62227775  0.21715902  0.62725512  1
  H  H142  1  0.63212661  0.55879122  0.59403609  1
  H  H143  1  0.62635535  0.88863885  0.60436718  1
  H  H144  1  0.17109755  0.74716750  0.49858397  1
  H  H145  1  0.17577994  0.58161944  0.50350067  1
  H  H146  1  0.14595330  0.25016412  0.98928662  1
  H  H147  1  0.53948336  0.40728620  1.00627771  1
  H  H148  1  0.09414404  0.08356052  0.50369103  1
  H  H149  1  0.94504052  0.73908921  1.00433083  1
  H  H150  1  0.91992852  0.25778416  0.49836791  1
  H  H151  1  0.60646135  0.24379300  0.01773823  1
  H  H152  1  0.20291800  0.24908661  0.49339166  1
  H  H153  1  0.29954455  0.91509502  1.00664957  1
  H  H154  1  0.70446856  0.58644418  1.00466165  1
  H  H155  1  0.13722251  0.91297938  0.99050119  1
  H  H156  1  0.81812262  0.08071102  0.49729057  1
  H  H157  1  0.78766831  0.25308597  0.49360052  1
  H  H158  1  0.93382684  0.91256367  0.50043937  1
  H  H159  1  0.95658663  0.91538218  -0.00708523  1
  H  H160  1  0.09721423  0.75045577  0.98856157  1
  H  H161  1  0.09394249  0.41689520  0.99009089  1
  H  H162  1  0.56422401  0.75885557  0.99569936  1
  H  H163  1  0.70919591  0.58057461  0.49393226  1
  H  H164  1  0.39277375  0.42113135  0.98261483  1
  H  H165  1  0.28919401  0.08357965  0.50876187  1
  H  H166  1  0.07973234  0.25482636  0.49893606  1
  H  H167  1  0.18624046  0.91872818  0.49830499  1
  H  H168  1  0.59111406  0.25314825  0.49935536  1
  H  H169  1  0.29194266  0.41547222  0.50804609  1
  H  H170  1  0.43861479  0.08339501  0.49818869  1
  H  H171  1  0.29947819  0.24349308  1.00342119  1
  H  H172  1  0.89571880  0.58912247  0.49431929  1
  H  H173  1  0.44582749  0.41370664  0.49576020  1
  H  H174  1  0.54174687  0.58240822  -0.00618721  1
  H  H175  1  0.60052470  0.91811820  0.00928089  1
  H  H176  1  0.45335360  0.93473731  -0.00546101  1
  H  H177  1  0.41025688  0.74313388  0.99300419  1
  H  H178  1  0.59942333  0.07875096  0.50966299  1
  H  H179  1  0.58140765  0.75176011  0.49816621  1
  H  H180  1  0.30886649  0.58625766  1.00979150  1
  H  H181  1  0.10899135  0.58595174  0.01188562  1
  H  H182  1  0.55530061  0.58190897  0.50152448  1
  H  H183  1  0.78741468  0.91704176  1.00608424  1
  H  H184  1  0.09709281  0.41812801  0.50571613  1
  H  H185  1  0.46071126  0.25321298  -0.00522767  1
  H  H186  1  0.08516777  0.08206125  0.99683616  1
  H  H187  1  0.93166673  0.24917461  0.00147923  1
  H  H188  1  0.40389405  0.91949927  0.49034916  1
  H  H189  1  0.83739106  0.08477643  0.00075318  1
  H  H190  1  0.41996866  0.74689105  0.50418339  1
  H  H191  1  0.70270289  0.41697650  -0.00467973  1
  Pb  Pb192  1  0.24749506  0.04802793  0.74969615  1
  Pb  Pb193  1  0.25133505  0.38035125  0.74754461  1
  Pb  Pb194  1  0.24993064  0.71244304  0.74710728  1
  Pb  Pb195  1  0.75194711  0.04620420  0.75073212  1
  Pb  Pb196  1  0.74837011  0.38009977  0.75774311  1
  Pb  Pb197  1  0.75378841  0.71472911  0.75173612  1
  Pb  Pb198  1  0.25472134  0.28372694  0.24775605  1
  Pb  Pb199  1  0.24776245  0.62063152  0.25663821  1
  Pb  Pb200  1  0.25210979  0.95339685  0.25129939  1
  Pb  Pb201  1  0.75093379  0.28861419  0.25535788  1
  Pb  Pb202  1  0.74835776  0.62014096  0.24355309  1
  Pb  Pb203  1  0.75421270  0.95110906  0.24729974  1
  Pb  Pb204  1  -0.00471714  0.21638063  0.74295252  1
  Pb  Pb205  1  0.00132289  0.54555288  0.74910339  1
  Pb  Pb206  1  -0.00121356  0.87898749  0.74899143  1
  Pb  Pb207  1  0.49910740  0.21186389  0.75987306  1
  Pb  Pb208  1  0.50621858  0.54988513  0.74900726  1
  Pb  Pb209  1  0.49787168  0.88120647  0.75284338  1
  Pb  Pb210  1  -0.00219661  0.12019881  0.24574779  1
  Pb  Pb211  1  0.00093685  0.45368825  0.24465004  1
  Pb  Pb212  1  -0.00016379  0.78602213  0.24841246  1
  Pb  Pb213  1  0.50398256  0.11789601  0.25171349  1
  Pb  Pb214  1  0.49938203  0.45341373  0.24926719  1
  Pb  Pb215  1  0.49891900  0.78648745  0.24800816  1
  C  C216  1  0.00542247  0.04609380  0.63325630  1
  C  C217  1  0.00297496  0.37938670  0.63236367  1
  C  C218  1  -0.00103656  0.71247206  0.62887782  1
  C  C219  1  0.50163007  0.04528853  0.63557781  1
  C  C220  1  0.50262781  0.37871733  0.63405281  1
  C  C221  1  0.50200378  0.71338947  0.63067487  1
  C  C222  1  0.00094889  0.28785362  0.13506192  1
  C  C223  1  -0.00122321  0.61987596  0.12884969  1
  C  C224  1  0.00547161  0.95428112  0.13359185  1
  C  C225  1  0.50327929  0.28669209  0.13090634  1
  C  C226  1  0.49838546  0.62114849  0.13039510  1
  C  C227  1  0.50637974  0.95562672  0.12949807  1
  C  C228  1  0.00226612  0.04655300  0.87134729  1
  C  C229  1  -0.00323215  0.38051819  0.87045350  1
  C  C230  1  -0.00092119  0.71207873  0.87091329  1
  C  C231  1  0.50141143  0.04724247  0.87349868  1
  C  C232  1  0.49758559  0.38077544  0.86965790  1
  C  C233  1  0.49969445  0.71386644  0.87053893  1
  C  C234  1  0.00167702  0.28858734  0.36489727  1
  C  C235  1  -0.00417163  0.62185598  0.36883904  1
  C  C236  1  -0.00225355  0.95425002  0.36623857  1
  C  C237  1  0.49856917  0.28717063  0.36994264  1
  C  C238  1  0.49302323  0.62038016  0.36566616  1
  C  C239  1  0.49991555  0.95308133  0.36923712  1
  C  C240  1  0.24699016  0.21224170  0.63038205  1
  C  C241  1  0.25473054  0.54594056  0.63473291  1
  C  C242  1  0.25020221  0.87920064  0.62898554  1
  C  C243  1  0.75111445  0.21220064  0.63076686  1
  C  C244  1  0.74844675  0.54401185  0.63140319  1
  C  C245  1  0.74872780  0.87789510  0.63307087  1
  C  C246  1  0.25057218  0.11941304  0.12966771  1
  C  C247  1  0.25402394  0.45340875  0.13135461  1
  C  C248  1  0.24894291  0.78691283  0.12935198  1
  C  C249  1  0.74497709  0.12033791  0.12933143  1
  C  C250  1  0.75162646  0.45489225  0.13096698  1
  C  C251  1  0.74850341  0.78640537  0.13201576  1
  C  C252  1  0.24735632  0.20980361  0.86755847  1
  C  C253  1  0.25137869  0.54646157  0.87130416  1
  C  C254  1  0.24538618  0.87880476  0.86676940  1
  C  C255  1  0.74509190  0.21155930  0.86729425  1
  C  C256  1  0.75003027  0.54654899  0.86942210  1
  C  C257  1  0.74654365  0.87898968  0.86891350  1
  C  C258  1  0.24758539  0.12038910  0.36617153  1
  C  C259  1  0.24742932  0.45419709  0.36650487  1
  C  C260  1  0.24515710  0.78620617  0.37085970  1
  C  C261  1  0.74726383  0.12091335  0.36471433  1
  C  C262  1  0.74628038  0.45446970  0.36910221  1
  C  C263  1  0.74927717  0.78809966  0.36803180  1
  C  C264  1  0.19277936  0.57122115  0.95951927  1
  C  C265  1  0.97005959  0.41186828  0.96623851  1
  C  C266  1  0.21599378  0.42808883  0.03745830  1
  C  C267  1  0.06757409  0.92921916  0.04660288  1
  C  C268  1  0.54095808  0.74148562  0.53741847  1
  C  C269  1  0.19100623  0.23979148  0.95430071  1
  C  C270  1  0.98037012  0.74169259  0.53318017  1
  C  C271  1  0.79289454  0.09388060  0.03725001  1
  C  C272  1  0.20525657  0.76072119  0.03723757  1
  C  C273  1  0.78091158  0.09238794  0.45767490  1
  C  C274  1  0.28732673  0.75902999  0.03615194  1
  C  C275  1  0.71308060  0.42172277  0.46063547  1
  C  C276  1  0.54092730  0.07406715  0.96572165  1
  C  C277  1  0.30151431  0.90751617  0.53843137  1
  C  C278  1  0.98719839  0.92695310  0.03578673  1
  C  C279  1  0.04875926  0.07289101  0.54180665  1
  C  C280  1  0.27202112  0.08674978  0.03537435  1
  C  C281  1  0.71123053  0.09166736  0.03490976  1
  C  C282  1  0.46010456  0.07378778  0.96527242  1
  C  C283  1  0.28988110  0.75707850  0.46320918  1
  C  C284  1  0.94167588  0.59829050  0.45948121  1
  C  C285  1  0.04148671  0.26425516  0.45925383  1
  C  C286  1  0.96444014  0.07642335  0.96528891  1
  C  C287  1  0.54610345  0.26178973  0.46273370  1
  C  C288  1  0.21573365  0.57153458  0.54214308  1
  C  C289  1  0.26272480  0.42755770  0.46480930  1
  C  C290  1  0.18108656  0.09771965  0.45147821  1
  C  C291  1  0.18665587  0.90297870  0.95552448  1
  C  C292  1  0.68482664  0.24148144  0.54704471  1
  C  C293  1  0.95935647  0.26564221  0.45897921  1
  C  C294  1  0.96905133  0.92476057  0.45995791  1
  C  C295  1  0.96852608  0.26053082  0.04142768  1
  C  C296  1  0.27363667  0.57486241  0.96847947  1
  C  C297  1  0.02280771  0.59650095  0.46538480  1
  C  C298  1  0.71131590  0.75717619  0.03972425  1
  C  C299  1  0.47257520  0.07160063  0.53939120  1
  C  C300  1  0.26078917  0.09477970  0.46495899  1
  C  C301  1  0.46469864  0.26001591  0.46454977  1
  C  C302  1  0.05010612  0.40722580  0.54241580  1
  C  C303  1  0.80970891  0.42463262  0.04388001  1
  C  C304  1  0.43592857  0.59176884  0.04465646  1
  C  C305  1  0.55440535  0.06944904  0.54496733  1
  C  C306  1  0.18285008  0.43199015  0.45269313  1
  C  C307  1  0.47816201  0.40467476  0.53859793  1
  C  C308  1  0.52127053  0.59306926  0.46000727  1
  C  C309  1  0.30839679  0.24089569  0.54375300  1
  C  C310  1  0.70069488  0.75794359  0.45694278  1
  C  C311  1  0.26803621  0.90459871  0.96392835  1
  N  N312  1  0.79038627  0.42375239  0.46087278  1
  N  N313  1  0.97127239  0.40834006  0.53683057  1
  N  N314  1  0.46102328  0.74258265  0.53981568  1
  N  N315  1  0.04850925  0.40847580  0.95851779  1
  N  N316  1  0.45328515  0.74632354  0.95819766  1
  N  N317  1  0.05806379  0.59477058  0.04380326  1
  N  N318  1  0.51606611  0.41482232  0.96270559  1
  N  N319  1  0.76244524  0.24469478  0.53625541  1
  N  N320  1  0.55824850  0.93582303  0.04010404  1
  N  N321  1  0.29492003  0.57192506  0.54031453  1
  N  N322  1  0.98161037  0.59072251  0.03210651  1
  N  N323  1  0.44915012  0.92694097  0.45679387  1
  N  N324  1  0.55700096  0.40512794  0.54413277  1
  N  N325  1  0.43813147  0.40257555  0.95592287  1
  N  N326  1  0.56187197  0.26245841  0.04515848  1
  N  N327  1  0.05733524  0.73925796  0.54025122  1
  N  N328  1  0.79349459  0.90545789  0.54137067  1
  N  N329  1  0.48422969  0.25050831  0.03911846  1
  N  N330  1  0.23015649  0.24207941  0.53542676  1
  N  N331  1  0.73113370  0.57638249  0.96275773  1
  N  N332  1  0.04359325  0.07530631  0.96221462  1
  N  N333  1  0.81071543  0.57182732  0.54657274  1
  N  N334  1  0.04834642  0.92622748  0.45708789  1
  N  N335  1  0.47997250  0.92525196  0.03633575  1
  N  N336  1  0.97390291  0.74674697  0.96294955  1
  N  N337  1  0.76188326  0.90760414  0.96338177  1
  N  N338  1  0.29399847  0.42835651  0.03617667  1
  N  N339  1  0.22215286  0.90866531  0.53535343  1
  N  N340  1  0.44213785  0.59422173  0.45691577  1
  N  N341  1  0.78901576  0.75760502  0.03836747  1
  N  N342  1  0.05165527  0.73235493  0.96018549  1
  N  N343  1  0.77793445  0.23790843  0.96231136  1
  N  N344  1  0.52683069  0.92461890  0.46483399  1
  N  N345  1  0.71702695  0.90714629  0.53881946  1
  N  N346  1  0.27023590  0.24113664  0.96142334  1
  N  N347  1  0.04777843  0.26128736  0.04264460  1
  N  N348  1  0.70166505  0.09334720  0.45706683  1
  N  N349  1  0.80858659  0.57308376  0.95676854  1
  N  N350  1  0.77805510  0.75524006  0.46290303  1
  N  N351  1  0.21046429  0.75705647  0.46328485  1
  N  N352  1  0.19482187  0.08925958  0.04119271  1
  N  N353  1  0.70159802  0.23512639  0.96060786  1
  N  N354  1  0.73132120  0.42407059  0.03693441  1
  N  N355  1  0.73379792  0.57449221  0.53745617  1
  N  N356  1  0.96957330  0.07391775  0.53830533  1
  N  N357  1  0.68484075  0.90377993  0.95528901  1
  N  N358  1  0.51424973  0.58965027  0.03606051  1
  N  N359  1  0.53110049  0.73261368  0.96613489  1
  N  N360  1  0.07194337  0.05623572  0.59991999  1
  N  N361  1  0.07089080  0.38970786  0.60087384  1
  N  N362  1  0.06879988  0.72065087  0.60123346  1
  N  N363  1  0.57086611  0.05336626  0.60488028  1
  N  N364  1  0.57045747  0.38907375  0.60366685  1
  N  N365  1  0.56632252  0.72458328  0.59439909  1
  N  N366  1  0.44754617  0.27545885  0.08856701  1
  N  N367  1  0.42618877  0.61024343  0.10345753  1
  N  N368  1  0.44761536  0.94754334  0.08901847  1
  N  N369  1  0.93841788  0.27640947  0.09773799  1
  N  N370  1  0.94474537  0.60625512  0.08534712  1
  N  N371  1  0.94936387  0.94287152  0.09125123  1
  N  N372  1  0.43577846  0.05779108  0.90892104  1
  N  N373  1  0.42704806  0.39154670  0.89559077  1
  N  N374  1  0.43321856  0.72407207  0.90247932  1
  N  N375  1  0.93870724  0.05890183  0.90888006  1
  N  N376  1  0.93772046  0.39427150  0.91182049  1
  N  N377  1  0.94050692  0.72316671  0.91090683  1
  N  N378  1  0.06644766  0.27831210  0.40041704  1
  N  N379  1  0.05521434  0.61052094  0.41060980  1
  N  N380  1  0.06422774  0.94448331  0.39830842  1
  N  N381  1  0.56576488  0.27856495  0.40226528  1
  N  N382  1  0.55413385  0.60903096  0.40445812  1
  N  N383  1  0.55799709  0.94035095  0.40973965  1
  N  N384  1  0.31883082  0.22303913  0.60269690  1
  N  N385  1  0.31759519  0.55602987  0.59830517  1
  N  N386  1  0.31871727  0.88992087  0.59678209  1
  N  N387  1  0.80457656  0.22377775  0.58707250  1
  N  N388  1  0.81934333  0.55420378  0.60521090  1
  N  N389  1  0.81443294  0.88735562  0.59979447  1
  N  N390  1  0.18152681  0.10959348  0.10145143  1
  N  N391  1  0.18971919  0.44303677  0.09498301  1
  N  N392  1  0.18304373  0.77713431  0.09467435  1
  N  N393  1  0.68253357  0.10762615  0.09053311  1
  N  N394  1  0.69427553  0.44492020  0.08973838  1
  N  N395  1  0.68392019  0.77423010  0.09632201  1
  N  N396  1  0.17672381  0.22204263  0.89563257  1
  N  N397  1  0.18011703  0.55416773  0.90048332  1
  N  N398  1  0.17441532  0.88691260  0.89488986  1
  N  N399  1  0.67985089  0.21847189  0.90170215  1
  N  N400  1  0.69355182  0.55850233  0.91078031  1
  N  N401  1  0.67575095  0.88793070  0.89592553  1
  N  N402  1  0.30155816  0.10926200  0.41029586  1
  N  N403  1  0.30229988  0.44174065  0.40958420  1
  N  N404  1  0.31133698  0.77497932  0.40588196  1
  N  N405  1  0.81029705  0.10907650  0.40136436  1
  N  N406  1  0.81133352  0.44436061  0.40258964  1
  N  N407  1  0.80845814  0.77457198  0.40622731  1
  N  N408  1  0.43611986  0.27528551  0.40868936  1
  N  N409  1  0.42634430  0.61091102  0.39792105  1
  N  N410  1  0.43174051  0.94487149  0.39925267  1
  N  N411  1  0.93605480  0.28056255  0.40005991  1
  N  N412  1  0.92618164  0.61414583  0.39846158  1
  N  N413  1  0.93650973  0.94163868  0.40460973  1
  N  N414  1  0.06741984  0.05623853  0.90462261  1
  N  N415  1  0.06546117  0.38869248  0.89968213  1
  N  N416  1  0.06753777  0.72137261  0.90050361  1
  N  N417  1  0.56633853  0.05810673  0.90960163  1
  N  N418  1  0.55300328  0.39037104  0.91262664  1
  N  N419  1  0.56084611  0.72480082  0.90806210  1
  N  N420  1  0.06646970  0.27823128  0.10163982  1
  N  N421  1  0.06951349  0.61257369  0.10223285  1
  N  N422  1  0.07820580  0.94553033  0.10596477  1
  N  N423  1  0.57372535  0.27584596  0.10483490  1
  N  N424  1  0.55376934  0.61024179  0.08792490  1
  N  N425  1  0.57465620  0.94483848  0.09996081  1
  N  N426  1  0.44114398  0.05658178  0.59615695  1
  N  N427  1  0.44305017  0.38930051  0.59362099  1
  N  N428  1  0.43740784  0.72345346  0.59670394  1
  N  N429  1  0.94422872  0.05713798  0.59573851  1
  N  N430  1  0.94344064  0.39094157  0.59337707  1
  N  N431  1  0.94221234  0.72557710  0.58615551  1
  N  N432  1  0.17373042  0.11290631  0.39166209  1
  N  N433  1  0.17407138  0.44769747  0.39317901  1
  N  N434  1  0.18239006  0.77552555  0.40648560  1
  N  N435  1  0.68228068  0.11105310  0.39872134  1
  N  N436  1  0.68295258  0.43998850  0.40536827  1
  N  N437  1  0.68060026  0.77716065  0.39927530  1
  N  N438  1  0.30478890  0.21916612  0.90881774  1
  N  N439  1  0.30905071  0.55914594  0.91197914  1
  N  N440  1  0.30334685  0.88953733  0.90837623  1
  N  N441  1  0.80615094  0.22364102  0.90467412  1
  N  N442  1  0.81977517  0.55563045  0.89815967  1
  N  N443  1  0.80098872  0.89002183  0.91198343  1
  N  N444  1  0.30841322  0.10510295  0.08825577  1
  N  N445  1  0.31762786  0.44403758  0.09619444  1
  N  N446  1  0.31273202  0.77537618  0.09288938  1
  N  N447  1  0.81237623  0.11150523  0.09721320  1
  N  N448  1  0.82231946  0.44312135  0.10229145  1
  N  N449  1  0.81225746  0.77627445  0.09709771  1
  N  N450  1  0.19107229  0.22219255  0.58799888  1
  N  N451  1  0.18943967  0.55603357  0.59981265  1
  N  N452  1  0.19004096  0.89067499  0.59107454  1
  N  N453  1  0.67764905  0.22250467  0.60587291  1
  N  N454  1  0.69429552  0.55545483  0.58815798  1
  N  N455  1  0.68796288  0.89012146  0.59546044  1
  Cl  Cl456  1  0.25660217  0.05138732  0.61459577  1
  Cl  Cl457  1  0.25803292  0.38317048  0.61293003  1
  Cl  Cl458  1  0.25343829  0.72562780  0.61171890  1
  Cl  Cl459  1  0.75905746  0.05701102  0.61716103  1
  Cl  Cl460  1  0.75667570  0.38213383  0.62567708  1
  Cl  Cl461  1  0.75252777  0.71738214  0.61937562  1
  Cl  Cl462  1  0.26274124  0.27019704  0.10523604  1
  Cl  Cl463  1  0.24710292  0.61565211  0.12389793  1
  Cl  Cl464  1  0.26724654  0.94303591  0.11790153  1
  Cl  Cl465  1  0.75428347  0.28686087  0.12306312  1
  Cl  Cl466  1  0.74064757  0.60659804  0.10336184  1
  Cl  Cl467  1  0.76067598  0.94254988  0.10387396  1
  Cl  Cl468  1  0.25077755  0.05541928  0.88067710  1
  Cl  Cl469  1  0.24704787  0.38436460  0.87997167  1
  Cl  Cl470  1  0.25060322  0.71958894  0.87878061  1
  Cl  Cl471  1  0.75552706  0.05116886  0.88432361  1
  Cl  Cl472  1  0.73820985  0.39520757  0.89779934  1
  Cl  Cl473  1  0.74919127  0.72118498  0.88719511  1
  Cl  Cl474  1  0.24971461  0.27472519  0.38521190  1
  Cl  Cl475  1  0.23771896  0.61491606  0.38937911  1
  Cl  Cl476  1  0.24867191  0.94229790  0.38784312  1
  Cl  Cl477  1  0.75351010  0.27614386  0.39209873  1
  Cl  Cl478  1  0.73647119  0.60452967  0.38549976  1
  Cl  Cl479  1  0.74634136  0.94461000  0.37804906  1
  Cl  Cl480  1  -0.00155267  0.22742292  0.60720890  1
  Cl  Cl481  1  0.00436972  0.55320013  0.61796942  1
  Cl  Cl482  1  0.00201652  0.88541412  0.61511131  1
  Cl  Cl483  1  0.49845999  0.22079303  0.63039144  1
  Cl  Cl484  1  0.51229405  0.56060912  0.61325912  1
  Cl  Cl485  1  0.50175865  0.88546042  0.62054594  1
  Cl  Cl486  1  -0.00163866  0.11048430  0.11251852  1
  Cl  Cl487  1  0.00698883  0.44488566  0.10945188  1
  Cl  Cl488  1  -0.00333232  0.77421962  0.11072185  1
  Cl  Cl489  1  0.49527805  0.11351923  0.11850145  1
  Cl  Cl490  1  0.50822485  0.43784466  0.10528405  1
  Cl  Cl491  1  0.49916742  0.77876716  0.11008182  1
  Cl  Cl492  1  -0.00988709  0.21869024  0.87884118  1
  Cl  Cl493  1  0.00001513  0.54829619  0.88048750  1
  Cl  Cl494  1  -0.01670442  0.88827751  0.88455410  1
  Cl  Cl495  1  0.49048680  0.22968806  0.89932092  1
  Cl  Cl496  1  0.50874630  0.56158850  0.89697191  1
  Cl  Cl497  1  0.48898116  0.89304368  0.89182850  1
  Cl  Cl498  1  -0.00710810  0.11378286  0.37589460  1
  Cl  Cl499  1  -0.00632804  0.45096563  0.37436997  1
  Cl  Cl500  1  -0.00278630  0.77683639  0.38107581  1
  Cl  Cl501  1  0.49210617  0.11176010  0.38719049  1
  Cl  Cl502  1  0.49126887  0.44204106  0.38263603  1
  Cl  Cl503  1  0.49496556  0.77822067  0.38358861  1
  Cl  Cl504  1  0.36192609  0.14707923  0.74584506  1
  Cl  Cl505  1  0.35802534  0.48097822  0.75300434  1
  Cl  Cl506  1  0.36052649  0.81394954  0.74765276  1
  Cl  Cl507  1  0.85853662  0.14999235  0.74861963  1
  Cl  Cl508  1  0.86168503  0.48057150  0.75106287  1
  Cl  Cl509  1  0.85657324  0.81486396  0.75087143  1
  Cl  Cl510  1  0.13187355  0.19018996  0.24788556  1
  Cl  Cl511  1  0.13911942  0.51919269  0.25112100  1
  Cl  Cl512  1  0.13648363  0.85467864  0.24742700  1
  Cl  Cl513  1  0.64133384  0.18605318  0.24845527  1
  Cl  Cl514  1  0.63684249  0.51912450  0.24604113  1
  Cl  Cl515  1  0.63510955  0.85457682  0.24838243  1
  Cl  Cl516  1  0.14278818  0.14606252  0.74986097  1
  Cl  Cl517  1  0.13843471  0.47931307  0.75454167  1
  Cl  Cl518  1  0.13808246  0.81300861  0.75108016  1
  Cl  Cl519  1  0.63709989  0.14620898  0.74750359  1
  Cl  Cl520  1  0.64156086  0.48258308  0.74910630  1
  Cl  Cl521  1  0.63318578  0.81122607  0.75785638  1
  Cl  Cl522  1  0.35428495  0.18682198  0.24887667  1
  Cl  Cl523  1  0.36137942  0.52075251  0.24522808  1
  Cl  Cl524  1  0.36022855  0.85129174  0.25503050  1
  Cl  Cl525  1  0.86140147  0.18717478  0.24595621  1
  Cl  Cl526  1  0.85884330  0.51971507  0.24572440  1
  Cl  Cl527  1  0.85710058  0.85242030  0.24803003  1
  Cl  Cl528  1  0.11553591  0.31193167  0.75324532  1
  Cl  Cl529  1  0.11254183  0.64649406  0.75314784  1
  Cl  Cl530  1  0.11302260  0.97844839  0.75448028  1
  Cl  Cl531  1  0.60797509  0.31503999  0.75385578  1
  Cl  Cl532  1  0.60340506  0.64716149  0.75411993  1
  Cl  Cl533  1  0.61306458  0.97909371  0.75352982  1
  Cl  Cl534  1  0.38840706  0.01907731  0.25497638  1
  Cl  Cl535  1  0.39043067  0.35083936  0.24574164  1
  Cl  Cl536  1  0.38737042  0.68577926  0.24894985  1
  Cl  Cl537  1  0.89118290  0.01742980  0.24775694  1
  Cl  Cl538  1  0.88956572  0.35414787  0.25041761  1
  Cl  Cl539  1  0.88752389  0.68460509  0.24912620  1
  Cl  Cl540  1  0.38674489  0.31221198  0.75833201  1
  Cl  Cl541  1  0.38806464  0.64690946  0.74950358  1
  Cl  Cl542  1  0.39125751  0.98233243  0.75279016  1
  Cl  Cl543  1  0.89614257  0.31537037  0.75199870  1
  Cl  Cl544  1  0.89246492  0.64820202  0.75188460  1
  Cl  Cl545  1  0.89363906  0.98358067  0.74766881  1
  Cl  Cl546  1  0.11577898  0.02331538  0.24948885  1
  Cl  Cl547  1  0.10842862  0.35541682  0.24784795  1
  Cl  Cl548  1  0.10938151  0.68551829  0.24643121  1
  Cl  Cl549  1  0.60577991  0.02031574  0.24520604  1
  Cl  Cl550  1  0.61084186  0.35247795  0.24674595  1
  Cl  Cl551  1  0.60879185  0.68491737  0.24746981  1
