# generated using pymatgen
data_H8PbC4(N3Cl2)2
_symmetry_space_group_name_H-M   'P 1'
_cell_length_a   16.62213575
_cell_length_b   22.50130248
_cell_length_c   21.58823053
_cell_angle_alpha   90.00023209
_cell_angle_beta   90.00235290
_cell_angle_gamma   89.99963410
_symmetry_Int_Tables_number   1
_chemical_formula_structural   H8PbC4(N3Cl2)2
_chemical_formula_sum   'H192 Pb24 C96 N144 Cl96'
_cell_volume   8074.42359614
_cell_formula_units_Z   24
loop_
 _symmetry_equiv_pos_site_id
 _symmetry_equiv_pos_as_xyz
  1  'x, y, z'
loop_
 _atom_site_type_symbol
 _atom_site_label
 _atom_site_symmetry_multiplicity
 _atom_site_fract_x
 _atom_site_fract_y
 _atom_site_fract_z
 _atom_site_occupancy
  H  H0  1  0.00146575  0.03161371  0.68339757  1
  H  H1  1  -0.01113981  0.36511251  0.67838333  1
  H  H2  1  0.00052721  0.70227799  0.67713961  1
  H  H3  1  0.49764875  0.03193439  0.68000413  1
  H  H4  1  0.51079124  0.36624115  0.67830964  1
  H  H5  1  0.49850432  0.69917060  0.68298803  1
  H  H6  1  -0.00153820  0.30035319  0.17993932  1
  H  H7  1  -0.00184882  0.63440584  0.18021306  1
  H  H8  1  0.00513318  0.96767364  0.18063941  1
  H  H9  1  0.50053851  0.30099646  0.18027552  1
  H  H10  1  0.50438986  0.63563399  0.18003035  1
  H  H11  1  0.49418064  0.96685003  0.17816405  1
  H  H12  1  0.00308795  0.03150274  0.81890465  1
  H  H13  1  -0.00018710  0.36487722  0.81665690  1
  H  H14  1  -0.00219115  0.69928053  0.81719686  1
  H  H15  1  0.49565903  0.03234815  0.81808822  1
  H  H16  1  0.50543268  0.36615086  0.82094315  1
  H  H17  1  0.50136796  0.69848325  0.81880723  1
  H  H18  1  0.00805818  0.30025263  0.31910926  1
  H  H19  1  -0.00442423  0.63638332  0.32181764  1
  H  H20  1  0.00122090  0.96661625  0.32019224  1
  H  H21  1  0.49620994  0.30004671  0.31890332  1
  H  H22  1  0.50775360  0.63469451  0.31950504  1
  H  H23  1  0.48813339  0.96573862  0.32514086  1
  H  H24  1  0.24753181  0.19836778  0.68247799  1
  H  H25  1  0.25212278  0.53151175  0.68139219  1
  H  H26  1  0.24811672  0.86675903  0.67679923  1
  H  H27  1  0.75456585  0.19803796  0.68111024  1
  H  H28  1  0.75401492  0.53328164  0.68263606  1
  H  H29  1  0.75748424  0.86531637  0.67691321  1
  H  H30  1  0.24826880  0.13601741  0.18074994  1
  H  H31  1  0.24549610  0.46830934  0.17811748  1
  H  H32  1  0.25564575  0.80046016  0.18071649  1
  H  H33  1  0.75139213  0.13556671  0.18096255  1
  H  H34  1  0.74502920  0.46790521  0.18317388  1
  H  H35  1  0.75814596  0.80172313  0.18275588  1
  H  H36  1  0.24554562  0.19760821  0.82080853  1
  H  H37  1  0.25903236  0.53294983  0.81894376  1
  H  H38  1  0.24398744  0.86453196  0.81975825  1
  H  H39  1  0.75607415  0.19861545  0.81857283  1
  H  H40  1  0.74349403  0.53197605  0.82000628  1
  H  H41  1  0.75662871  0.86693183  0.82080261  1
  H  H42  1  0.24266913  0.13408637  0.31797116  1
  H  H43  1  0.25104651  0.46714331  0.32293863  1
  H  H44  1  0.25461346  0.80099178  0.31968525  1
  H  H45  1  0.76046870  0.13511343  0.31888343  1
  H  H46  1  0.74953342  0.46938798  0.31775531  1
  H  H47  1  0.74214449  0.80238720  0.32030668  1
  H  H48  1  0.12593944  0.05039025  0.61315641  1
  H  H49  1  0.12748730  0.38576262  0.62516628  1
  H  H50  1  0.12545000  0.72184823  0.60876231  1
  H  H51  1  0.62305437  0.05231336  0.61217963  1
  H  H52  1  0.61560825  0.39239861  0.59246059  1
  H  H53  1  0.62462764  0.71954157  0.61499151  1
  H  H54  1  0.37471418  0.27911256  0.11174309  1
  H  H55  1  0.37125224  0.61538529  0.11701468  1
  H  H56  1  0.37586397  0.94358836  0.10309136  1
  H  H57  1  0.87588978  0.27813110  0.10770150  1
  H  H58  1  0.87445764  0.61194098  0.10950495  1
  H  H59  1  0.87144328  0.94764055  0.11821657  1
  H  H60  1  0.37580888  0.05411151  0.89058325  1
  H  H61  1  0.36833833  0.38518436  0.87826360  1
  H  H62  1  0.37692639  0.72083039  0.89083149  1
  H  H63  1  0.87550326  0.05274415  0.88764533  1
  H  H64  1  0.86984054  0.38564473  0.88055245  1
  H  H65  1  0.87915707  0.72124048  0.89176061  1
  H  H66  1  0.11833166  0.27643495  0.40224994  1
  H  H67  1  0.12849427  0.61801407  0.38496777  1
  H  H68  1  0.12723436  0.94476784  0.39136518  1
  H  H69  1  0.62123065  0.27963340  0.38704213  1
  H  H70  1  0.62485628  0.61005006  0.39573949  1
  H  H71  1  0.62775882  0.95027864  0.37721179  1
  H  H72  1  0.37913429  0.21912553  0.61597359  1
  H  H73  1  0.37251056  0.55482150  0.60783676  1
  H  H74  1  0.37320238  0.88781719  0.60895977  1
  H  H75  1  0.87844587  0.22257116  0.60867910  1
  H  H76  1  0.87012099  0.55690057  0.60510242  1
  H  H77  1  0.86861391  0.88992078  0.59698792  1
  H  H78  1  0.12455376  0.11426926  0.11018715  1
  H  H79  1  0.13436623  0.44011293  0.09852882  1
  H  H80  1  0.12418451  0.78037003  0.11490758  1
  H  H81  1  0.62669749  0.11283034  0.11120893  1
  H  H82  1  0.63105124  0.44371280  0.10453884  1
  H  H83  1  0.62231456  0.78210912  0.12137837  1
  H  H84  1  0.12745254  0.22283848  0.89709384  1
  H  H85  1  0.12643455  0.55383957  0.88345006  1
  H  H86  1  0.13019083  0.89114940  0.89906895  1
  H  H87  1  0.62492352  0.21914064  0.88500604  1
  H  H88  1  0.63219872  0.55715991  0.90202955  1
  H  H89  1  0.62357689  0.88720626  0.88234235  1
  H  H90  1  0.37745256  0.11459186  0.38124749  1
  H  H91  1  0.37489281  0.44710804  0.39517035  1
  H  H92  1  0.36842252  0.78059470  0.39791894  1
  H  H93  1  0.87122605  0.10875414  0.40118043  1
  H  H94  1  0.87511120  0.44618624  0.38611318  1
  H  H95  1  0.87666938  0.78238464  0.38239687  1
  H  H96  1  0.37187216  0.28011796  0.39038075  1
  H  H97  1  0.37622422  0.61482109  0.38511198  1
  H  H98  1  0.38316204  0.94227344  0.40781367  1
  H  H99  1  0.87205630  0.28187191  0.37889575  1
  H  H100  1  0.88107020  0.61031185  0.39945147  1
  H  H101  1  0.87791709  0.94466695  0.39178995  1
  H  H102  1  0.12456979  0.05574982  0.89140547  1
  H  H103  1  0.11898117  0.38589056  0.89138398  1
  H  H104  1  0.12850886  0.71887431  0.88094932  1
  H  H105  1  0.62512557  0.05248666  0.88439229  1
  H  H106  1  0.61533947  0.39240746  0.90232747  1
  H  H107  1  0.62624696  0.72087819  0.88913729  1
  H  H108  1  0.12493325  0.27920365  0.10979047  1
  H  H109  1  0.12401675  0.61350539  0.10969667  1
  H  H110  1  0.11891463  0.94311274  0.09953378  1
  H  H111  1  0.62465052  0.27872646  0.10840905  1
  H  H112  1  0.61897701  0.60931605  0.10016489  1
  H  H113  1  0.62435760  0.94717588  0.11251989  1
  H  H114  1  0.37370643  0.05063804  0.60797497  1
  H  H115  1  0.37102364  0.38292911  0.62553961  1
  H  H116  1  0.37470083  0.72026556  0.61278828  1
  H  H117  1  0.87603627  0.05210721  0.61467618  1
  H  H118  1  0.88251320  0.39284213  0.59446654  1
  H  H119  1  0.87669780  0.72154651  0.60759478  1
  H  H120  1  0.12908749  0.10953291  0.39715819  1
  H  H121  1  0.12680663  0.44152637  0.39310682  1
  H  H122  1  0.12016703  0.78359183  0.38063006  1
  H  H123  1  0.62480880  0.11549030  0.37925510  1
  H  H124  1  0.62537442  0.44451874  0.38930937  1
  H  H125  1  0.62908976  0.77675376  0.40120861  1
  H  H126  1  0.37567057  0.21923161  0.88546089  1
  H  H127  1  0.37368786  0.55705018  0.89980534  1
  H  H128  1  0.37842116  0.88485129  0.88007017  1
  H  H129  1  0.87274374  0.22389694  0.89691141  1
  H  H130  1  0.87947140  0.55188276  0.87771664  1
  H  H131  1  0.87092568  0.89086847  0.90117276  1
  H  H132  1  0.37333819  0.11231173  0.10966965  1
  H  H133  1  0.38095624  0.45095602  0.11749859  1
  H  H134  1  0.37268544  0.77713002  0.10440326  1
  H  H135  1  0.87646661  0.11329307  0.11001359  1
  H  H136  1  0.87916964  0.44707017  0.11999079  1
  H  H137  1  0.87013646  0.77886787  0.10198146  1
  H  H138  1  0.13022473  0.22262495  0.60606810  1
  H  H139  1  0.12355219  0.55490718  0.61349597  1
  H  H140  1  0.12407847  0.88490135  0.60698412  1
  H  H141  1  0.63000291  0.22016992  0.61004833  1
  H  H142  1  0.62121022  0.55212999  0.61708417  1
  H  H143  1  0.62159977  0.88621028  0.61804536  1
  H  H144  1  0.70209577  0.58436830  1.00308550  1
  H  H145  1  0.90404884  0.41144908  0.99350956  1
  H  H146  1  0.07998066  0.07353640  0.50009568  1
  H  H147  1  0.19566346  0.08188659  0.50399926  1
  H  H148  1  0.07867104  0.58479700  0.00505822  1
  H  H149  1  0.94729830  0.60083553  0.50376165  1
  H  H150  1  0.09519534  0.58410437  0.48945672  1
  H  H151  1  0.06582888  0.40881862  1.00230313  1
  H  H152  1  0.67735907  0.42714134  0.49690938  1
  H  H153  1  0.58675380  0.91855785  0.00551467  1
  H  H154  1  0.41510257  0.24878333  0.00174970  1
  H  H155  1  0.19029377  0.24856668  0.49796996  1
  H  H156  1  0.80324047  0.75427911  -0.00460742  1
  H  H157  1  0.42174445  0.74541425  0.50028429  1
  H  H158  1  0.80850724  0.58384244  0.49779066  1
  H  H159  1  0.35039429  0.91529594  0.99226847  1
  H  H160  1  0.83008670  0.41998423  0.49823204  1
  H  H161  1  0.91832387  0.58389361  -0.00049631  1
  H  H162  1  0.69932990  0.75181540  0.50310453  1
  H  H163  1  0.57813907  0.75079454  0.99791306  1
  H  H164  1  0.04953971  0.91814359  -0.00214099  1
  H  H165  1  0.92035409  0.07581495  0.50138090  1
  H  H166  1  0.66964013  0.08342169  0.00166885  1
  H  H167  1  0.35372396  0.41726935  0.01041781  1
  H  H168  1  0.69485272  0.41673995  -0.00235256  1
  H  H169  1  0.82967416  0.08591519  0.00509236  1
  H  H170  1  0.20480982  0.42630697  -0.00513343  1
  H  H171  1  0.54551117  0.41720525  1.00452451  1
  H  H172  1  0.58085358  0.74546378  0.50169533  1
  H  H173  1  0.07307183  0.08673872  0.99887904  1
  H  H174  1  0.19510839  0.91182279  1.00295759  1
  H  H175  1  0.55066896  0.58350888  -0.00164053  1
  H  H176  1  0.17187753  0.42085415  0.49943545  1
  H  H177  1  0.57794272  0.25000004  0.49924947  1
  H  H178  1  0.53913141  0.41622151  0.49285413  1
  H  H179  1  0.04609043  0.24864756  0.50218983  1
  H  H180  1  0.58069080  0.08076336  0.49964375  1
  H  H181  1  0.82724642  0.24923634  0.50489406  1
  H  H182  1  0.30694913  0.75664055  0.50836461  1
  H  H183  1  0.57631448  0.24830051  0.00494041  1
  H  H184  1  0.93286773  0.74895974  1.00156027  1
  H  H185  1  0.79905015  0.08252012  0.50183391  1
  H  H186  1  0.42591125  0.08366100  1.00068297  1
  H  H187  1  0.09486815  0.74671288  0.99345616  1
  H  H188  1  0.95735546  0.41551034  0.49361454  1
  H  H189  1  0.31913663  0.58443951  0.50015214  1
  H  H190  1  0.64483438  0.91669804  0.50846179  1
  H  H191  1  0.32996176  0.41385241  0.49794957  1
  Pb  Pb192  1  0.24629631  0.04740855  0.75026848  1
  Pb  Pb193  1  0.24796633  0.37948145  0.75299733  1
  Pb  Pb194  1  0.25244442  0.71391042  0.74932208  1
  Pb  Pb195  1  0.75040115  0.04483752  0.74937015  1
  Pb  Pb196  1  0.74360248  0.38270404  0.74545497  1
  Pb  Pb197  1  0.74782114  0.71579529  0.74977067  1
  Pb  Pb198  1  0.24880103  0.28337839  0.25279638  1
  Pb  Pb199  1  0.25019180  0.62196996  0.25135959  1
  Pb  Pb200  1  0.25142415  0.95365661  0.24581466  1
  Pb  Pb201  1  0.75140529  0.28631533  0.25053063  1
  Pb  Pb202  1  0.75074072  0.62020911  0.24875108  1
  Pb  Pb203  1  0.74895909  0.95380990  0.25233747  1
  Pb  Pb204  1  -0.00355932  0.21501972  0.74823992  1
  Pb  Pb205  1  -0.00133375  0.54914428  0.74559824  1
  Pb  Pb206  1  0.00011769  0.87803315  0.75472159  1
  Pb  Pb207  1  0.49943335  0.21186702  0.75178733  1
  Pb  Pb208  1  0.49766901  0.54783616  0.75633082  1
  Pb  Pb209  1  0.49793811  0.88114279  0.75251487  1
  Pb  Pb210  1  0.00047603  0.11709842  0.25323939  1
  Pb  Pb211  1  0.00462470  0.45211522  0.24959180  1
  Pb  Pb212  1  -0.00102684  0.78824552  0.24403976  1
  Pb  Pb213  1  0.50125391  0.11994191  0.24722719  1
  Pb  Pb214  1  0.49963272  0.45226830  0.25098078  1
  Pb  Pb215  1  0.49887939  0.78741328  0.25425419  1
  C  C216  1  0.00111386  0.04567494  0.63529014  1
  C  C217  1  -0.00063492  0.38001378  0.63128546  1
  C  C218  1  0.00089091  0.71519416  0.62882939  1
  C  C219  1  0.49866346  0.04530393  0.63183565  1
  C  C220  1  0.49931421  0.37975898  0.63086536  1
  C  C221  1  0.49937802  0.71325134  0.63489940  1
  C  C222  1  -0.00003633  0.28584184  0.13224822  1
  C  C223  1  -0.00075714  0.61945053  0.13231634  1
  C  C224  1  -0.00116074  0.95327569  0.13295818  1
  C  C225  1  0.50038913  0.28594420  0.13241109  1
  C  C226  1  0.49863117  0.62050435  0.13257228  1
  C  C227  1  0.49854061  0.95245124  0.13034638  1
  C  C228  1  0.00088031  0.04671371  0.86651334  1
  C  C229  1  -0.00396953  0.37884737  0.86472047  1
  C  C230  1  0.00203466  0.71360882  0.86515266  1
  C  C231  1  0.49846191  0.04666227  0.86594097  1
  C  C232  1  0.49653118  0.38043274  0.86849880  1
  C  C233  1  0.50151197  0.71337000  0.86652683  1
  C  C234  1  -0.00037000  0.28574189  0.36661132  1
  C  C235  1  0.00184595  0.62156996  0.36953506  1
  C  C236  1  0.00242629  0.95226256  0.36799022  1
  C  C237  1  0.49696261  0.28640632  0.36696548  1
  C  C238  1  0.50266582  0.61992100  0.36697890  1
  C  C239  1  0.50009988  0.95234653  0.37247030  1
  C  C240  1  0.25255078  0.21330688  0.63483654  1
  C  C241  1  0.24907900  0.54696981  0.63383244  1
  C  C242  1  0.24842911  0.88031478  0.62846049  1
  C  C243  1  0.75476479  0.21353418  0.63354443  1
  C  C244  1  0.74816346  0.54721374  0.63475412  1
  C  C245  1  0.74872310  0.88048484  0.62973014  1
  C  C246  1  0.24903008  0.12070060  0.13338180  1
  C  C247  1  0.25386873  0.45327193  0.13067748  1
  C  C248  1  0.25042564  0.78601495  0.13318494  1
  C  C249  1  0.75192350  0.12041080  0.13314024  1
  C  C250  1  0.75217595  0.45315625  0.13561338  1
  C  C251  1  0.74989022  0.78715301  0.13524715  1
  C  C252  1  0.24940021  0.21307967  0.86807265  1
  C  C253  1  0.25327549  0.54723706  0.86672640  1
  C  C254  1  0.25067127  0.87919747  0.86752757  1
  C  C255  1  0.75128440  0.21334253  0.86629893  1
  C  C256  1  0.75143129  0.54649241  0.86749880  1
  C  C257  1  0.75056667  0.88125727  0.86837949  1
  C  C258  1  0.24988346  0.11952857  0.36552891  1
  C  C259  1  0.25087373  0.45213752  0.37084883  1
  C  C260  1  0.24798070  0.78802599  0.36772741  1
  C  C261  1  0.75268925  0.12027048  0.36633064  1
  C  C262  1  0.74937635  0.45414124  0.36554588  1
  C  C263  1  0.74894549  0.78737237  0.36780285  1
  C  C264  1  0.46425391  0.07292137  0.96150161  1
  C  C265  1  0.77365543  0.91036728  0.53341091  1
  C  C266  1  0.53878680  0.73998957  0.95921670  1
  C  C267  1  0.48303014  0.92634472  0.46892590  1
  C  C268  1  0.27392909  0.76451147  0.46567962  1
  C  C269  1  0.71062127  0.09370793  0.04018817  1
  C  C270  1  0.96479313  0.25902660  0.03901767  1
  C  C271  1  0.05106399  0.73765557  0.95710589  1
  C  C272  1  0.22436398  0.23886481  0.53987866  1
  C  C273  1  0.04151135  0.06713768  0.54027887  1
  C  C274  1  0.03447661  0.07501123  0.95962907  1
  C  C275  1  0.04204261  0.73788373  0.53584526  1
  C  C276  1  0.20906012  0.90420973  0.53585437  1
  C  C277  1  0.45614359  0.26191799  0.46082727  1
  C  C278  1  0.54173621  0.73628169  0.54089351  1
  C  C279  1  0.53772199  0.26098464  0.46128984  1
  C  C280  1  0.54008199  0.07041594  0.53756213  1
  C  C281  1  0.28934882  0.90522255  0.53648750  1
  C  C282  1  0.29520675  0.24054470  0.95878257  1
  C  C283  1  0.81049919  0.57279813  0.95586799  1
  C  C284  1  0.28161883  0.57307057  0.53981607  1
  C  C285  1  0.56344574  0.92920596  0.45878753  1
  C  C286  1  0.46419900  0.92533587  0.03466823  1
  C  C287  1  0.45861332  0.06901701  0.53773452  1
  C  C288  1  0.72740588  0.42707197  0.04015498  1
  C  C289  1  0.53172963  0.59174179  0.46132981  1
  C  C290  1  0.30512475  0.90586310  0.95625115  1
  C  C291  1  0.43716472  0.40463361  0.95691295  1
  C  C292  1  0.27991300  0.75758829  0.03890553  1
  C  C293  1  0.06277058  0.40812825  0.54534336  1
  C  C294  1  0.96906568  0.73868723  0.96100997  1
  C  C295  1  0.19326230  0.76527246  0.45767949  1
  C  C296  1  0.95951873  0.06800678  0.54086884  1
  C  C297  1  0.77209231  0.76270028  0.03891812  1
  C  C298  1  0.22632439  0.09296144  0.46102620  1
  C  C299  1  0.94740166  0.40183987  0.95714487  1
  C  C300  1  0.96579795  0.92579501  0.46111958  1
  C  C301  1  0.70050953  0.90658738  0.95849015  1
  C  C302  1  0.45742664  0.25946071  0.03972071  1
  C  C303  1  0.79212128  0.42780944  0.45796891  1
  C  C304  1  0.21108608  0.09324180  0.04045733  1
  C  C305  1  0.77496423  0.57266671  0.53950194  1
  C  C306  1  0.02941107  0.40136980  0.96119876  1
  C  C307  1  0.54570234  0.07191132  0.95779550  1
  C  C308  1  0.95888291  0.59386024  0.03859807  1
  C  C309  1  0.43393882  0.40302492  0.54416337  1
  C  C310  1  0.45980455  0.73641152  0.54012164  1
  C  C311  1  0.96128873  0.73749885  0.53544347  1
  N  N312  1  0.20369470  0.57084030  0.95821368  1
  N  N313  1  0.94091892  0.26319823  0.45519129  1
  N  N314  1  0.52179817  0.59264128  0.03920827  1
  N  N315  1  0.78032680  0.24057492  0.96179285  1
  N  N316  1  0.73184117  0.57424066  0.96275296  1
  N  N317  1  0.28978821  0.43194607  0.46471215  1
  N  N318  1  0.44409447  0.59436926  0.04345207  1
  N  N319  1  0.54314125  0.92678910  0.03919944  1
  N  N320  1  0.45946092  0.73995550  0.96027948  1
  N  N321  1  0.21773038  0.24236635  0.96370590  1
  N  N322  1  0.97445427  0.59027055  0.46246650  1
  N  N323  1  0.69587603  0.57074800  0.54325186  1
  N  N324  1  0.77772112  0.90776901  0.96580580  1
  N  N325  1  0.45425607  0.59319708  0.45915311  1
  N  N326  1  0.51563153  0.40704488  0.96427025  1
  N  N327  1  0.23074393  0.42081114  0.03773308  1
  N  N328  1  0.22571030  0.90865802  0.96170977  1
  N  N329  1  0.51201220  0.40658106  0.53440873  1
  N  N330  1  0.20215201  0.57196880  0.54083694  1
  N  N331  1  0.30346694  0.23849099  0.54340408  1
  N  N332  1  0.28017179  0.57223892  0.96330583  1
  N  N333  1  0.77191365  0.09316894  0.46071291  1
  N  N334  1  0.53730760  0.26059515  0.03943457  1
  N  N335  1  0.69449463  0.09554428  0.45427017  1
  N  N336  1  0.04208681  0.25953592  0.03833835  1
  N  N337  1  0.05298638  0.60165937  0.45944698  1
  N  N338  1  0.69324414  0.76253506  0.04557010  1
  N  N339  1  0.69535829  0.90805592  0.54169299  1
  N  N340  1  0.21164826  0.42096544  0.46133161  1
  N  N341  1  0.80472020  0.76167968  0.45640310  1
  N  N342  1  0.04300865  0.92610587  0.46240346  1
  N  N343  1  0.70382144  0.23849665  0.95795423  1
  N  N344  1  0.01866782  0.26170959  0.46180426  1
  N  N345  1  0.80632141  0.42806344  0.04530910  1
  N  N346  1  0.72723379  0.75939415  0.46159855  1
  N  N347  1  0.98443663  0.40964832  0.53600175  1
  N  N348  1  0.30501317  0.09459582  0.45549371  1
  N  N349  1  0.28888994  0.09199067  0.03950429  1
  N  N350  1  0.94353734  0.92832447  0.04372371  1
  N  N351  1  0.71157391  0.23839272  0.54022628  1
  N  N352  1  0.03862051  0.59418411  0.03988548  1
  N  N353  1  0.95491588  0.07386897  0.95916440  1
  N  N354  1  0.71235098  0.42635706  0.45788108  1
  N  N355  1  0.30833296  0.43299117  0.04209792  1
  N  N356  1  0.20246002  0.75930792  0.04088677  1
  N  N357  1  0.79034701  0.09363906  0.04085610  1
  N  N358  1  0.02118539  0.92737381  0.03888607  1
  N  N359  1  0.78999116  0.23883221  0.54141890  1
  N  N360  1  0.06601367  0.05363050  0.59931361  1
  N  N361  1  0.07159604  0.39076881  0.60464880  1
  N  N362  1  0.06635334  0.72446032  0.59294992  1
  N  N363  1  0.56387668  0.05528754  0.59734951  1
  N  N364  1  0.55332724  0.39053428  0.58745900  1
  N  N365  1  0.56511968  0.72191695  0.60018234  1
  N  N366  1  0.43457245  0.27564867  0.09753474  1
  N  N367  1  0.43015309  0.61095926  0.10207797  1
  N  N368  1  0.43621856  0.94119488  0.09122848  1
  N  N369  1  0.93595521  0.27494882  0.09547035  1
  N  N370  1  0.93435676  0.60941048  0.09625995  1
  N  N371  1  0.93020623  0.94370080  0.10277673  1
  N  N372  1  0.43600636  0.05709068  0.90313281  1
  N  N373  1  0.42513382  0.38891481  0.89731916  1
  N  N374  1  0.43804598  0.72330988  0.90223231  1
  N  N375  1  0.93589947  0.05615977  0.90050153  1
  N  N376  1  0.92818451  0.38812575  0.89702602  1
  N  N377  1  0.93987891  0.72378575  0.90333283  1
  N  N378  1  0.05598968  0.27438271  0.40811887  1
  N  N379  1  0.06973585  0.61128019  0.39969148  1
  N  N380  1  0.06632290  0.94274000  0.40299875  1
  N  N381  1  0.56189374  0.27660695  0.40174224  1
  N  N382  1  0.56413025  0.60780919  0.40607861  1
  N  N383  1  0.57270199  0.94490481  0.39895761  1
  N  N384  1  0.31920948  0.22255790  0.60248006  1
  N  N385  1  0.31165682  0.55773382  0.59632337  1
  N  N386  1  0.31409769  0.89071466  0.59312003  1
  N  N387  1  0.81767086  0.22399990  0.59775320  1
  N  N388  1  0.80874651  0.55813176  0.59525449  1
  N  N389  1  0.80716978  0.89299648  0.58771313  1
  N  N390  1  0.18444625  0.11033069  0.09719879  1
  N  N391  1  0.19617687  0.44285816  0.08971441  1
  N  N392  1  0.18389610  0.77706818  0.10114558  1
  N  N393  1  0.68668763  0.10972483  0.09771343  1
  N  N394  1  0.69269798  0.44236845  0.09522760  1
  N  N395  1  0.68133423  0.77775423  0.10569629  1
  N  N396  1  0.18906314  0.22474363  0.90593116  1
  N  N397  1  0.18596554  0.55534088  0.89837435  1
  N  N398  1  0.19218025  0.88896251  0.90782141  1
  N  N399  1  0.68474270  0.22168112  0.89878828  1
  N  N400  1  0.69447596  0.55718097  0.90861714  1
  N  N401  1  0.68161722  0.89071369  0.89934828  1
  N  N402  1  0.31795239  0.11097906  0.39616649  1
  N  N403  1  0.31444735  0.44284251  0.40645791  1
  N  N404  1  0.30755760  0.77867241  0.40811569  1
  N  N405  1  0.80926873  0.10883787  0.40765545  1
  N  N406  1  0.81537873  0.44332205  0.40031014  1
  N  N407  1  0.81771964  0.77784162  0.39774813  1
  N  N408  1  0.43162537  0.27709099  0.40394484  1
  N  N409  1  0.43607163  0.61089743  0.39891446  1
  N  N410  1  0.44468955  0.94038892  0.41633144  1
  N  N411  1  0.93004784  0.27811536  0.39581424  1
  N  N412  1  0.94256666  0.61291211  0.40943888  1
  N  N413  1  0.93808480  0.94174185  0.40442102  1
  N  N414  1  0.06385499  0.05859842  0.90315244  1
  N  N415  1  0.05823887  0.38730177  0.90314327  1
  N  N416  1  0.06993246  0.72229693  0.89739388  1
  N  N417  1  0.56606565  0.05615863  0.89998599  1
  N  N418  1  0.55312837  0.39085330  0.90992873  1
  N  N419  1  0.56618867  0.72393049  0.90190705  1
  N  N420  1  0.06432590  0.27628294  0.09779506  1
  N  N421  1  0.06330406  0.60969265  0.09758760  1
  N  N422  1  0.05682826  0.94369270  0.09225485  1
  N  N423  1  0.56362297  0.27622735  0.09675219  1
  N  N424  1  0.55695032  0.60941116  0.09263520  1
  N  N425  1  0.56472262  0.94359820  0.09806328  1
  N  N426  1  0.43378898  0.05408471  0.59456562  1
  N  N427  1  0.42637292  0.38731674  0.60420066  1
  N  N428  1  0.43472913  0.72230480  0.59888375  1
  N  N429  1  0.93572653  0.05493640  0.60037487  1
  N  N430  1  0.94435925  0.38976581  0.58826425  1
  N  N431  1  0.93589692  0.72407093  0.59220311  1
  N  N432  1  0.19052118  0.10819225  0.40610940  1
  N  N433  1  0.18704663  0.44173192  0.40594907  1
  N  N434  1  0.17798382  0.77938277  0.39866242  1
  N  N435  1  0.68325432  0.11182067  0.39553477  1
  N  N436  1  0.68616414  0.44606242  0.40165553  1
  N  N437  1  0.69121034  0.77656091  0.40849477  1
  N  N438  1  0.31698567  0.22320022  0.90080254  1
  N  N439  1  0.31207939  0.55771890  0.90677505  1
  N  N440  1  0.32046348  0.88913180  0.89741187  1
  N  N441  1  0.81100098  0.22507650  0.90512900  1
  N  N442  1  0.82258400  0.55601312  0.89675152  1
  N  N443  1  0.80910226  0.89144955  0.90838955  1
  N  N444  1  0.31254575  0.10928097  0.09865337  1
  N  N445  1  0.32298637  0.44397008  0.10190158  1
  N  N446  1  0.31176451  0.77409956  0.09401626  1
  N  N447  1  0.81568302  0.11100989  0.09793626  1
  N  N448  1  0.82008636  0.44431153  0.10506286  1
  N  N449  1  0.80834368  0.77702939  0.09372734  1
  N  N450  1  0.19139422  0.22391739  0.59580499  1
  N  N451  1  0.18361233  0.55608184  0.60030953  1
  N  N452  1  0.18331007  0.88913584  0.59199152  1
  N  N453  1  0.69057163  0.22291955  0.59798697  1
  N  N454  1  0.68107051  0.55552832  0.60279843  1
  N  N455  1  0.67986245  0.88985953  0.60111057  1
  Cl  Cl456  1  0.24917190  0.05109940  0.61601194  1
  Cl  Cl457  1  0.24890539  0.38896127  0.61734091  1
  Cl  Cl458  1  0.25161605  0.72082094  0.61707400  1
  Cl  Cl459  1  0.75278021  0.05423501  0.61247757  1
  Cl  Cl460  1  0.74641206  0.39381167  0.60058954  1
  Cl  Cl461  1  0.74801768  0.72372499  0.61338294  1
  Cl  Cl462  1  0.25079177  0.28405310  0.12192395  1
  Cl  Cl463  1  0.24642388  0.61599386  0.12031125  1
  Cl  Cl464  1  0.24228813  0.94057694  0.10332791  1
  Cl  Cl465  1  0.74775665  0.28152655  0.11986311  1
  Cl  Cl466  1  0.74208440  0.60826814  0.10619076  1
  Cl  Cl467  1  0.74702428  0.95089163  0.12123564  1
  Cl  Cl468  1  0.24845386  0.05028481  0.88096070  1
  Cl  Cl469  1  0.24262621  0.39186573  0.89033311  1
  Cl  Cl470  1  0.25367416  0.72063289  0.88040050  1
  Cl  Cl471  1  0.75108808  0.05411471  0.88458803  1
  Cl  Cl472  1  0.73629799  0.39126794  0.88095577  1
  Cl  Cl473  1  0.75371087  0.71789158  0.88364539  1
  Cl  Cl474  1  0.24041706  0.28070054  0.38915628  1
  Cl  Cl475  1  0.25172634  0.61375559  0.38589795  1
  Cl  Cl476  1  0.25343672  0.94693961  0.37692878  1
  Cl  Cl477  1  0.74881924  0.28122252  0.38554610  1
  Cl  Cl478  1  0.75748508  0.61082066  0.38395856  1
  Cl  Cl479  1  0.75588235  0.94693376  0.38573673  1
  Cl  Cl480  1  0.00469789  0.22575974  0.60627306  1
  Cl  Cl481  1  -0.00454297  0.55784852  0.60624414  1
  Cl  Cl482  1  -0.00610559  0.88351174  0.62369179  1
  Cl  Cl483  1  0.50631347  0.21985080  0.61961033  1
  Cl  Cl484  1  0.49605437  0.54806195  0.62475350  1
  Cl  Cl485  1  0.49817235  0.88574086  0.62255770  1
  Cl  Cl486  1  -0.00006826  0.11463254  0.11943310  1
  Cl  Cl487  1  0.01182707  0.44495798  0.11558617  1
  Cl  Cl488  1  -0.00410414  0.77853166  0.10941668  1
  Cl  Cl489  1  0.49992104  0.11410964  0.11403071  1
  Cl  Cl490  1  0.50803423  0.44304387  0.10796503  1
  Cl  Cl491  1  0.49732994  0.78368122  0.12107701  1
  Cl  Cl492  1  -0.00092305  0.22053540  0.87970347  1
  Cl  Cl493  1  0.00409131  0.55654945  0.88141762  1
  Cl  Cl494  1  0.00625874  0.89247210  0.89455395  1
  Cl  Cl495  1  0.50132272  0.22324932  0.88803779  1
  Cl  Cl496  1  0.50804389  0.55515662  0.89653912  1
  Cl  Cl497  1  0.50181716  0.88948170  0.88775343  1
  Cl  Cl498  1  -0.00197916  0.11116091  0.38973264  1
  Cl  Cl499  1  0.00029831  0.44309831  0.39262403  1
  Cl  Cl500  1  -0.00296139  0.78370073  0.37464416  1
  Cl  Cl501  1  0.50156682  0.11450395  0.37938789  1
  Cl  Cl502  1  0.50153104  0.44288897  0.39290926  1
  Cl  Cl503  1  0.50497003  0.77738734  0.38980448  1
  Cl  Cl504  1  0.36352762  0.14445264  0.75005144  1
  Cl  Cl505  1  0.36182635  0.47669476  0.75197388  1
  Cl  Cl506  1  0.36320601  0.81062836  0.75080235  1
  Cl  Cl507  1  0.86376771  0.14448558  0.74604172  1
  Cl  Cl508  1  0.86432906  0.47804605  0.75344340  1
  Cl  Cl509  1  0.86024073  0.81145494  0.75295692  1
  Cl  Cl510  1  0.13915642  0.19034802  0.25026303  1
  Cl  Cl511  1  0.13924965  0.52037829  0.25257198  1
  Cl  Cl512  1  0.13596288  0.85536030  0.24766260  1
  Cl  Cl513  1  0.63657637  0.18878084  0.25106011  1
  Cl  Cl514  1  0.63743027  0.52127471  0.25159759  1
  Cl  Cl515  1  0.63746032  0.85607745  0.24791411  1
  Cl  Cl516  1  0.14007915  0.14340140  0.74903167  1
  Cl  Cl517  1  0.13713611  0.47687052  0.74727332  1
  Cl  Cl518  1  0.13835110  0.81180823  0.75187038  1
  Cl  Cl519  1  0.63885014  0.14568349  0.75149593  1
  Cl  Cl520  1  0.64014368  0.47717292  0.74674195  1
  Cl  Cl521  1  0.63826092  0.80912001  0.74868901  1
  Cl  Cl522  1  0.36313883  0.19015111  0.25167537  1
  Cl  Cl523  1  0.36207001  0.52066953  0.24823154  1
  Cl  Cl524  1  0.36193037  0.85553552  0.24690972  1
  Cl  Cl525  1  0.85813046  0.19000326  0.25178380  1
  Cl  Cl526  1  0.86303038  0.52162445  0.24770065  1
  Cl  Cl527  1  0.86061567  0.85434104  0.25043716  1
  Cl  Cl528  1  0.11397971  0.31143931  0.74498053  1
  Cl  Cl529  1  0.11147258  0.64352017  0.74833072  1
  Cl  Cl530  1  0.11232610  0.97808429  0.75096505  1
  Cl  Cl531  1  0.60971462  0.31379172  0.74897231  1
  Cl  Cl532  1  0.61241529  0.64248786  0.74922104  1
  Cl  Cl533  1  0.61310570  0.97774235  0.75219025  1
  Cl  Cl534  1  0.38760188  0.02135187  0.24806287  1
  Cl  Cl535  1  0.39035402  0.35763476  0.24978812  1
  Cl  Cl536  1  0.38922575  0.68733945  0.25041720  1
  Cl  Cl537  1  0.88791808  0.02245553  0.24785984  1
  Cl  Cl538  1  0.88681383  0.35564531  0.25336026  1
  Cl  Cl539  1  0.88808467  0.68691079  0.24855495  1
  Cl  Cl540  1  0.38539022  0.31137196  0.75012177  1
  Cl  Cl541  1  0.38878910  0.64312064  0.75143520  1
  Cl  Cl542  1  0.38912397  0.97608578  0.75106008  1
  Cl  Cl543  1  0.89126240  0.31091660  0.74690155  1
  Cl  Cl544  1  0.89083940  0.64307699  0.74810212  1
  Cl  Cl545  1  0.88706920  0.97804412  0.75308276  1
  Cl  Cl546  1  0.11112989  0.02381996  0.24950101  1
  Cl  Cl547  1  0.11033923  0.35625850  0.25189790  1
  Cl  Cl548  1  0.11061391  0.68757702  0.25152112  1
  Cl  Cl549  1  0.61434308  0.02285700  0.25192811  1
  Cl  Cl550  1  0.61038488  0.35695857  0.25126114  1
  Cl  Cl551  1  0.61428708  0.68895615  0.24805279  1
