# generated using pymatgen
data_H8PbC4(N3Cl2)2
_symmetry_space_group_name_H-M   'P 1'
_cell_length_a   16.62034874
_cell_length_b   22.50594918
_cell_length_c   21.58940613
_cell_angle_alpha   90.00126108
_cell_angle_beta   89.99476649
_cell_angle_gamma   90.00384485
_symmetry_Int_Tables_number   1
_chemical_formula_structural   H8PbC4(N3Cl2)2
_chemical_formula_sum   'H192 Pb24 C96 N144 Cl96'
_cell_volume   8075.66247584
_cell_formula_units_Z   24
loop_
 _symmetry_equiv_pos_site_id
 _symmetry_equiv_pos_as_xyz
  1  'x, y, z'
loop_
 _atom_site_type_symbol
 _atom_site_label
 _atom_site_symmetry_multiplicity
 _atom_site_fract_x
 _atom_site_fract_y
 _atom_site_fract_z
 _atom_site_occupancy
  H  H0  1  -0.00467098  0.03135729  0.67760664  1
  H  H1  1  -0.00596037  0.36534647  0.67921473  1
  H  H2  1  -0.00186035  0.69864484  0.67931416  1
  H  H3  1  0.49758532  0.03150369  0.68038305  1
  H  H4  1  0.50620809  0.36578222  0.67940210  1
  H  H5  1  0.50146365  0.69849171  0.68030422  1
  H  H6  1  0.00369427  0.30221987  0.17550174  1
  H  H7  1  0.00262811  0.63529915  0.17573732  1
  H  H8  1  -0.00215949  0.96917697  0.17725411  1
  H  H9  1  0.50909819  0.29988226  0.17610024  1
  H  H10  1  0.49917868  0.63516940  0.18101704  1
  H  H11  1  0.50033981  0.96847569  0.18051281  1
  H  H12  1  -0.00878590  0.03192242  0.82059264  1
  H  H13  1  0.01172502  0.36298551  0.82267328  1
  H  H14  1  -0.00040507  0.69786549  0.82132503  1
  H  H15  1  0.51007160  0.03056338  0.82110295  1
  H  H16  1  0.49020140  0.36386268  0.82396130  1
  H  H17  1  0.49177567  0.69656659  0.81831126  1
  H  H18  1  0.01200117  0.30447174  0.32184090  1
  H  H19  1  -0.01659778  0.63627275  0.32074262  1
  H  H20  1  -0.00076494  0.96814319  0.31995926  1
  H  H21  1  0.48820678  0.30145041  0.31714435  1
  H  H22  1  0.50992309  0.63495069  0.32069854  1
  H  H23  1  0.50573924  0.96822558  0.32030413  1
  H  H24  1  0.25155673  0.19757874  0.68253346  1
  H  H25  1  0.24406843  0.53044819  0.68012461  1
  H  H26  1  0.25811419  0.86369098  0.67933149  1
  H  H27  1  0.75351041  0.19628333  0.68048094  1
  H  H28  1  0.74840981  0.52432334  0.67751977  1
  H  H29  1  0.74339843  0.86464621  0.68158455  1
  H  H30  1  0.25526546  0.13735167  0.17584857  1
  H  H31  1  0.24811621  0.47693773  0.17718817  1
  H  H32  1  0.24544524  0.80316977  0.17911669  1
  H  H33  1  0.74083784  0.13642641  0.18233806  1
  H  H34  1  0.75792909  0.46863897  0.17658470  1
  H  H35  1  0.74701902  0.80243809  0.17708719  1
  H  H36  1  0.24695337  0.19670190  0.82037162  1
  H  H37  1  0.24340369  0.53207372  0.82028003  1
  H  H38  1  0.25654501  0.86628556  0.82259278  1
  H  H39  1  0.74206103  0.19890825  0.82271383  1
  H  H40  1  0.74239218  0.53056415  0.82324557  1
  H  H41  1  0.74538053  0.86380473  0.82217810  1
  H  H42  1  0.25476501  0.13315735  0.32043102  1
  H  H43  1  0.24252633  0.46724064  0.32377819  1
  H  H44  1  0.25296172  0.80338438  0.31804671  1
  H  H45  1  0.75450863  0.13674755  0.32112579  1
  H  H46  1  0.75906545  0.46655304  0.31769433  1
  H  H47  1  0.75476775  0.80321366  0.32119624  1
  H  H48  1  0.13166328  0.05031759  0.61897769  1
  H  H49  1  0.12280171  0.38670585  0.61578688  1
  H  H50  1  0.12637038  0.72168858  0.61072334  1
  H  H51  1  0.63384932  0.05295838  0.62077412  1
  H  H52  1  0.61752235  0.38939943  0.59832801  1
  H  H53  1  0.62722983  0.71965567  0.61323502  1
  H  H54  1  0.37017843  0.28223243  0.12288197  1
  H  H55  1  0.37379429  0.61319256  0.11054259  1
  H  H56  1  0.37631218  0.94655912  0.11041448  1
  H  H57  1  0.87130682  0.28230208  0.11168921  1
  H  H58  1  0.87037393  0.61236533  0.11364706  1
  H  H59  1  0.87930389  0.94331540  0.10305306  1
  H  H60  1  0.37083904  0.04948398  0.87660621  1
  H  H61  1  0.38348625  0.39309623  0.90712305  1
  H  H62  1  0.37508356  0.72219730  0.89492998  1
  H  H63  1  0.87971190  0.05619748  0.89943664  1
  H  H64  1  0.87460445  0.38484082  0.87831812  1
  H  H65  1  0.87406307  0.72114198  0.88979012  1
  H  H66  1  0.11768543  0.27619302  0.40680502  1
  H  H67  1  0.12316896  0.61487611  0.37479240  1
  H  H68  1  0.12020577  0.94657766  0.39155346  1
  H  H69  1  0.62537095  0.28328199  0.37259824  1
  H  H70  1  0.61901290  0.61025405  0.40301071  1
  H  H71  1  0.61927365  0.94098471  0.40009773  1
  H  H72  1  0.37683484  0.21991234  0.61271603  1
  H  H73  1  0.37641069  0.55348621  0.61622978  1
  H  H74  1  0.37443732  0.88927642  0.60087084  1
  H  H75  1  0.87717406  0.22113441  0.60987207  1
  H  H76  1  0.87431693  0.55247538  0.61009583  1
  H  H77  1  0.87970284  0.88355397  0.62513656  1
  H  H78  1  0.12727650  0.11315775  0.10945637  1
  H  H79  1  0.12399461  0.44611602  0.10953019  1
  H  H80  1  0.12198111  0.78002698  0.10644603  1
  H  H81  1  0.62934740  0.11318036  0.10128090  1
  H  H82  1  0.62285319  0.44652061  0.11694060  1
  H  H83  1  0.62755372  0.77331232  0.10451495  1
  H  H84  1  0.13122084  0.22337453  0.89841847  1
  H  H85  1  0.12817025  0.55784151  0.89740689  1
  H  H86  1  0.12135148  0.88394336  0.88084029  1
  H  H87  1  0.63184105  0.22522421  0.90375880  1
  H  H88  1  0.63146665  0.55790162  0.90357272  1
  H  H89  1  0.62319545  0.88975754  0.89279791  1
  H  H90  1  0.36343089  0.10745250  0.40189908  1
  H  H91  1  0.38045189  0.44950819  0.37735955  1
  H  H92  1  0.37285914  0.78031956  0.39237772  1
  H  H93  1  0.86765407  0.10934731  0.40143443  1
  H  H94  1  0.87804182  0.44433105  0.39517909  1
  H  H95  1  0.87027935  0.77752658  0.39986717  1
  H  H96  1  0.37851746  0.27820035  0.39860259  1
  H  H97  1  0.37185755  0.61415067  0.37750490  1
  H  H98  1  0.37163648  0.94889839  0.38322324  1
  H  H99  1  0.87209301  0.28440655  0.37368826  1
  H  H100  1  0.87869643  0.60940942  0.40742303  1
  H  H101  1  0.87083491  0.94650982  0.38680031  1
  H  H102  1  0.12719428  0.04961415  0.87897114  1
  H  H103  1  0.12079509  0.39362122  0.90423847  1
  H  H104  1  0.12295528  0.72152289  0.89392374  1
  H  H105  1  0.61767776  0.05767100  0.90319573  1
  H  H106  1  0.62860782  0.38135083  0.88063386  1
  H  H107  1  0.62341271  0.71909872  0.88286210  1
  H  H108  1  0.11954929  0.27396680  0.10096498  1
  H  H109  1  0.11875937  0.60985801  0.09914866  1
  H  H110  1  0.12803581  0.94816482  0.11184235  1
  H  H111  1  0.61591355  0.27694135  0.09357947  1
  H  H112  1  0.62318995  0.61086850  0.10955223  1
  H  H113  1  0.62585514  0.94545877  0.11269271  1
  H  H114  1  0.38532628  0.05461487  0.60068494  1
  H  H115  1  0.36974685  0.38534438  0.62066542  1
  H  H116  1  0.37799781  0.72266551  0.61029994  1
  H  H117  1  0.88488982  0.05761971  0.59600453  1
  H  H118  1  0.87371109  0.38811556  0.60489775  1
  H  H119  1  0.87734826  0.72157797  0.60527933  1
  H  H120  1  0.11621587  0.11414719  0.37746859  1
  H  H121  1  0.13529753  0.44244469  0.40436552  1
  H  H122  1  0.12381584  0.78118939  0.38594800  1
  H  H123  1  0.62035752  0.11358606  0.38344390  1
  H  H124  1  0.62975254  0.44630822  0.38627461  1
  H  H125  1  0.62217098  0.78026864  0.38321151  1
  H  H126  1  0.37950767  0.21900125  0.88306431  1
  H  H127  1  0.37656824  0.55209602  0.88372518  1
  H  H128  1  0.36795111  0.88958580  0.90026381  1
  H  H129  1  0.87875666  0.21916353  0.88139929  1
  H  H130  1  0.87863536  0.55153218  0.88203436  1
  H  H131  1  0.87246848  0.88771172  0.89044758  1
  H  H132  1  0.37609701  0.11202939  0.10346610  1
  H  H133  1  0.37247113  0.44352665  0.11103621  1
  H  H134  1  0.37045515  0.78021776  0.10806922  1
  H  H135  1  0.87678139  0.11554933  0.12172430  1
  H  H136  1  0.86983730  0.44175983  0.09647644  1
  H  H137  1  0.87551103  0.78269862  0.10985478  1
  H  H138  1  0.12683048  0.22381661  0.61246307  1
  H  H139  1  0.12815141  0.55455696  0.60239708  1
  H  H140  1  0.12641671  0.88652718  0.61731045  1
  H  H141  1  0.62841519  0.22086853  0.61036667  1
  H  H142  1  0.62599571  0.55577918  0.60918802  1
  H  H143  1  0.63236735  0.88796613  0.60108757  1
  H  H144  1  0.04808890  0.41834404  1.00542870  1
  H  H145  1  0.43482811  0.75250862  1.00073490  1
  H  H146  1  0.88777021  0.25291056  0.48717572  1
  H  H147  1  0.90605600  0.58290653  0.00600676  1
  H  H148  1  0.39212435  0.07887397  0.98497276  1
  H  H149  1  0.18756226  0.58039647  0.49573549  1
  H  H150  1  0.68437040  0.57537523  0.50245436  1
  H  H151  1  0.58602475  0.91763839  0.00149518  1
  H  H152  1  0.60503406  0.41517554  0.98687140  1
  H  H153  1  0.34835761  0.24981383  0.99445794  1
  H  H154  1  0.07319862  0.91667925  0.50174807  1
  H  H155  1  0.83597457  0.74451885  0.00921070  1
  H  H156  1  0.44938235  0.08108984  0.49309108  1
  H  H157  1  0.08597477  0.41863971  0.50259041  1
  H  H158  1  0.16695362  0.08260993  0.00398433  1
  H  H159  1  0.44482394  0.25447603  0.50643991  1
  H  H160  1  0.31888786  0.75308537  0.50035268  1
  H  H161  1  0.17661084  0.24651198  0.50543864  1
  H  H162  1  0.81533702  0.56283150  0.50270459  1
  H  H163  1  0.29473735  0.07805137  0.50728812  1
  H  H164  1  0.39708708  0.58674196  0.48623590  1
  H  H165  1  0.60503760  0.25544869  0.48662214  1
  H  H166  1  0.55022191  0.91281649  0.50115883  1
  H  H167  1  0.17481272  0.75107636  0.00277597  1
  H  H168  1  0.68268546  0.75666509  0.00034266  1
  H  H169  1  0.07953738  0.75008048  0.50570649  1
  H  H170  1  0.55079988  0.58663033  0.50949134  1
  H  H171  1  0.42116021  0.58459276  0.00175805  1
  H  H172  1  0.42031458  0.91640373  0.00073348  1
  H  H173  1  0.31452938  0.42902431  0.00400204  1
  H  H174  1  0.54751387  0.08835450  1.00756107  1
  H  H175  1  0.58793177  0.75071991  0.50150595  1
  H  H176  1  0.39113239  0.41390442  0.51018847  1
  H  H177  1  0.45834430  0.40045028  1.00824383  1
  H  H178  1  0.94081764  0.08642805  1.00568822  1
  H  H179  1  0.69740234  0.08505071  -0.00424590  1
  H  H180  1  0.32892909  0.24689984  0.50100705  1
  H  H181  1  0.04149240  0.25704561  0.50742627  1
  H  H182  1  0.13837953  0.08428675  0.48692454  1
  H  H183  1  0.18468007  0.43216196  0.00328401  1
  H  H184  1  0.86084361  0.91253549  0.51180024  1
  H  H185  1  0.90702304  0.25079121  0.00567729  1
  H  H186  1  0.60415117  0.08023941  0.51267994  1
  H  H187  1  0.55254879  0.41708777  0.49238902  1
  H  H188  1  0.95879342  0.58688349  0.50628829  1
  H  H189  1  0.69739906  0.91425362  0.49366636  1
  H  H190  1  0.82772022  0.91629379  0.99554355  1
  H  H191  1  0.09329396  0.91624081  0.00595233  1
  Pb  Pb192  1  0.24869296  0.04692506  0.74611511  1
  Pb  Pb193  1  0.24960189  0.38087082  0.76182094  1
  Pb  Pb194  1  0.24603377  0.71398337  0.75381402  1
  Pb  Pb195  1  0.75161887  0.04612956  0.75522527  1
  Pb  Pb196  1  0.74602298  0.38022441  0.74526997  1
  Pb  Pb197  1  0.74857796  0.71419466  0.75497769  1
  Pb  Pb198  1  0.24565266  0.28293301  0.25875894  1
  Pb  Pb199  1  0.25010050  0.62086158  0.24566539  1
  Pb  Pb200  1  0.24889234  0.95489925  0.24854236  1
  Pb  Pb201  1  0.74907120  0.28886015  0.24219759  1
  Pb  Pb202  1  0.74901121  0.62023996  0.25942746  1
  Pb  Pb203  1  0.75277002  0.95073800  0.24802120  1
  Pb  Pb204  1  -0.00301249  0.21518619  0.74845392  1
  Pb  Pb205  1  -0.00349716  0.54712734  0.74819844  1
  Pb  Pb206  1  0.00008312  0.87935041  0.75514528  1
  Pb  Pb207  1  0.50091485  0.21277774  0.75034343  1
  Pb  Pb208  1  0.49775611  0.54849232  0.75134223  1
  Pb  Pb209  1  0.49768470  0.88122438  0.74702391  1
  Pb  Pb210  1  -0.00398055  0.11993276  0.25045965  1
  Pb  Pb211  1  -0.00031834  0.45367738  0.24909109  1
  Pb  Pb212  1  0.00316481  0.78493554  0.25274494  1
  Pb  Pb213  1  0.50292662  0.11880406  0.24961188  1
  Pb  Pb214  1  0.49885354  0.45283410  0.24646927  1
  Pb  Pb215  1  0.49867231  0.78735482  0.24802481  1
  C  C216  1  0.00392458  0.04646206  0.63051493  1
  C  C217  1  -0.00248914  0.38048342  0.63169589  1
  C  C218  1  0.00114482  0.71376989  0.63172098  1
  C  C219  1  0.50623136  0.04634937  0.63290283  1
  C  C220  1  0.49725338  0.38064355  0.63182747  1
  C  C221  1  0.50273039  0.71373599  0.63274221  1
  C  C222  1  -0.00228487  0.28644530  0.12830521  1
  C  C223  1  -0.00316847  0.61946577  0.12854119  1
  C  C224  1  0.00210347  0.95334471  0.12990580  1
  C  C225  1  0.49804482  0.28614748  0.12888526  1
  C  C226  1  0.49869460  0.61955702  0.13355465  1
  C  C227  1  0.50087740  0.95314962  0.13276418  1
  C  C228  1  -0.00081275  0.04617907  0.86813342  1
  C  C229  1  0.00284999  0.37904994  0.86941892  1
  C  C230  1  -0.00088052  0.71328736  0.86865925  1
  C  C231  1  0.49876863  0.04602902  0.86813582  1
  C  C232  1  0.50074612  0.37871065  0.87124668  1
  C  C233  1  0.49704338  0.71241438  0.86559318  1
  C  C234  1  0.00074449  0.28949897  0.36905928  1
  C  C235  1  -0.00542404  0.62130398  0.36771554  1
  C  C236  1  -0.00278695  0.95364712  0.36772913  1
  C  C237  1  0.49771373  0.28731693  0.36476124  1
  C  C238  1  0.49967430  0.61983780  0.36792898  1
  C  C239  1  0.49909281  0.95291018  0.36765145  1
  C  C240  1  0.25119923  0.21287186  0.63472010  1
  C  C241  1  0.24986179  0.54565955  0.63255332  1
  C  C242  1  0.25330043  0.87964268  0.63225066  1
  C  C243  1  0.75274831  0.21229490  0.63333490  1
  C  C244  1  0.74976375  0.54267356  0.63101117  1
  C  C245  1  0.75218468  0.87884317  0.63393609  1
  C  C246  1  0.25243731  0.12067570  0.12870434  1
  C  C247  1  0.24826248  0.45750178  0.13112790  1
  C  C248  1  0.24574698  0.78780822  0.13149315  1
  C  C249  1  0.74928502  0.12145014  0.13499200  1
  C  C250  1  0.74978690  0.45328357  0.12960036  1
  C  C251  1  0.75000704  0.78619305  0.12966634  1
  C  C252  1  0.25263863  0.21285077  0.86750284  1
  C  C253  1  0.24979221  0.54741349  0.86743525  1
  C  C254  1  0.24836449  0.87998474  0.87022010  1
  C  C255  1  0.75127972  0.21393500  0.86969357  1
  C  C256  1  0.75116579  0.54649139  0.86996932  1
  C  C257  1  0.74750204  0.87989505  0.86942548  1
  C  C258  1  0.24401158  0.11876583  0.36786137  1
  C  C259  1  0.25313959  0.45282896  0.37103597  1
  C  C260  1  0.24960861  0.78822776  0.36568146  1
  C  C261  1  0.74742114  0.12060939  0.36818643  1
  C  C262  1  0.75554528  0.45295942  0.36585215  1
  C  C263  1  0.74926484  0.78710045  0.36818963  1
  C  C264  1  0.46101859  0.59380337  0.04065848  1
  C  C265  1  0.54467190  0.74076754  0.53904612  1
  C  C266  1  0.54344281  0.92741599  0.03913367  1
  C  C267  1  0.02931637  0.25451965  0.03393431  1
  C  C268  1  0.93719775  0.26173523  0.45384662  1
  C  C269  1  0.48028108  0.07226035  0.53655038  1
  C  C270  1  0.72793867  0.09484374  0.03923948  1
  C  C271  1  0.81077563  0.90306397  0.54513790  1
  C  C272  1  0.52071573  0.40683272  0.53519266  1
  C  C273  1  0.72931206  0.57729565  0.96482005  1
  C  C274  1  0.31412680  0.42789227  0.45804202  1
  C  C275  1  0.96187939  0.40832005  0.53748451  1
  C  C276  1  0.22280773  0.57683117  0.96174212  1
  C  C277  1  0.52164327  0.59466004  0.46516037  1
  C  C278  1  0.26539587  0.09042831  0.46408307  1
  C  C279  1  0.73004965  0.24439571  0.96477784  1
  C  C280  1  0.95075908  0.92768166  0.45983498  1
  C  C281  1  0.70064961  0.75923341  0.45789123  1
  C  C282  1  0.70786397  0.90950344  0.96296473  1
  C  C283  1  0.28161237  0.76248752  0.45994651  1
  C  C284  1  0.28962660  0.09062837  0.03464864  1
  C  C285  1  0.30060126  0.23964634  0.95761941  1
  C  C286  1  0.47570670  0.26316935  0.46285769  1
  C  C287  1  0.46291473  0.74167734  0.53959420  1
  C  C288  1  0.72935496  0.90431846  0.53643827  1
  C  C289  1  0.29237664  0.23963036  0.54200942  1
  C  C290  1  0.22251154  0.57115180  0.53725793  1
  C  C291  1  0.79027215  0.24085606  0.54048188  1
  C  C292  1  0.95870359  0.74018037  0.96122712  1
  C  C293  1  0.55684394  0.26421870  0.45350138  1
  C  C294  1  0.05721135  0.07121633  0.54162804  1
  C  C295  1  0.43710851  0.26241576  0.04192385  1
  C  C296  1  0.46944583  0.74114870  0.95967828  1
  C  C297  1  0.96836882  0.92378093  0.03484613  1
  C  C298  1  0.77296080  0.42440205  0.03416025  1
  C  C299  1  0.04348966  0.40810797  0.53949642  1
  C  C300  1  0.97546147  0.07424144  0.96495435  1
  C  C301  1  0.20526969  0.90796308  0.54269961  1
  C  C302  1  0.51657257  0.26022018  0.03232155  1
  C  C303  1  0.03257388  0.92699324  0.46305893  1
  C  C304  1  0.51868151  0.07543579  0.96430886  1
  C  C305  1  0.46118119  0.92715702  0.03859293  1
  C  C306  1  0.02821096  0.58919809  0.03350178  1
  C  C307  1  0.23375799  0.42528699  0.46705832  1
  C  C308  1  0.94249322  0.41003698  0.95549750  1
  C  C309  1  0.27322952  0.90621595  0.96596303  1
  C  C310  1  0.19233723  0.90414153  0.95914436  1
  C  C311  1  0.05645496  0.07131333  0.95651064  1
  N  N312  1  0.04097856  0.73908522  0.54109048  1
  N  N313  1  0.98035033  0.07431752  0.53314409  1
  N  N314  1  0.71137874  0.58377622  0.54455099  1
  N  N315  1  0.28241608  0.90899115  0.53621906  1
  N  N316  1  0.44017266  0.07220192  0.95411673  1
  N  N317  1  0.44168654  0.40547633  0.54364672  1
  N  N318  1  0.48177484  0.41024719  0.96527980  1
  N  N319  1  0.80667292  0.09433738  0.04644827  1
  N  N320  1  0.98163641  0.59183068  0.46204928  1
  N  N321  1  0.04726592  0.92547542  0.03960185  1
  N  N322  1  0.78762237  0.43008134  0.46196024  1
  N  N323  1  0.28954823  0.41555830  0.04547159  1
  N  N324  1  0.79454361  0.76536992  0.03781083  1
  N  N325  1  0.52169573  0.92594659  0.46142088  1
  N  N326  1  0.96289485  0.73932710  0.53756192  1
  N  N327  1  0.03663199  0.74083220  0.96360052  1
  N  N328  1  0.77783462  0.75801572  0.46453082  1
  N  N329  1  0.78717942  0.90813233  0.96071466  1
  N  N330  1  0.44403704  0.92853107  0.45706687  1
  N  N331  1  0.77243610  0.09064954  0.46338246  1
  N  N332  1  0.05869528  0.59439738  0.45245727  1
  N  N333  1  0.20217254  0.76197952  0.45822771  1
  N  N334  1  0.54036406  0.59245497  0.03977780  1
  N  N335  1  0.21044899  0.09145111  0.03791201  1
  N  N336  1  0.71655438  0.75057669  0.03973113  1
  N  N337  1  0.94944834  0.59062527  0.03949763  1
  N  N338  1  0.02073567  0.41115752  0.96340579  1
  N  N339  1  0.80650860  0.57498282  0.95895513  1
  N  N340  1  0.69629245  0.09269732  0.45758357  1
  N  N341  1  0.01590652  0.25874016  0.46405810  1
  N  N342  1  0.22161420  0.24114549  0.96343609  1
  N  N343  1  0.30043941  0.57462868  0.95875118  1
  N  N344  1  0.44312683  0.59454223  0.45495340  1
  N  N345  1  0.95062344  0.25842093  0.03893972  1
  N  N346  1  0.21291309  0.24206691  0.54336383  1
  N  N347  1  0.18673255  0.09285748  0.45454028  1
  N  N348  1  0.69579516  0.42700133  0.03946567  1
  N  N349  1  0.55920935  0.07226145  0.54492080  1
  N  N350  1  0.30165615  0.57169666  0.54143826  1
  N  N351  1  0.20722051  0.41641864  0.04469677  1
  N  N352  1  0.71241748  0.24143545  0.53949123  1
  N  N353  1  0.79258754  0.58001324  0.54344057  1
  N  N354  1  0.54873530  0.74065077  0.95601803  1
  N  N355  1  0.80712576  0.24172327  0.95863289  1
  N  N356  1  0.28908455  0.76222772  0.03857563  1
  N  N357  1  0.55957260  0.39852075  0.95822818  1
  N  N358  1  0.71108922  0.43067953  0.45916251  1
  N  N359  1  0.21085732  0.76170059  0.03963443  1
  N  N360  1  0.07439104  0.05490889  0.60122273  1
  N  N361  1  0.06434561  0.39083526  0.59927625  1
  N  N362  1  0.06603398  0.72366574  0.59793393  1
  N  N363  1  0.57502209  0.05602756  0.60413108  1
  N  N364  1  0.55566663  0.39172064  0.58989323  1
  N  N365  1  0.56803733  0.72330128  0.59838226  1
  N  N366  1  0.42585774  0.27781452  0.10167594  1
  N  N367  1  0.43387787  0.60984256  0.09802574  1
  N  N368  1  0.43633867  0.94314690  0.09710349  1
  N  N369  1  0.93049411  0.27836516  0.09694393  1
  N  N370  1  0.92947425  0.60967425  0.09792571  1
  N  N371  1  0.94011235  0.94101274  0.09104192  1
  N  N372  1  0.42842369  0.05356319  0.89522244  1
  N  N373  1  0.44494133  0.38762025  0.91410268  1
  N  N374  1  0.43629202  0.72444362  0.90454956  1
  N  N375  1  0.94082788  0.05824929  0.90864431  1
  N  N376  1  0.93136022  0.39077309  0.89718922  1
  N  N377  1  0.93367964  0.72399728  0.90369283  1
  N  N378  1  0.05507414  0.27979157  0.41274610  1
  N  N379  1  0.06588608  0.61037912  0.39310882  1
  N  N380  1  0.06005396  0.94335343  0.40433774  1
  N  N381  1  0.56878052  0.27892469  0.39256465  1
  N  N382  1  0.55731304  0.60974944  0.41092130  1
  N  N383  1  0.55714592  0.94063038  0.40756895  1
  N  N384  1  0.31668638  0.22297337  0.59910390  1
  N  N385  1  0.31707095  0.55548210  0.60141578  1
  N  N386  1  0.31268200  0.89083553  0.59327257  1
  N  N387  1  0.81712723  0.22348582  0.59728784  1
  N  N388  1  0.81420872  0.55240778  0.59664538  1
  N  N389  1  0.82289753  0.88746880  0.60580183  1
  N  N390  1  0.18730589  0.10999834  0.09579687  1
  N  N391  1  0.18444559  0.44559477  0.09678213  1
  N  N392  1  0.18293986  0.77705330  0.09563826  1
  N  N393  1  0.69108172  0.11100754  0.09329055  1
  N  N394  1  0.68120146  0.44508324  0.10015271  1
  N  N395  1  0.68818614  0.77511887  0.09280291  1
  N  N396  1  0.19332755  0.22424755  0.90676555  1
  N  N397  1  0.18942048  0.56031641  0.90719173  1
  N  N398  1  0.17818317  0.88845118  0.89998172  1
  N  N399  1  0.69357304  0.22721575  0.91152974  1
  N  N400  1  0.69310854  0.56012661  0.91145358  1
  N  N401  1  0.68323379  0.89232535  0.90626989  1
  N  N402  1  0.30154023  0.10682224  0.41046193  1
  N  N403  1  0.32498268  0.44441793  0.39848348  1
  N  N404  1  0.31201192  0.77788735  0.40353165  1
  N  N405  1  0.80546942  0.10782502  0.40812506  1
  N  N406  1  0.81650967  0.44362635  0.40430867  1
  N  N407  1  0.80837189  0.77588009  0.40734026  1
  N  N408  1  0.43987222  0.27749744  0.40702438  1
  N  N409  1  0.42993018  0.61019236  0.39526143  1
  N  N410  1  0.43058109  0.94489833  0.39844210  1
  N  N411  1  0.92818507  0.27890438  0.39440662  1
  N  N412  1  0.94093249  0.61124991  0.41177655  1
  N  N413  1  0.92999582  0.94377848  0.40203112  1
  N  N414  1  0.06998282  0.05455023  0.89778774  1
  N  N415  1  0.05928990  0.38999592  0.91118225  1
  N  N416  1  0.06173902  0.72370816  0.90462497  1
  N  N417  1  0.55549577  0.05939524  0.91080872  1
  N  N418  1  0.57104596  0.38838406  0.89798420  1
  N  N419  1  0.56391287  0.72253921  0.89711955  1
  N  N420  1  0.05885345  0.27210982  0.08910299  1
  N  N421  1  0.05780422  0.60686313  0.08868218  1
  N  N422  1  0.06837229  0.94346869  0.09792580  1
  N  N423  1  0.55421172  0.27459761  0.08529127  1
  N  N424  1  0.56211781  0.60851829  0.09808401  1
  N  N425  1  0.56647888  0.94351641  0.09812121  1
  N  N426  1  0.44699489  0.05668946  0.59132050  1
  N  N427  1  0.42810842  0.38957765  0.60321133  1
  N  N428  1  0.43788720  0.72537800  0.59616570  1
  N  N429  1  0.94715784  0.05838040  0.58970003  1
  N  N430  1  0.93428621  0.39172294  0.59313837  1
  N  N431  1  0.93849729  0.72373815  0.59452343  1
  N  N432  1  0.17403740  0.11041049  0.39542752  1
  N  N433  1  0.19664155  0.44045507  0.41391930  1
  N  N434  1  0.18410940  0.77830559  0.39891162  1
  N  N435  1  0.67938365  0.11125084  0.39864671  1
  N  N436  1  0.69005189  0.44462650  0.39959707  1
  N  N437  1  0.68065463  0.77626563  0.39940288  1
  N  N438  1  0.32079969  0.22278983  0.89883346  1
  N  N439  1  0.31720415  0.55646746  0.89838425  1
  N  N440  1  0.30712826  0.89154045  0.91169207  1
  N  N441  1  0.82041894  0.22260472  0.89820246  1
  N  N442  1  0.82010181  0.55580295  0.89849315  1
  N  N443  1  0.81205172  0.88935209  0.90345873  1
  N  N444  1  0.31580978  0.10857604  0.09115981  1
  N  N445  1  0.31229936  0.44437970  0.09746013  1
  N  N446  1  0.31014228  0.77841610  0.09604360  1
  N  N447  1  0.81801322  0.11081080  0.10606107  1
  N  N448  1  0.80835280  0.44036018  0.08831466  1
  N  N449  1  0.81580810  0.77620114  0.09694685  1
  N  N450  1  0.18739978  0.22232874  0.59953136  1
  N  N451  1  0.18936559  0.55574389  0.59278781  1
  N  N452  1  0.18484331  0.89060664  0.60079768  1
  N  N453  1  0.68911931  0.22333727  0.59879902  1
  N  N454  1  0.68654017  0.55629559  0.59651870  1
  N  N455  1  0.69401050  0.88928460  0.59228868  1
  Cl  Cl456  1  0.26115435  0.05529264  0.61082260  1
  Cl  Cl457  1  0.24808289  0.38152335  0.63059790  1
  Cl  Cl458  1  0.25021290  0.72129699  0.62008902  1
  Cl  Cl459  1  0.75918296  0.05423952  0.62324852  1
  Cl  Cl460  1  0.74516825  0.38600584  0.61633674  1
  Cl  Cl461  1  0.75492022  0.71751527  0.62446952  1
  Cl  Cl462  1  0.24136235  0.27923990  0.12785106  1
  Cl  Cl463  1  0.24510139  0.61252313  0.11397917  1
  Cl  Cl464  1  0.25127126  0.95034497  0.11519026  1
  Cl  Cl465  1  0.74457167  0.28179417  0.10934602  1
  Cl  Cl466  1  0.74713856  0.61547051  0.12622234  1
  Cl  Cl467  1  0.75498743  0.94144648  0.11284792  1
  Cl  Cl468  1  0.24999527  0.05206407  0.87902603  1
  Cl  Cl469  1  0.25459197  0.40205969  0.90306005  1
  Cl  Cl470  1  0.24700776  0.72171863  0.88939217  1
  Cl  Cl471  1  0.74234577  0.05362784  0.89111828  1
  Cl  Cl472  1  0.75016068  0.38206956  0.87997986  1
  Cl  Cl473  1  0.74998708  0.72461863  0.89250760  1
  Cl  Cl474  1  0.24196834  0.27222856  0.40026071  1
  Cl  Cl475  1  0.24808716  0.61289123  0.37988156  1
  Cl  Cl476  1  0.24701644  0.95087332  0.37885793  1
  Cl  Cl477  1  0.74960759  0.28426734  0.37292607  1
  Cl  Cl478  1  0.75043039  0.60335655  0.40280648  1
  Cl  Cl479  1  0.74069137  0.94245543  0.38268185  1
  Cl  Cl480  1  0.00426680  0.22825806  0.60797763  1
  Cl  Cl481  1  -0.00284302  0.55919759  0.60684326  1
  Cl  Cl482  1  0.00486190  0.88477566  0.62373253  1
  Cl  Cl483  1  0.50050648  0.22038181  0.61491236  1
  Cl  Cl484  1  0.50444866  0.55573440  0.61255229  1
  Cl  Cl485  1  0.50570193  0.89036447  0.60797069  1
  Cl  Cl486  1  0.00395145  0.11570482  0.11688688  1
  Cl  Cl487  1  0.00106155  0.44219073  0.10513612  1
  Cl  Cl488  1  -0.00106174  0.78342696  0.11841357  1
  Cl  Cl489  1  0.50311112  0.11226369  0.11273400  1
  Cl  Cl490  1  0.49414719  0.43683158  0.10969844  1
  Cl  Cl491  1  0.49927885  0.77560062  0.11409874  1
  Cl  Cl492  1  0.00716015  0.22377182  0.88195377  1
  Cl  Cl493  1  0.00416877  0.55220934  0.88226580  1
  Cl  Cl494  1  -0.00567435  0.88871442  0.88922757  1
  Cl  Cl495  1  0.50694913  0.21900305  0.88242611  1
  Cl  Cl496  1  0.50427325  0.55121705  0.88338412  1
  Cl  Cl497  1  0.49773831  0.88967586  0.88066143  1
  Cl  Cl498  1  -0.00978719  0.11524732  0.38222232  1
  Cl  Cl499  1  0.00418945  0.44508400  0.38282099  1
  Cl  Cl500  1  -0.00184787  0.77870211  0.38669282  1
  Cl  Cl501  1  0.48982992  0.10780449  0.38656278  1
  Cl  Cl502  1  0.50882895  0.44718988  0.38045210  1
  Cl  Cl503  1  0.49833836  0.78095990  0.38150425  1
  Cl  Cl504  1  0.36396455  0.14562251  0.75099284  1
  Cl  Cl505  1  0.36617769  0.47884773  0.74963342  1
  Cl  Cl506  1  0.36268735  0.81251056  0.74864213  1
  Cl  Cl507  1  0.86443237  0.14684364  0.75684712  1
  Cl  Cl508  1  0.86434074  0.47805023  0.75092894  1
  Cl  Cl509  1  0.86442456  0.81286484  0.75255312  1
  Cl  Cl510  1  0.13612927  0.18918845  0.25523427  1
  Cl  Cl511  1  0.13872054  0.51959188  0.25044957  1
  Cl  Cl512  1  0.13902310  0.85311597  0.25049346  1
  Cl  Cl513  1  0.63847613  0.18725215  0.25453224  1
  Cl  Cl514  1  0.63521698  0.52108877  0.24821076  1
  Cl  Cl515  1  0.63599395  0.85350819  0.24608491  1
  Cl  Cl516  1  0.14529469  0.14465651  0.74943312  1
  Cl  Cl517  1  0.14585815  0.47943803  0.75129934  1
  Cl  Cl518  1  0.13970728  0.81132996  0.75333618  1
  Cl  Cl519  1  0.63908484  0.14619079  0.74704812  1
  Cl  Cl520  1  0.64557909  0.47813939  0.74943433  1
  Cl  Cl521  1  0.64326382  0.81245334  0.75315255  1
  Cl  Cl522  1  0.35349577  0.18691565  0.25200736  1
  Cl  Cl523  1  0.36240825  0.52043638  0.25303959  1
  Cl  Cl524  1  0.36042041  0.85435497  0.24584925  1
  Cl  Cl525  1  0.86072272  0.18822656  0.24459901  1
  Cl  Cl526  1  0.85941848  0.51905962  0.24709942  1
  Cl  Cl527  1  0.85603629  0.85529569  0.25031465  1
  Cl  Cl528  1  0.11563248  0.31207576  0.74890013  1
  Cl  Cl529  1  0.11237224  0.64599782  0.74827373  1
  Cl  Cl530  1  0.11312639  0.97975103  0.75142394  1
  Cl  Cl531  1  0.60837363  0.31567120  0.75117210  1
  Cl  Cl532  1  0.61622827  0.64594790  0.75166807  1
  Cl  Cl533  1  0.61355848  0.97953422  0.74676685  1
  Cl  Cl534  1  0.38629994  0.02074521  0.25192181  1
  Cl  Cl535  1  0.38954697  0.35276987  0.24701545  1
  Cl  Cl536  1  0.38739451  0.68629596  0.25320917  1
  Cl  Cl537  1  0.88886673  0.01965082  0.24676686  1
  Cl  Cl538  1  0.88818048  0.35325613  0.24869691  1
  Cl  Cl539  1  0.88649591  0.68671917  0.24686267  1
  Cl  Cl540  1  0.38882210  0.31317738  0.75030318  1
  Cl  Cl541  1  0.39491365  0.64461389  0.74616885  1
  Cl  Cl542  1  0.39410323  0.98018395  0.75126738  1
  Cl  Cl543  1  0.89526017  0.31146793  0.75166408  1
  Cl  Cl544  1  0.89250867  0.64263546  0.75073405  1
  Cl  Cl545  1  0.89060412  0.97954686  0.75038859  1
  Cl  Cl546  1  0.11166130  0.02231648  0.24996325  1
  Cl  Cl547  1  0.10709213  0.35319839  0.24723839  1
  Cl  Cl548  1  0.10773040  0.68705837  0.25291597  1
  Cl  Cl549  1  0.60479531  0.02161479  0.24890935  1
  Cl  Cl550  1  0.61142904  0.35413953  0.24977065  1
  Cl  Cl551  1  0.61039571  0.68638635  0.25295349  1
