# generated using pymatgen
data_H8PbC4(N3Cl2)2
_symmetry_space_group_name_H-M   'P 1'
_cell_length_a   16.63236228
_cell_length_b   22.52660456
_cell_length_c   21.59978746
_cell_angle_alpha   89.99861115
_cell_angle_beta   89.97645586
_cell_angle_gamma   90.01380397
_symmetry_Int_Tables_number   1
_chemical_formula_structural   H8PbC4(N3Cl2)2
_chemical_formula_sum   'H192 Pb24 C96 N144 Cl96'
_cell_volume   8092.80544072
_cell_formula_units_Z   24
loop_
 _symmetry_equiv_pos_site_id
 _symmetry_equiv_pos_as_xyz
  1  'x, y, z'
loop_
 _atom_site_type_symbol
 _atom_site_label
 _atom_site_symmetry_multiplicity
 _atom_site_fract_x
 _atom_site_fract_y
 _atom_site_fract_z
 _atom_site_occupancy
  H  H0  1  -0.00352934  0.03087764  0.68600932  1
  H  H1  1  -0.00052122  0.36333460  0.67645538  1
  H  H2  1  0.00382600  0.69352625  0.67773631  1
  H  H3  1  0.52277496  0.02978019  0.65315113  1
  H  H4  1  0.49379630  0.36411392  0.68320375  1
  H  H5  1  0.50267354  0.69366770  0.67893457  1
  H  H6  1  -0.00401384  0.30292122  0.17518964  1
  H  H7  1  -0.00303690  0.63418489  0.18104343  1
  H  H8  1  -0.01061157  0.97327959  0.17388470  1
  H  H9  1  0.50184256  0.30896530  0.17215322  1
  H  H10  1  0.49753905  0.63450641  0.17843125  1
  H  H11  1  0.51846365  0.96734096  0.18246301  1
  H  H12  1  -0.01591755  0.03000724  0.82219544  1
  H  H13  1  -0.01123158  0.35556406  0.82531119  1
  H  H14  1  -0.00866894  0.69950294  0.82079428  1
  H  H15  1  0.51146433  0.03090149  0.82539107  1
  H  H16  1  0.50047085  0.35581785  0.82543436  1
  H  H17  1  0.50096056  0.69668569  0.81917746  1
  H  H18  1  0.00129271  0.30732855  0.32629242  1
  H  H19  1  0.00395603  0.63666043  0.32103664  1
  H  H20  1  0.01295360  0.96933123  0.32514562  1
  H  H21  1  0.49476330  0.30372498  0.31592623  1
  H  H22  1  0.49853452  0.63512254  0.32984805  1
  H  H23  1  0.48108848  0.97178035  0.32046138  1
  H  H24  1  0.26143511  0.19694226  0.67881212  1
  H  H25  1  0.25914874  0.52481974  0.67529239  1
  H  H26  1  0.25820724  0.86203694  0.68408103  1
  H  H27  1  0.74115222  0.19574681  0.68246739  1
  H  H28  1  0.74103163  0.52722827  0.67547069  1
  H  H29  1  0.74132478  0.86138208  0.67379215  1
  H  H30  1  0.24814499  0.14217967  0.17657952  1
  H  H31  1  0.23458179  0.46688844  0.17735099  1
  H  H32  1  0.24924047  0.80477496  0.18262049  1
  H  H33  1  0.74907270  0.14174200  0.18152047  1
  H  H34  1  0.76377226  0.47016973  0.18043581  1
  H  H35  1  0.74554320  0.79990012  0.18256632  1
  H  H36  1  0.25565770  0.19148459  0.82160945  1
  H  H37  1  0.23909098  0.52736062  0.82514793  1
  H  H38  1  0.26113962  0.86499931  0.82201610  1
  H  H39  1  0.75114427  0.19584806  0.82478207  1
  H  H40  1  0.75963800  0.53087254  0.81980598  1
  H  H41  1  0.73792191  0.85927788  0.81642796  1
  H  H42  1  0.24979281  0.14161663  0.32065929  1
  H  H43  1  0.25695193  0.47556222  0.32514586  1
  H  H44  1  0.25690459  0.80118541  0.32101832  1
  H  H45  1  0.72826795  0.13370458  0.34197112  1
  H  H46  1  0.74905919  0.47345928  0.31979372  1
  H  H47  1  0.74033888  0.80806601  0.32104239  1
  H  H48  1  0.13215378  0.05342203  0.62758416  1
  H  H49  1  0.13049088  0.39025798  0.61326388  1
  H  H50  1  0.13584937  0.71626763  0.61553821  1
  H  H51  1  0.66287873  0.05218805  0.60334418  1
  H  H52  1  0.62785888  0.38640180  0.61979134  1
  H  H53  1  0.63633615  0.71733085  0.61600401  1
  H  H54  1  0.37730092  0.27774255  0.10616245  1
  H  H55  1  0.36774438  0.61172233  0.11238558  1
  H  H56  1  0.38165755  0.94680513  0.12432307  1
  H  H57  1  0.87525974  0.27745109  0.10282653  1
  H  H58  1  0.86448422  0.61527366  0.11812579  1
  H  H59  1  0.88520179  0.94446468  0.08916393  1
  H  H60  1  0.36752045  0.05285967  0.87035432  1
  H  H61  1  0.38087409  0.38519438  0.89950827  1
  H  H62  1  0.38569178  0.72037285  0.89548401  1
  H  H63  1  0.87172351  0.06005468  0.90303341  1
  H  H64  1  0.88832582  0.39030893  0.91031793  1
  H  H65  1  0.88514836  0.72400889  0.90306122  1
  H  H66  1  0.13024353  0.27961401  0.38999045  1
  H  H67  1  0.11787636  0.60739772  0.39935251  1
  H  H68  1  0.11341762  0.93800478  0.41121711  1
  H  H69  1  0.63030333  0.28637448  0.37401470  1
  H  H70  1  0.62041248  0.61143521  0.39938444  1
  H  H71  1  0.62325546  0.95172685  0.37277518  1
  H  H72  1  0.36480377  0.22689449  0.59494803  1
  H  H73  1  0.37869985  0.55456200  0.60004611  1
  H  H74  1  0.37962445  0.89079002  0.61188664  1
  H  H75  1  0.86620636  0.22079301  0.61109884  1
  H  H76  1  0.88025484  0.54902472  0.62233363  1
  H  H77  1  0.87646736  0.88188828  0.61406240  1
  H  H78  1  0.12970444  0.11408552  0.10359562  1
  H  H79  1  0.11512117  0.44346591  0.10470036  1
  H  H80  1  0.11713547  0.78139499  0.11792262  1
  H  H81  1  0.63610829  0.11545115  0.10211946  1
  H  H82  1  0.61961842  0.45214073  0.13636228  1
  H  H83  1  0.61321453  0.77885737  0.11966314  1
  H  H84  1  0.12392558  0.21930122  0.88394599  1
  H  H85  1  0.13761847  0.55890906  0.91018297  1
  H  H86  1  0.12125265  0.88432994  0.87679324  1
  H  H87  1  0.62435084  0.22108324  0.89284929  1
  H  H88  1  0.63024520  0.55249640  0.88585045  1
  H  H89  1  0.62066361  0.88806463  0.89111324  1
  H  H90  1  0.35925777  0.10936197  0.40025995  1
  H  H91  1  0.36374417  0.44465250  0.40664781  1
  H  H92  1  0.36145805  0.76933997  0.40303557  1
  H  H93  1  0.83846578  0.10611064  0.42115298  1
  H  H94  1  0.86600798  0.44434578  0.39320401  1
  H  H95  1  0.86647009  0.78191562  0.38858846  1
  H  H96  1  0.38280493  0.28122793  0.39581638  1
  H  H97  1  0.37173798  0.61159879  0.39456433  1
  H  H98  1  0.37839947  0.93927335  0.40472671  1
  H  H99  1  0.88213908  0.28136532  0.40017777  1
  H  H100  1  0.87006248  0.61511577  0.38183178  1
  H  H101  1  0.87055470  0.95370728  0.37627331  1
  H  H102  1  0.11828071  0.05585843  0.88199607  1
  H  H103  1  0.13156729  0.37883282  0.87252308  1
  H  H104  1  0.13061085  0.71514454  0.87365090  1
  H  H105  1  0.60958676  0.06435515  0.91211993  1
  H  H106  1  0.62844051  0.38505260  0.88960146  1
  H  H107  1  0.63434622  0.71643789  0.87952212  1
  H  H108  1  0.12428298  0.28086203  0.11125345  1
  H  H109  1  0.11307784  0.61062628  0.10576177  1
  H  H110  1  0.12932822  0.95089633  0.12152224  1
  H  H111  1  0.62622838  0.27811857  0.10408802  1
  H  H112  1  0.61587722  0.60972640  0.10364735  1
  H  H113  1  0.62895102  0.94271490  0.10135098  1
  H  H114  1  0.41701808  0.06809150  0.57361094  1
  H  H115  1  0.38027049  0.39137675  0.60253126  1
  H  H116  1  0.38810462  0.71886238  0.60079759  1
  H  H117  1  0.88649577  0.05445361  0.60519215  1
  H  H118  1  0.88152204  0.39071335  0.60260620  1
  H  H119  1  0.88763662  0.72286484  0.60136153  1
  H  H120  1  0.11392623  0.11740771  0.37487131  1
  H  H121  1  0.11839076  0.44950860  0.37738348  1
  H  H122  1  0.11584074  0.78306012  0.37445920  1
  H  H123  1  0.59215192  0.11197569  0.39608271  1
  H  H124  1  0.61800332  0.45500016  0.38187741  1
  H  H125  1  0.61754281  0.77691590  0.39145797  1
  H  H126  1  0.37225275  0.22508361  0.89432634  1
  H  H127  1  0.38125772  0.54495858  0.87638260  1
  H  H128  1  0.36633897  0.89202613  0.90598796  1
  H  H129  1  0.87307920  0.22398977  0.89492707  1
  H  H130  1  0.87900187  0.55594531  0.89633913  1
  H  H131  1  0.86913519  0.88479627  0.88078049  1
  H  H132  1  0.37810438  0.11468508  0.11312297  1
  H  H133  1  0.36396217  0.44604310  0.11240663  1
  H  H134  1  0.36497663  0.77617099  0.10491442  1
  H  H135  1  0.88371493  0.11788911  0.12062303  1
  H  H136  1  0.86123712  0.44083123  0.09309048  1
  H  H137  1  0.86132236  0.77708285  0.10317787  1
  H  H138  1  0.12029795  0.21731271  0.62610845  1
  H  H139  1  0.13030460  0.55449988  0.61032965  1
  H  H140  1  0.13039525  0.88749822  0.61830413  1
  H  H141  1  0.61799437  0.22224048  0.60962696  1
  H  H142  1  0.63495219  0.55721395  0.59105633  1
  H  H143  1  0.63005132  0.89272153  0.59549124  1
  H  H144  1  0.45187471  0.74567699  0.49411617  1
  H  H145  1  0.64985060  0.42167708  0.49411080  1
  H  H146  1  0.29093712  0.91482566  1.01103340  1
  H  H147  1  0.78114459  0.41122354  -0.00743828  1
  H  H148  1  0.95330756  0.75027737  1.00903727  1
  H  H149  1  0.09097228  0.25420027  0.49676051  1
  H  H150  1  0.70139123  0.08640888  -0.00281244  1
  H  H151  1  0.56283961  0.91826016  -0.00568598  1
  H  H152  1  0.60626846  0.25815632  0.48706542  1
  H  H153  1  0.36342630  0.58286858  0.98265326  1
  H  H154  1  0.13355358  0.75128225  0.48413578  1
  H  H155  1  0.52703920  0.09186951  1.00829428  1
  H  H156  1  0.28853513  0.73610384  0.50519484  1
  H  H157  1  0.60728970  0.74462686  0.99251677  1
  H  H158  1  0.82841051  0.89518058  0.99117896  1
  H  H159  1  0.09412604  0.41686764  0.50641376  1
  H  H160  1  0.77582007  0.07724182  0.52798719  1
  H  H161  1  0.95412567  0.08374023  0.49963810  1
  H  H162  1  0.18463576  0.08496757  -0.00521565  1
  H  H163  1  0.67146975  0.58419083  0.99569175  1
  H  H164  1  0.90131585  0.58360316  0.49315954  1
  H  H165  1  0.21829701  0.57746973  1.00917116  1
  H  H166  1  0.94165752  0.23487776  0.49426595  1
  H  H167  1  0.11377041  0.74368059  -0.01211945  1
  H  H168  1  0.28880112  0.26178443  0.49505393  1
  H  H169  1  0.96387418  0.93230505  -0.01082695  1
  H  H170  1  0.10795935  0.91627188  0.01434835  1
  H  H171  1  0.16467901  0.41458817  -0.00545157  1
  H  H172  1  0.81906892  0.74528811  0.49590316  1
  H  H173  1  0.88722196  0.91646777  0.48321084  1
  H  H174  1  0.44005785  0.41826057  1.00098985  1
  H  H175  1  0.93686024  0.42428087  0.49573867  1
  H  H176  1  0.45741674  0.91081479  0.50611313  1
  H  H177  1  0.29053294  0.08492851  0.50287921  1
  H  H178  1  0.44601045  0.25521101  0.50370198  1
  H  H179  1  0.96989772  0.41768928  1.00763512  1
  H  H180  1  0.34370258  0.09089204  0.00382472  1
  H  H181  1  0.13775154  0.08157781  0.48684181  1
  H  H182  1  0.41150238  0.92493550  0.01421665  1
  H  H183  1  0.08711460  0.24736849  -0.00051140  1
  H  H184  1  0.32533941  0.90827658  0.50504189  1
  H  H185  1  0.62419470  0.41976697  1.02364307  1
  H  H186  1  0.05608300  0.58372246  -0.00445050  1
  H  H187  1  0.49036226  0.08862802  0.47153940  1
  H  H188  1  0.17206375  0.91516314  0.50663001  1
  H  H189  1  0.67739233  0.91182055  1.00053188  1
  H  H190  1  0.44441649  0.74924336  1.00419646  1
  H  H191  1  0.03215252  0.92254757  0.51006293  1
  Pb  Pb192  1  0.26052588  0.05130106  0.73597702  1
  Pb  Pb193  1  0.25746023  0.38109712  0.74914125  1
  Pb  Pb194  1  0.26047622  0.71694297  0.74811723  1
  Pb  Pb195  1  0.75623960  0.04793883  0.76409377  1
  Pb  Pb196  1  0.76059437  0.38442212  0.75223578  1
  Pb  Pb197  1  0.75852821  0.71511866  0.74867532  1
  Pb  Pb198  1  0.24678998  0.28457297  0.25243284  1
  Pb  Pb199  1  0.24378133  0.61765603  0.24556751  1
  Pb  Pb200  1  0.24224440  0.94955035  0.26044615  1
  Pb  Pb201  1  0.74839206  0.28451658  0.25003346  1
  Pb  Pb202  1  0.73889305  0.61606101  0.24831252  1
  Pb  Pb203  1  0.74926287  0.95258605  0.23437342  1
  Pb  Pb204  1  0.00121873  0.21441885  0.74554376  1
  Pb  Pb205  1  0.01009253  0.55032560  0.75775907  1
  Pb  Pb206  1  0.00511232  0.88144418  0.74728849  1
  Pb  Pb207  1  0.50770847  0.21649126  0.74664767  1
  Pb  Pb208  1  0.50634661  0.54834240  0.74280053  1
  Pb  Pb209  1  0.50714525  0.88559612  0.75330218  1
  Pb  Pb210  1  -0.00838177  0.11793736  0.26149434  1
  Pb  Pb211  1  -0.00615301  0.44994354  0.24345054  1
  Pb  Pb212  1  -0.01269354  0.78268399  0.24800850  1
  Pb  Pb213  1  0.49905001  0.11815622  0.24138199  1
  Pb  Pb214  1  0.48799042  0.44957368  0.25028005  1
  Pb  Pb215  1  0.49267286  0.78397657  0.25231603  1
  C  C216  1  0.00575774  0.04565220  0.63874392  1
  C  C217  1  0.00450399  0.38013798  0.62943992  1
  C  C218  1  0.00900766  0.71064669  0.63110774  1
  C  C219  1  0.53394292  0.04891991  0.60767415  1
  C  C220  1  0.50058722  0.37922584  0.63575966  1
  C  C221  1  0.50920808  0.70953746  0.63180759  1
  C  C222  1  -0.00084616  0.28727061  0.12787588  1
  C  C223  1  -0.00829051  0.62002960  0.13333094  1
  C  C224  1  0.00153546  0.95715367  0.12737845  1
  C  C225  1  0.50200783  0.28878674  0.12680520  1
  C  C226  1  0.49325070  0.61944977  0.13108577  1
  C  C227  1  0.50902639  0.95306457  0.13492696  1
  C  C228  1  -0.00898805  0.04770300  0.86855388  1
  C  C229  1  0.00262784  0.37373506  0.87054201  1
  C  C230  1  0.00296594  0.71321315  0.86817921  1
  C  C231  1  0.49631319  0.04822409  0.87085153  1
  C  C232  1  0.50286540  0.37431165  0.87169790  1
  C  C233  1  0.50734958  0.71154337  0.86678820  1
  C  C234  1  0.00471078  0.28947211  0.37306083  1
  C  C235  1  -0.00273956  0.62027328  0.36788691  1
  C  C236  1  -0.00117756  0.95441185  0.37186019  1
  C  C237  1  0.50301697  0.29038948  0.36382597  1
  C  C238  1  0.49683876  0.61936169  0.37744291  1
  C  C239  1  0.49449256  0.95428688  0.36617232  1
  C  C240  1  0.24828991  0.21340994  0.63262996  1
  C  C241  1  0.25621897  0.54358837  0.62907648  1
  C  C242  1  0.25656726  0.87812944  0.63663831  1
  C  C243  1  0.74177462  0.21232713  0.63526631  1
  C  C244  1  0.75193258  0.54363306  0.62915132  1
  C  C245  1  0.74969947  0.87708504  0.62702229  1
  C  C246  1  0.25273324  0.12498845  0.12959186  1
  C  C247  1  0.23754398  0.45208302  0.12970380  1
  C  C248  1  0.24367472  0.78811608  0.13568674  1
  C  C249  1  0.75640134  0.12555449  0.13457026  1
  C  C250  1  0.74745301  0.45464402  0.13446443  1
  C  C251  1  0.74017767  0.78521486  0.13514711  1
  C  C252  1  0.25030957  0.21072553  0.86721817  1
  C  C253  1  0.25296863  0.54341716  0.87145961  1
  C  C254  1  0.24904687  0.87891700  0.86921008  1
  C  C255  1  0.74932077  0.21297485  0.87146501  1
  C  C256  1  0.75649081  0.54638606  0.86727888  1
  C  C257  1  0.74332788  0.87490612  0.86386112  1
  C  C258  1  0.24095742  0.12473952  0.36731242  1
  C  C259  1  0.24583398  0.45744372  0.37064719  1
  C  C260  1  0.24391975  0.78544360  0.36766429  1
  C  C261  1  0.71906112  0.11821888  0.38919489  1
  C  C262  1  0.74365269  0.45798224  0.36704472  1
  C  C263  1  0.74130554  0.78966464  0.36736957  1
  C  C264  1  0.69214555  0.75870429  0.04513816  1
  C  C265  1  0.55948503  0.26702778  0.45320025  1
  C  C266  1  0.27920837  0.24813226  0.95815555  1
  C  C267  1  0.26314307  0.42288159  0.46448072  1
  C  C268  1  0.75598535  0.42453281  0.03714876  1
  C  C269  1  0.28535652  0.42603145  0.03831668  1
  C  C270  1  0.97185120  0.41159024  0.53623328  1
  C  C271  1  0.21143671  0.90593020  0.54553478  1
  C  C272  1  0.26090812  0.75189145  0.46246904  1
  C  C273  1  0.66060661  0.09265114  0.47859628  1
  C  C274  1  0.77999509  0.75757424  0.45767487  1
  C  C275  1  0.94023390  0.59562269  0.04305282  1
  C  C276  1  0.07085623  0.40520659  0.95232210  1
  C  C277  1  0.42632886  0.07866210  0.95204247  1
  C  C278  1  0.46407051  0.25136316  0.03845513  1
  C  C279  1  0.81033584  0.57141051  0.54321328  1
  C  C280  1  0.71073357  0.90187277  0.95859280  1
  C  C281  1  0.47796391  0.26523160  0.46104436  1
  C  C282  1  0.45359740  0.59053341  0.46743304  1
  C  C283  1  0.48311174  0.92311901  0.46154032  1
  C  C284  1  0.04457683  0.25803388  0.03611910  1
  C  C285  1  0.20409067  0.42507528  0.03410830  1
  C  C286  1  0.98376038  0.73919231  0.96595743  1
  C  C287  1  0.72652952  0.90786041  0.53225553  1
  C  C288  1  0.53360263  0.59061147  0.46916675  1
  C  C289  1  0.77572242  0.42786017  0.46098615  1
  C  C290  1  0.26415019  0.90441400  0.96622114  1
  C  C291  1  0.53349836  0.92657534  0.03849935  1
  C  C292  1  0.74311245  0.08924559  0.48613673  1
  C  C293  1  0.02121130  0.59404459  0.03679960  1
  C  C294  1  0.26136058  0.24722884  0.53834287  1
  C  C295  1  0.18314734  0.09191774  0.45214031  1
  C  C296  1  0.69442293  0.43111242  0.45840164  1
  C  C297  1  0.73327214  0.09684716  0.03991217  1
  C  C298  1  0.96297494  0.25712798  0.03468811  1
  C  C299  1  0.47845468  0.73811794  0.96280782  1
  C  C300  1  0.05653190  0.73853427  0.54134810  1
  C  C301  1  0.52484396  0.59229659  0.03651075  1
  C  C302  1  0.98487735  0.07235578  0.54287908  1
  C  C303  1  0.94769089  0.59302082  0.45704004  1
  C  C304  1  0.59723916  0.08000180  0.52332633  1
  C  C305  1  0.67647617  0.42836220  0.05258813  1
  C  C306  1  0.71323693  0.57355089  0.95828803  1
  C  C307  1  0.78396719  0.24573594  0.96261209  1
  C  C308  1  0.06477395  0.73592535  0.95547789  1
  C  C309  1  0.56042029  0.73580156  0.95722500  1
  C  C310  1  0.48424273  0.73700299  0.53698131  1
  C  C311  1  0.22002855  0.09562305  0.03568806  1
  N  N312  1  0.45487628  0.92640815  0.04763069  1
  N  N313  1  0.56083557  0.92653502  0.45061017  1
  N  N314  1  0.54139340  0.25124473  0.03653480  1
  N  N315  1  0.05125216  0.41144387  0.54111958  1
  N  N316  1  0.55096406  0.40673007  0.54603896  1
  N  N317  1  0.70494410  0.24211188  0.54225220  1
  N  N318  1  0.29105995  0.90755268  0.54439521  1
  N  N319  1  0.20185724  0.24512618  0.95648213  1
  N  N320  1  0.29957480  0.09554717  0.04026170  1
  N  N321  1  0.81208603  0.09646746  0.04603069  1
  N  N322  1  0.18613150  0.90150697  0.95649293  1
  N  N323  1  0.27206211  0.75735649  0.04144074  1
  N  N324  1  0.44725320  0.59427379  0.03822925  1
  N  N325  1  0.18338672  0.24389492  0.54868028  1
  N  N326  1  0.97234055  0.26432362  0.46677001  1
  N  N327  1  0.79012740  0.89987414  0.95440772  1
  N  N328  1  0.28804508  0.57802942  0.53681684  1
  N  N329  1  0.23987401  0.57908660  0.96406690  1
  N  N330  1  0.26192602  0.09017372  0.45999265  1
  N  N331  1  0.06352163  0.07015628  0.54992985  1
  N  N332  1  0.01103319  0.92004838  0.46516405  1
  N  N333  1  0.76912564  0.75792808  0.03820811  1
  N  N334  1  0.79224187  0.57464998  0.96202611  1
  N  N335  1  0.50352182  0.08286997  0.96472330  1
  N  N336  1  0.06285125  0.93480727  0.04222813  1
  N  N337  1  0.97919953  0.74184927  0.53585544  1
  N  N338  1  0.04317954  0.07764393  0.95707797  1
  N  N339  1  0.73431506  0.57443844  0.53190096  1
  N  N340  1  0.80362643  0.90380457  0.53698261  1
  N  N341  1  0.70673403  0.24493143  0.96318614  1
  N  N342  1  0.02643145  0.58936508  0.46305678  1
  N  N343  1  0.99361748  0.40922864  0.96401604  1
  N  N344  1  0.51735397  0.08664972  0.51528610  1
  N  N345  1  0.98525868  0.92516733  0.03339913  1
  N  N346  1  0.47539025  0.40826498  0.54033211  1
  N  N347  1  0.05074924  0.25470073  0.45964488  1
  N  N348  1  0.55050412  0.40854665  0.95963982  1
  N  N349  1  0.78112664  0.24138344  0.54251585  1
  N  N350  1  0.19607962  0.75855315  0.04614365  1
  N  N351  1  0.31644127  0.56569369  0.95560491  1
  N  N352  1  0.93457115  0.93348245  0.45612083  1
  N  N353  1  0.56293202  0.73836421  0.54266485  1
  N  N354  1  0.18634133  0.42494560  0.45616574  1
  N  N355  1  0.47280200  0.40861579  0.96178971  1
  N  N356  1  0.21207764  0.57848820  0.54002926  1
  N  N357  1  0.18284426  0.75773344  0.45207312  1
  N  N358  1  0.96708636  0.07933232  0.96341800  1
  N  N359  1  0.70096340  0.75566966  0.45884835  1
  N  N360  1  0.07505533  0.05332453  0.60972459  1
  N  N361  1  0.07113033  0.39004180  0.59788843  1
  N  N362  1  0.07751784  0.72030387  0.59954771  1
  N  N363  1  0.60660783  0.05914340  0.58243594  1
  N  N364  1  0.56832723  0.38868476  0.60513504  1
  N  N365  1  0.57688794  0.72073340  0.60145891  1
  N  N366  1  0.43697496  0.27373421  0.09291248  1
  N  N367  1  0.42734226  0.61116926  0.09829945  1
  N  N368  1  0.43979735  0.94497758  0.10633416  1
  N  N369  1  0.93571928  0.27478356  0.09004601  1
  N  N370  1  0.92270920  0.61106690  0.10124327  1
  N  N371  1  0.94725901  0.94843810  0.08336457  1
  N  N372  1  0.42166610  0.05858537  0.89327268  1
  N  N373  1  0.44220861  0.38589934  0.90935563  1
  N  N374  1  0.44682314  0.72320511  0.90617905  1
  N  N375  1  0.93344462  0.06085357  0.90877459  1
  N  N376  1  0.95064467  0.38716274  0.91458019  1
  N  N377  1  0.94682020  0.72498035  0.91119547  1
  N  N378  1  0.07102557  0.27916881  0.40518855  1
  N  N379  1  0.05582211  0.60649963  0.40698699  1
  N  N380  1  0.05168548  0.94303372  0.41640660  1
  N  N381  1  0.57333234  0.28259071  0.39278004  1
  N  N382  1  0.56100405  0.60795257  0.41426665  1
  N  N383  1  0.56610695  0.94561963  0.39138362  1
  N  N384  1  0.30253469  0.22864765  0.58944720  1
  N  N385  1  0.31707207  0.55602728  0.59162474  1
  N  N386  1  0.31886804  0.88703314  0.59967789  1
  N  N387  1  0.80531427  0.22283044  0.59993738  1
  N  N388  1  0.82390650  0.55339768  0.60249233  1
  N  N389  1  0.81827837  0.88434354  0.59732871  1
  N  N390  1  0.19066578  0.11273864  0.09140556  1
  N  N391  1  0.17525740  0.44135293  0.09249247  1
  N  N392  1  0.17677985  0.77702569  0.10452109  1
  N  N393  1  0.69758297  0.11385324  0.09389720  1
  N  N394  1  0.67287183  0.44682093  0.11271933  1
  N  N395  1  0.67159835  0.77528469  0.10362221  1
  N  N396  1  0.18364927  0.22151057  0.89839421  1
  N  N397  1  0.19988708  0.55542404  0.91563572  1
  N  N398  1  0.17826101  0.88562384  0.89589905  1
  N  N399  1  0.68481407  0.22415414  0.90516840  1
  N  N400  1  0.68966654  0.55658687  0.90034633  1
  N  N401  1  0.68159612  0.88807306  0.90216834  1
  N  N402  1  0.29734381  0.11406131  0.40895658  1
  N  N403  1  0.30176307  0.44236608  0.41315257  1
  N  N404  1  0.29928156  0.76927330  0.41026680  1
  N  N405  1  0.77681081  0.10534736  0.43055574  1
  N  N406  1  0.80534200  0.44398952  0.40594594  1
  N  N407  1  0.80652520  0.77803887  0.40174946  1
  N  N408  1  0.44417985  0.27967468  0.40493893  1
  N  N409  1  0.43008156  0.60790948  0.41145702  1
  N  N410  1  0.44047298  0.93976350  0.40997029  1
  N  N411  1  0.94344702  0.27561573  0.40931956  1
  N  N412  1  0.92842176  0.61146268  0.39859079  1
  N  N413  1  0.92667494  0.94553498  0.39580715  1
  N  N414  1  0.05925162  0.05817641  0.89819020  1
  N  N415  1  0.07658802  0.38490973  0.89373877  1
  N  N416  1  0.07506257  0.72000804  0.89469295  1
  N  N417  1  0.54728603  0.06142643  0.91555961  1
  N  N418  1  0.56900516  0.38858793  0.90297134  1
  N  N419  1  0.57655546  0.71953374  0.89724409  1
  N  N420  1  0.06570723  0.27699452  0.09513783  1
  N  N421  1  0.05236420  0.60931498  0.09440246  1
  N  N422  1  0.07251984  0.94532884  0.10272124  1
  N  N423  1  0.56533729  0.27515991  0.09275236  1
  N  N424  1  0.55496486  0.60744454  0.09254072  1
  N  N425  1  0.56756114  0.94188765  0.09295420  1
  N  N426  1  0.47907830  0.06296513  0.56577023  1
  N  N427  1  0.44243365  0.39085249  0.59554552  1
  N  N428  1  0.44948094  0.72037801  0.59160735  1
  N  N429  1  0.94829064  0.05760993  0.59708754  1
  N  N430  1  0.94243291  0.39287085  0.59122115  1
  N  N431  1  0.94979143  0.72407254  0.59311848  1
  N  N432  1  0.16985418  0.11199875  0.39417463  1
  N  N433  1  0.17547350  0.44669409  0.39638439  1
  N  N434  1  0.17278942  0.77937862  0.39404688  1
  N  N435  1  0.64817651  0.11116601  0.41731215  1
  N  N436  1  0.67578269  0.44988063  0.39880906  1
  N  N437  1  0.67838580  0.77577365  0.40234321  1
  N  N438  1  0.31127594  0.22737747  0.90468087  1
  N  N439  1  0.32497302  0.55284986  0.89549827  1
  N  N440  1  0.30436289  0.89076591  0.91292536  1
  N  N441  1  0.81307284  0.22651861  0.90743503  1
  N  N442  1  0.81762097  0.55772446  0.90492527  1
  N  N443  1  0.81010446  0.87988039  0.89667797  1
  N  N444  1  0.31921003  0.11533629  0.09769820  1
  N  N445  1  0.30508147  0.44214511  0.09598457  1
  N  N446  1  0.30297504  0.77590089  0.09678280  1
  N  N447  1  0.82462253  0.11471827  0.10487503  1
  N  N448  1  0.79879058  0.44120481  0.08855539  1
  N  N449  1  0.79931086  0.77435135  0.09602151  1
  N  N450  1  0.17698762  0.22288185  0.60757848  1
  N  N451  1  0.19068565  0.55766157  0.59746436  1
  N  N452  1  0.18977188  0.88925609  0.60316078  1
  N  N453  1  0.67904226  0.22422589  0.59960110  1
  N  N454  1  0.69748623  0.55641775  0.58676119  1
  N  N455  1  0.69128438  0.89192913  0.58632400  1
  Cl  Cl456  1  0.29531740  0.06462802  0.59622381  1
  Cl  Cl457  1  0.25683324  0.39303063  0.61465656  1
  Cl  Cl458  1  0.26314210  0.72625850  0.61127372  1
  Cl  Cl459  1  0.77268803  0.04239884  0.62975550  1
  Cl  Cl460  1  0.75594241  0.38994748  0.61961065  1
  Cl  Cl461  1  0.76492063  0.72163885  0.61368629  1
  Cl  Cl462  1  0.25193086  0.27805224  0.12289390  1
  Cl  Cl463  1  0.23912112  0.60226389  0.10570087  1
  Cl  Cl464  1  0.25542913  0.94521416  0.12113984  1
  Cl  Cl465  1  0.75083064  0.27748746  0.11823542  1
  Cl  Cl466  1  0.73768227  0.61250500  0.11414445  1
  Cl  Cl467  1  0.76058230  0.93739801  0.09739245  1
  Cl  Cl468  1  0.24088294  0.05696369  0.86967250  1
  Cl  Cl469  1  0.26053178  0.38626811  0.88317629  1
  Cl  Cl470  1  0.26294724  0.71406220  0.87735501  1
  Cl  Cl471  1  0.73639547  0.05739148  0.89830120  1
  Cl  Cl472  1  0.76357012  0.38870860  0.88827420  1
  Cl  Cl473  1  0.76312279  0.72382689  0.87733163  1
  Cl  Cl474  1  0.25617341  0.27852158  0.38912268  1
  Cl  Cl475  1  0.24238209  0.61310620  0.37611480  1
  Cl  Cl476  1  0.24652613  0.93627214  0.40227877  1
  Cl  Cl477  1  0.76127625  0.28436783  0.38208226  1
  Cl  Cl478  1  0.74546221  0.61199717  0.37562807  1
  Cl  Cl479  1  0.74932710  0.95573782  0.36564122  1
  Cl  Cl480  1  -0.01120907  0.22261304  0.60840296  1
  Cl  Cl481  1  0.00777203  0.55129397  0.62607348  1
  Cl  Cl482  1  0.00660009  0.89405830  0.60932815  1
  Cl  Cl483  1  0.48993678  0.22102995  0.61027588  1
  Cl  Cl484  1  0.50666485  0.55900883  0.60673570  1
  Cl  Cl485  1  0.50243042  0.89887128  0.61617098  1
  Cl  Cl486  1  0.00976689  0.11386005  0.13050533  1
  Cl  Cl487  1  -0.01655333  0.43862077  0.10290460  1
  Cl  Cl488  1  -0.01376440  0.78470741  0.11244016  1
  Cl  Cl489  1  0.51017785  0.10735607  0.10370864  1
  Cl  Cl490  1  0.48544912  0.44371387  0.11306643  1
  Cl  Cl491  1  0.48502756  0.77804539  0.11686401  1
  Cl  Cl492  1  -0.00061246  0.22533444  0.87745519  1
  Cl  Cl493  1  0.01348822  0.55509518  0.89385013  1
  Cl  Cl494  1  -0.00943300  0.90104325  0.88572161  1
  Cl  Cl495  1  0.49827746  0.22000123  0.87872227  1
  Cl  Cl496  1  0.50596305  0.55015294  0.87617808  1
  Cl  Cl497  1  0.49342372  0.89727048  0.89239690  1
  Cl  Cl498  1  -0.03732678  0.11095323  0.39738181  1
  Cl  Cl499  1  -0.01100742  0.43991074  0.37833493  1
  Cl  Cl500  1  -0.00920354  0.78503049  0.37863356  1
  Cl  Cl501  1  0.47238818  0.10093635  0.37995150  1
  Cl  Cl502  1  0.48453024  0.45033403  0.37915167  1
  Cl  Cl503  1  0.48550650  0.77310159  0.38715524  1
  Cl  Cl504  1  0.35601718  0.15014228  0.75247093  1
  Cl  Cl505  1  0.36388944  0.48500656  0.75452102  1
  Cl  Cl506  1  0.35709413  0.81745065  0.75204821  1
  Cl  Cl507  1  0.85800893  0.14940756  0.75447486  1
  Cl  Cl508  1  0.85824479  0.48476775  0.74848915  1
  Cl  Cl509  1  0.86452552  0.81940561  0.74454423  1
  Cl  Cl510  1  0.13467292  0.18594808  0.25989206  1
  Cl  Cl511  1  0.12844871  0.51908677  0.25466977  1
  Cl  Cl512  1  0.13243982  0.85709078  0.25165022  1
  Cl  Cl513  1  0.63150140  0.18670665  0.26686451  1
  Cl  Cl514  1  0.63326477  0.52189402  0.24562209  1
  Cl  Cl515  1  0.62707658  0.85756986  0.24257594  1
  Cl  Cl516  1  0.12988214  0.13937200  0.73228032  1
  Cl  Cl517  1  0.14241167  0.47900103  0.75351396  1
  Cl  Cl518  1  0.13286863  0.80775021  0.76248160  1
  Cl  Cl519  1  0.63980795  0.14488152  0.74879273  1
  Cl  Cl520  1  0.63841210  0.47795748  0.75221170  1
  Cl  Cl521  1  0.63979592  0.81365778  0.74511961  1
  Cl  Cl522  1  0.35700881  0.18266047  0.24962177  1
  Cl  Cl523  1  0.34902263  0.51318821  0.24006972  1
  Cl  Cl524  1  0.35281530  0.84846423  0.25013903  1
  Cl  Cl525  1  0.85139165  0.17845065  0.25197210  1
  Cl  Cl526  1  0.85604998  0.51729826  0.24840412  1
  Cl  Cl527  1  0.84844630  0.84796287  0.25069882  1
  Cl  Cl528  1  0.12058142  0.31002974  0.74638237  1
  Cl  Cl529  1  0.11624833  0.64439700  0.75365560  1
  Cl  Cl530  1  0.12494914  0.97440797  0.73800930  1
  Cl  Cl531  1  0.61514225  0.31044053  0.74942244  1
  Cl  Cl532  1  0.61989344  0.64841911  0.75014633  1
  Cl  Cl533  1  0.60463611  0.98392085  0.74857789  1
  Cl  Cl534  1  0.38924431  0.01748384  0.23941589  1
  Cl  Cl535  1  0.39319044  0.34743316  0.24603947  1
  Cl  Cl536  1  0.38786027  0.67888524  0.24777615  1
  Cl  Cl537  1  0.89302477  0.01075167  0.24656689  1
  Cl  Cl538  1  0.89311602  0.34326668  0.24814713  1
  Cl  Cl539  1  0.89006889  0.68275882  0.24802786  1
  Cl  Cl540  1  0.39572848  0.31677134  0.75290957  1
  Cl  Cl541  1  0.39800222  0.65147042  0.74944783  1
  Cl  Cl542  1  0.38667131  0.98110792  0.75314425  1
  Cl  Cl543  1  0.89902167  0.31991758  0.74632554  1
  Cl  Cl544  1  0.89842862  0.65138927  0.75006810  1
  Cl  Cl545  1  0.89381795  0.98212572  0.75412075  1
  Cl  Cl546  1  0.11265671  0.02105080  0.25671746  1
  Cl  Cl547  1  0.11052576  0.35245139  0.25351623  1
  Cl  Cl548  1  0.11027124  0.68941085  0.24687004  1
  Cl  Cl549  1  0.60730634  0.02254962  0.25509873  1
  Cl  Cl550  1  0.61421679  0.35718111  0.24769431  1
  Cl  Cl551  1  0.60904188  0.68751238  0.25273585  1
