# generated using pymatgen
data_H8PbC4(N3Cl2)2
_symmetry_space_group_name_H-M   'P 1'
_cell_length_a   16.62571351
_cell_length_b   22.51113168
_cell_length_c   21.59345544
_cell_angle_alpha   89.99920933
_cell_angle_beta   89.99868325
_cell_angle_gamma   90.00028009
_symmetry_Int_Tables_number   1
_chemical_formula_structural   H8PbC4(N3Cl2)2
_chemical_formula_sum   'H192 Pb24 C96 N144 Cl96'
_cell_volume   8081.64492864
_cell_formula_units_Z   24
loop_
 _symmetry_equiv_pos_site_id
 _symmetry_equiv_pos_as_xyz
  1  'x, y, z'
loop_
 _atom_site_type_symbol
 _atom_site_label
 _atom_site_symmetry_multiplicity
 _atom_site_fract_x
 _atom_site_fract_y
 _atom_site_fract_z
 _atom_site_occupancy
  H  H0  1  -0.00901703  0.03085422  0.67990354  1
  H  H1  1  0.00137691  0.36039872  0.67980200  1
  H  H2  1  -0.00693380  0.69396368  0.67667697  1
  H  H3  1  0.49798678  0.02619493  0.67997150  1
  H  H4  1  0.50089238  0.36461656  0.67783950  1
  H  H5  1  0.51311615  0.69665622  0.67945971  1
  H  H6  1  0.00577106  0.30167956  0.18017575  1
  H  H7  1  -0.00333009  0.63749451  0.18081139  1
  H  H8  1  -0.00745892  0.97094224  0.17985063  1
  H  H9  1  0.49497453  0.30554433  0.17815175  1
  H  H10  1  0.49968878  0.63666163  0.18075824  1
  H  H11  1  0.50251891  0.96869962  0.17952283  1
  H  H12  1  -0.00301723  0.02957868  0.81887679  1
  H  H13  1  -0.00159745  0.36242098  0.82266390  1
  H  H14  1  -0.01400299  0.70045856  0.82293606  1
  H  H15  1  0.51011294  0.03092495  0.81709388  1
  H  H16  1  0.49704635  0.36507866  0.82165958  1
  H  H17  1  0.50341027  0.69566100  0.82158377  1
  H  H18  1  -0.00993268  0.30250892  0.31887411  1
  H  H19  1  0.01259590  0.63465779  0.32418651  1
  H  H20  1  -0.00629010  0.96635343  0.32282306  1
  H  H21  1  0.50783431  0.30216673  0.31697896  1
  H  H22  1  0.49415602  0.63926389  0.32197011  1
  H  H23  1  0.50651264  0.96918953  0.31709551  1
  H  H24  1  0.24862327  0.19710265  0.68293824  1
  H  H25  1  0.23529334  0.53385512  0.67617043  1
  H  H26  1  0.25199229  0.86350940  0.67646353  1
  H  H27  1  0.74583325  0.19986563  0.68081004  1
  H  H28  1  0.75658589  0.53211657  0.67893753  1
  H  H29  1  0.75273166  0.86433188  0.68323611  1
  H  H30  1  0.24873160  0.13595810  0.17996506  1
  H  H31  1  0.24566838  0.47118691  0.17911212  1
  H  H32  1  0.24629449  0.80287392  0.18223534  1
  H  H33  1  0.74004360  0.13764890  0.17904646  1
  H  H34  1  0.75811957  0.46775872  0.17670124  1
  H  H35  1  0.74734536  0.80459006  0.17598808  1
  H  H36  1  0.24113351  0.19766152  0.81852012  1
  H  H37  1  0.24525093  0.52786368  0.81884513  1
  H  H38  1  0.24799806  0.86252145  0.82363134  1
  H  H39  1  0.75994654  0.19788686  0.82383886  1
  H  H40  1  0.75760738  0.53932407  0.81945723  1
  H  H41  1  0.75366594  0.86013971  0.82055376  1
  H  H42  1  0.25710473  0.13761341  0.31947714  1
  H  H43  1  0.23349231  0.47118327  0.32261894  1
  H  H44  1  0.23382828  0.80025121  0.32699986  1
  H  H45  1  0.75982164  0.13707944  0.32007718  1
  H  H46  1  0.76628247  0.47004221  0.32055490  1
  H  H47  1  0.76203375  0.80137646  0.31855498  1
  H  H48  1  0.12977572  0.05022647  0.62542820  1
  H  H49  1  0.12273230  0.39146205  0.60810933  1
  H  H50  1  0.12719957  0.71516988  0.61575787  1
  H  H51  1  0.63162888  0.05259963  0.62241613  1
  H  H52  1  0.62571327  0.38906427  0.60743527  1
  H  H53  1  0.62254984  0.72508259  0.59576965  1
  H  H54  1  0.37729183  0.27736446  0.10272878  1
  H  H55  1  0.38274905  0.60994346  0.10369438  1
  H  H56  1  0.37828486  0.94640474  0.10936238  1
  H  H57  1  0.87183960  0.28174515  0.11980437  1
  H  H58  1  0.88264404  0.61440124  0.10101716  1
  H  H59  1  0.87884656  0.94265699  0.10235985  1
  H  H60  1  0.37244147  0.04925622  0.87604320  1
  H  H61  1  0.38526816  0.39077191  0.90262351  1
  H  H62  1  0.37564944  0.72102183  0.88986591  1
  H  H63  1  0.87366486  0.05520730  0.89000390  1
  H  H64  1  0.88599815  0.39023526  0.90251992  1
  H  H65  1  0.87588140  0.72252918  0.90236080  1
  H  H66  1  0.12141616  0.28106428  0.38467593  1
  H  H67  1  0.12452589  0.61121439  0.40256483  1
  H  H68  1  0.13552877  0.94883472  0.37209544  1
  H  H69  1  0.62147128  0.27818376  0.39504565  1
  H  H70  1  0.62726820  0.61500278  0.38311324  1
  H  H71  1  0.63168930  0.94602717  0.38920364  1
  H  H72  1  0.37608520  0.22100313  0.61367040  1
  H  H73  1  0.37046482  0.55045705  0.61901229  1
  H  H74  1  0.36559798  0.88893836  0.59814440  1
  H  H75  1  0.88010246  0.21770814  0.61990004  1
  H  H76  1  0.87057663  0.55644924  0.60213708  1
  H  H77  1  0.86809730  0.88671754  0.60651324  1
  H  H78  1  0.12509828  0.11385621  0.10908273  1
  H  H79  1  0.12182697  0.44344329  0.10751486  1
  H  H80  1  0.12296407  0.77857351  0.11161794  1
  H  H81  1  0.63216634  0.10894564  0.09565775  1
  H  H82  1  0.61737388  0.45165374  0.12253894  1
  H  H83  1  0.62698810  0.77763967  0.10308096  1
  H  H84  1  0.12993227  0.22180305  0.89866622  1
  H  H85  1  0.12268654  0.55442504  0.89163554  1
  H  H86  1  0.12185714  0.88617316  0.89280922  1
  H  H87  1  0.62390417  0.22009129  0.88299401  1
  H  H88  1  0.61992143  0.55015190  0.87931036  1
  H  H89  1  0.62255721  0.88449457  0.88573060  1
  H  H90  1  0.36692336  0.10773869  0.40113498  1
  H  H91  1  0.37513511  0.45093677  0.37208591  1
  H  H92  1  0.37479189  0.78480466  0.37498805  1
  H  H93  1  0.86609091  0.10952807  0.40542395  1
  H  H94  1  0.87042582  0.44383855  0.40586922  1
  H  H95  1  0.87356481  0.77476162  0.39948865  1
  H  H96  1  0.37343249  0.28366226  0.37606795  1
  H  H97  1  0.37863798  0.61194441  0.39873709  1
  H  H98  1  0.38323051  0.94368136  0.38972899  1
  H  H99  1  0.87343697  0.27705707  0.39762746  1
  H  H100  1  0.87795005  0.61475162  0.38064998  1
  H  H101  1  0.89111117  0.94207795  0.40739410  1
  H  H102  1  0.12275519  0.05352339  0.88884039  1
  H  H103  1  0.13319814  0.38668104  0.88047757  1
  H  H104  1  0.12206509  0.71724853  0.87906641  1
  H  H105  1  0.61930450  0.05880755  0.89830295  1
  H  H106  1  0.63192217  0.38452367  0.88084390  1
  H  H107  1  0.62457543  0.72029545  0.89503545  1
  H  H108  1  0.12010827  0.27803671  0.10351456  1
  H  H109  1  0.13087097  0.61502002  0.11821823  1
  H  H110  1  0.12676325  0.94964849  0.11779874  1
  H  H111  1  0.62535154  0.28145364  0.11553629  1
  H  H112  1  0.63077375  0.61642792  0.11304835  1
  H  H113  1  0.62820728  0.94462665  0.10969222  1
  H  H114  1  0.38421967  0.05463325  0.60087267  1
  H  H115  1  0.37653678  0.39078407  0.60939667  1
  H  H116  1  0.37589254  0.71555449  0.61887195  1
  H  H117  1  0.88414404  0.06022846  0.59667991  1
  H  H118  1  0.87351492  0.38474512  0.61429217  1
  H  H119  1  0.87889255  0.72216423  0.59830001  1
  H  H120  1  0.12076400  0.11517435  0.37429282  1
  H  H121  1  0.13162130  0.44403311  0.41012215  1
  H  H122  1  0.13173714  0.77081971  0.41278611  1
  H  H123  1  0.62179079  0.11443377  0.37535622  1
  H  H124  1  0.62537142  0.44991593  0.37433121  1
  H  H125  1  0.62590394  0.78180371  0.37895926  1
  H  H126  1  0.37718710  0.21714697  0.87485173  1
  H  H127  1  0.37179312  0.55049544  0.88769584  1
  H  H128  1  0.37071019  0.88859209  0.89354248  1
  H  H129  1  0.87065742  0.22555232  0.90517029  1
  H  H130  1  0.86660042  0.55840240  0.90332132  1
  H  H131  1  0.87037999  0.88681454  0.89827879  1
  H  H132  1  0.37415194  0.11392808  0.11281660  1
  H  H133  1  0.37013720  0.44594536  0.10771041  1
  H  H134  1  0.37209531  0.78079401  0.11131528  1
  H  H135  1  0.87750531  0.11771420  0.12200452  1
  H  H136  1  0.86215848  0.43663709  0.09288073  1
  H  H137  1  0.87599426  0.77962253  0.11006215  1
  H  H138  1  0.12697723  0.22027132  0.61063173  1
  H  H139  1  0.12406755  0.55786135  0.59756569  1
  H  H140  1  0.11747702  0.88419033  0.61552194  1
  H  H141  1  0.63171653  0.22132221  0.60339867  1
  H  H142  1  0.62219648  0.55229262  0.61900090  1
  H  H143  1  0.61945323  0.88385827  0.62232161  1
  H  H144  1  0.54930547  0.08654095  1.00286487  1
  H  H145  1  0.19395316  0.24815816  1.00593807  1
  H  H146  1  0.94766717  0.58755627  -0.00509541  1
  H  H147  1  0.80518749  0.74662938  0.50409761  1
  H  H148  1  0.42252305  0.91756915  -0.00041173  1
  H  H149  1  0.94235028  0.90918651  -0.00185444  1
  H  H150  1  0.21270535  0.42226766  0.50892410  1
  H  H151  1  0.57916147  0.41701084  0.50272803  1
  H  H152  1  0.56039237  0.25174530  0.50365221  1
  H  H153  1  0.29646775  0.08763786  0.50317311  1
  H  H154  1  0.43557900  0.58191150  0.50462156  1
  H  H155  1  0.92406427  0.08519725  0.99789352  1
  H  H156  1  0.65409627  0.24748447  0.99091450  1
  H  H157  1  0.59803703  0.58665218  0.49114450  1
  H  H158  1  0.78917981  0.08755055  0.50527103  1
  H  H159  1  0.32513978  0.57999997  0.99715307  1
  H  H160  1  0.14210220  0.08548173  0.48821920  1
  H  H161  1  0.40001728  0.25440546  0.48929378  1
  H  H162  1  0.79367497  0.41737374  0.50887007  1
  H  H163  1  0.35498928  0.24649080  0.98806518  1
  H  H164  1  0.60332046  0.08303766  0.51013858  1
  H  H165  1  0.95926934  0.08400213  0.49550638  1
  H  H166  1  0.30260585  0.91538637  0.49034484  1
  H  H167  1  0.91533591  0.41509832  0.50257887  1
  H  H168  1  0.94557453  0.74723945  0.49498854  1
  H  H169  1  0.45006720  0.07424126  0.49727263  1
  H  H170  1  0.17859910  0.25057948  0.50256034  1
  H  H171  1  0.33240419  0.08410506  0.00064184  1
  H  H172  1  0.05981500  0.24898418  -0.00564265  1
  H  H173  1  0.41772370  0.41888071  0.49899892  1
  H  H174  1  0.06789539  0.41232342  0.50190326  1
  H  H175  1  0.96621962  0.91412365  0.51191866  1
  H  H176  1  0.78356870  0.42118879  -0.00798318  1
  H  H177  1  0.64643380  0.57781807  0.98753440  1
  H  H178  1  0.42312564  0.74759468  0.99509318  1
  H  H179  1  0.63556346  0.41683207  0.01436078  1
  H  H180  1  0.58217107  0.91397424  0.00578801  1
  H  H181  1  0.16938412  0.74784542  0.00330043  1
  H  H182  1  0.14091014  0.91470820  0.50409411  1
  H  H183  1  0.78934034  0.59851053  0.99648276  1
  H  H184  1  0.70703005  0.08514264  -0.00452981  1
  H  H185  1  0.64901319  0.91138079  0.50928263  1
  H  H186  1  0.69246323  0.24694573  0.49317884  1
  H  H187  1  0.81335596  0.58651673  0.49470301  1
  H  H188  1  0.95437485  0.41493505  1.00519603  1
  H  H189  1  0.36404013  0.75246831  0.49023132  1
  H  H190  1  0.80991378  0.91462736  0.49748047  1
  H  H191  1  0.16705741  0.91749489  0.99678861  1
  Pb  Pb192  1  0.25285802  0.04720694  0.74411641  1
  Pb  Pb193  1  0.25213655  0.37950573  0.74520323  1
  Pb  Pb194  1  0.25141792  0.71257794  0.75309202  1
  Pb  Pb195  1  0.75197897  0.04627240  0.75133801  1
  Pb  Pb196  1  0.75685556  0.38340363  0.75288703  1
  Pb  Pb197  1  0.74937149  0.71290430  0.74523860  1
  Pb  Pb198  1  0.25236931  0.28508845  0.24694155  1
  Pb  Pb199  1  0.25169199  0.62119024  0.25234109  1
  Pb  Pb200  1  0.25347076  0.95178021  0.24672821  1
  Pb  Pb201  1  0.74904382  0.28693426  0.25415693  1
  Pb  Pb202  1  0.75204026  0.61965040  0.24182147  1
  Pb  Pb203  1  0.75599814  0.95146483  0.25394265  1
  Pb  Pb204  1  0.00168267  0.21252202  0.75685189  1
  Pb  Pb205  1  0.00414696  0.54928345  0.75283221  1
  Pb  Pb206  1  0.00009700  0.87899351  0.75289750  1
  Pb  Pb207  1  0.50512525  0.21519998  0.74501170  1
  Pb  Pb208  1  0.49843695  0.54556687  0.74864812  1
  Pb  Pb209  1  0.49809490  0.87947462  0.75315508  1
  Pb  Pb210  1  -0.00060114  0.11972183  0.25717416  1
  Pb  Pb211  1  0.00436209  0.45098671  0.25156467  1
  Pb  Pb212  1  0.00126206  0.78587167  0.26095976  1
  Pb  Pb213  1  0.50324121  0.11768920  0.24909391  1
  Pb  Pb214  1  0.49799050  0.45444600  0.25084819  1
  Pb  Pb215  1  0.50281586  0.78658586  0.24383667  1
  C  C216  1  0.00141832  0.04541917  0.63267055  1
  C  C217  1  -0.00017450  0.37742884  0.63269818  1
  C  C218  1  -0.00066665  0.70939818  0.62943020  1
  C  C219  1  0.50442589  0.04273952  0.63296895  1
  C  C220  1  0.50143904  0.38083275  0.63034776  1
  C  C221  1  0.50420737  0.71202376  0.63234170  1
  C  C222  1  -0.00061399  0.28707966  0.13267995  1
  C  C223  1  0.00351953  0.62248161  0.13335864  1
  C  C224  1  -0.00035916  0.95479829  0.13281459  1
  C  C225  1  0.49897791  0.28855601  0.13148723  1
  C  C226  1  0.50467267  0.62164920  0.13308275  1
  C  C227  1  0.50336317  0.95279575  0.13195225  1
  C  C228  1  -0.00219541  0.04581571  0.86613391  1
  C  C229  1  0.00557026  0.37816770  0.86970451  1
  C  C230  1  -0.00483427  0.71383480  0.87065708  1
  C  C231  1  0.50026880  0.04575928  0.86432955  1
  C  C232  1  0.50466937  0.37945593  0.86908926  1
  C  C233  1  0.50079080  0.71174609  0.86881025  1
  C  C234  1  -0.00509912  0.28705404  0.36641097  1
  C  C235  1  0.00469662  0.61994297  0.37147352  1
  C  C236  1  0.00715677  0.95237015  0.36996601  1
  C  C237  1  0.50053605  0.28743347  0.36455825  1
  C  C238  1  0.50058891  0.62248946  0.36900929  1
  C  C239  1  0.50706796  0.95351498  0.36461920  1
  C  C240  1  0.25087475  0.21330357  0.63560936  1
  C  C241  1  0.24366013  0.54759129  0.62853992  1
  C  C242  1  0.24441323  0.87924395  0.62909630  1
  C  C243  1  0.75238254  0.21347739  0.63299014  1
  C  C244  1  0.74996018  0.54690417  0.63140098  1
  C  C245  1  0.74640883  0.87894727  0.63553507  1
  C  C246  1  0.24989527  0.12115569  0.13225964  1
  C  C247  1  0.24563676  0.45437328  0.13205448  1
  C  C248  1  0.24735258  0.78759506  0.13464799  1
  C  C249  1  0.74945740  0.12240081  0.13194536  1
  C  C250  1  0.74554505  0.45270754  0.12977153  1
  C  C251  1  0.75029788  0.78757750  0.12926805  1
  C  C252  1  0.24978089  0.21235298  0.86597778  1
  C  C253  1  0.24643485  0.54419721  0.86605691  1
  C  C254  1  0.24637102  0.87896389  0.87072473  1
  C  C255  1  0.75122311  0.21428475  0.87060753  1
  C  C256  1  0.74782283  0.55063947  0.86784670  1
  C  C257  1  0.74888765  0.87678041  0.86757358  1
  C  C258  1  0.24828953  0.12190027  0.36658608  1
  C  C259  1  0.24654332  0.45665301  0.36948818  1
  C  C260  1  0.24767252  0.78550761  0.37347571  1
  C  C261  1  0.74936345  0.12176949  0.36705549  1
  C  C262  1  0.75368586  0.45471863  0.36731784  1
  C  C263  1  0.75373761  0.78684040  0.36604329  1
  C  C264  1  0.30737812  0.23718862  0.95468814  1
  C  C265  1  0.94545464  0.26105112  0.04365270  1
  C  C266  1  0.52753108  0.26183370  0.46135705  1
  C  C267  1  0.77584297  0.90415477  0.53907937  1
  C  C268  1  0.47172797  0.59306907  0.46376257  1
  C  C269  1  0.96248559  0.07398905  0.95887138  1
  C  C270  1  0.31454618  0.42989445  0.45367642  1
  C  C271  1  0.69399404  0.90265514  0.54473625  1
  C  C272  1  0.97534038  0.92320356  0.03915664  1
  C  C273  1  0.31336240  0.76085197  0.45905642  1
  C  C274  1  0.46274278  0.92681837  0.03870558  1
  C  C275  1  0.77628144  0.57496637  0.53489502  1
  C  C276  1  0.06230739  0.40871028  0.95732873  1
  C  C277  1  0.21659975  0.24027799  0.54225374  1
  C  C278  1  0.21007958  0.09491622  0.03881927  1
  C  C279  1  0.28683300  0.91003969  0.96359679  1
  C  C280  1  0.28555349  0.57073386  0.95824307  1
  C  C281  1  0.29151556  0.09448994  0.03845044  1
  C  C282  1  0.97220175  0.73995333  0.96620819  1
  C  C283  1  0.27052127  0.90595959  0.53320935  1
  C  C284  1  0.21928046  0.57483623  0.53303861  1
  C  C285  1  0.22607273  0.23823003  0.96325597  1
  C  C286  1  0.97966349  0.59686650  0.03779402  1
  C  C287  1  0.45971751  0.40843111  0.53757001  1
  C  C288  1  0.80660875  0.23686187  0.54319739  1
  C  C289  1  0.23340570  0.75627945  0.47045872  1
  C  C290  1  0.55674263  0.40291808  0.95876844  1
  C  C291  1  0.02975768  0.59179853  0.46647387  1
  C  C292  1  0.05434049  0.73835988  0.54066907  1
  C  C293  1  0.94917664  0.59306085  0.45918092  1
  C  C294  1  0.77437198  0.75880594  0.46140889  1
  C  C295  1  0.55897153  0.07263062  0.54557778  1
  C  C296  1  0.29993411  0.57225295  0.54033419  1
  C  C297  1  0.02638685  0.25982734  0.03615495  1
  C  C298  1  0.18915060  0.09398221  0.45308329  1
  C  C299  1  0.07482154  0.92847366  0.45521680  1
  C  C300  1  0.21094392  0.75925302  0.04210560  1
  C  C301  1  0.71799426  0.75470166  0.03750151  1
  C  C302  1  0.54582238  0.25872384  0.04171108  1
  C  C303  1  0.99443167  0.92565259  0.46801930  1
  C  C304  1  0.06374461  0.07288281  0.54676409  1
  C  C305  1  0.72562486  0.23791244  0.53561007  1
  C  C306  1  0.44586341  0.26327080  0.45450393  1
  C  C307  1  0.51934736  0.07413895  0.95985297  1
  C  C308  1  0.05267932  0.73793410  0.95844998  1
  C  C309  1  0.76681689  0.42796977  0.46409289  1
  C  C310  1  0.95420104  0.40659573  0.54203600  1
  C  C311  1  0.69478702  0.57312150  0.54220667  1
  N  N312  1  0.55110380  0.59432560  0.45769542  1
  N  N313  1  0.69066287  0.56309668  0.95702736  1
  N  N314  1  0.29050251  0.75987054  0.04142271  1
  N  N315  1  0.76454897  0.09326134  0.46162035  1
  N  N316  1  0.52459246  0.74207634  0.53652765  1
  N  N317  1  0.98585884  0.07584966  0.53792456  1
  N  N318  1  0.81050124  0.09632908  0.04545511  1
  N  N319  1  0.46994909  0.92634288  0.45838776  1
  N  N320  1  0.53936044  0.74006203  0.96205780  1
  N  N321  1  0.53948686  0.40769192  0.53810642  1
  N  N322  1  0.44080098  0.07087395  0.95257566  1
  N  N323  1  0.26806826  0.09128467  0.46091303  1
  N  N324  1  0.46799498  0.25715094  0.03660393  1
  N  N325  1  0.46127467  0.74069640  0.95847353  1
  N  N326  1  0.69921226  0.24082374  0.95761085  1
  N  N327  1  0.70146320  0.90615366  0.95791023  1
  N  N328  1  0.19125079  0.90524806  0.54021151  1
  N  N329  1  0.23696554  0.42778863  0.46531640  1
  N  N330  1  0.68406690  0.43183098  0.04426624  1
  N  N331  1  0.44940113  0.73887214  0.54439289  1
  N  N332  1  0.20803301  0.42369867  0.03954313  1
  N  N333  1  0.28424293  0.42453934  0.03951717  1
  N  N334  1  0.47977475  0.07321394  0.53908144  1
  N  N335  1  0.76969831  0.56606724  0.96617376  1
  N  N336  1  0.47449920  0.59300977  0.03822673  1
  N  N337  1  0.96579697  0.25902464  0.46159925  1
  N  N338  1  0.77682491  0.24240653  0.96656344  1
  N  N339  1  0.98391483  0.40832410  0.96383495  1
  N  N340  1  0.20641020  0.57287564  0.95969555  1
  N  N341  1  0.68748806  0.09620842  0.45305093  1
  N  N342  1  0.47975571  0.40569515  0.96677372  1
  N  N343  1  0.76077535  0.41824821  0.03674381  1
  N  N344  1  0.69576567  0.76094118  0.45475364  1
  N  N345  1  0.03372135  0.40967146  0.54128429  1
  N  N346  1  0.97576705  0.74013289  0.53585384  1
  N  N347  1  0.29589899  0.24026723  0.54288673  1
  N  N348  1  0.05435057  0.92605552  0.04377232  1
  N  N349  1  0.20756268  0.90868914  0.96203113  1
  N  N350  1  0.79546110  0.75547401  0.03821970  1
  N  N351  1  0.68888096  0.42938585  0.45350108  1
  N  N352  1  0.55093544  0.59538273  0.04141898  1
  N  N353  1  0.05843712  0.59630527  0.04364279  1
  N  N354  1  0.54630299  0.92705938  0.45807649  1
  N  N355  1  0.04225812  0.26018923  0.45759821  1
  N  N356  1  0.04174991  0.07400034  0.95886078  1
  N  N357  1  0.77787857  0.90716487  0.96201447  1
  N  N358  1  0.54252099  0.92670685  0.03975452  1
  N  N359  1  0.73313193  0.09221588  0.03818274  1
  N  N360  1  0.07393967  0.05505724  0.60573337  1
  N  N361  1  0.06187325  0.38820044  0.59619196  1
  N  N362  1  0.06913866  0.72025438  0.59888621  1
  N  N363  1  0.57433061  0.05550752  0.60422939  1
  N  N364  1  0.56502807  0.39003750  0.59491465  1
  N  N365  1  0.56040798  0.72509635  0.59089702  1
  N  N366  1  0.43887402  0.27653491  0.09366724  1
  N  N367  1  0.44461583  0.60913796  0.09480699  1
  N  N368  1  0.43834602  0.94327150  0.09594719  1
  N  N369  1  0.92959134  0.27728996  0.10189082  1
  N  N370  1  0.94424214  0.61209015  0.09265884  1
  N  N371  1  0.94033901  0.94080823  0.09325154  1
  N  N372  1  0.43073125  0.05350962  0.89293261  1
  N  N373  1  0.44742740  0.39051766  0.90975296  1
  N  N374  1  0.43609639  0.72184548  0.90276397  1
  N  N375  1  0.93387424  0.05687889  0.90220256  1
  N  N376  1  0.94779312  0.38750993  0.91067322  1
  N  N377  1  0.93698797  0.72527333  0.91281562  1
  N  N378  1  0.06144090  0.27711586  0.39842982  1
  N  N379  1  0.06339386  0.60805446  0.41284650  1
  N  N380  1  0.08109680  0.94457322  0.39497610  1
  N  N381  1  0.56025637  0.27682419  0.40499705  1
  N  N382  1  0.56820898  0.61302235  0.39949509  1
  N  N383  1  0.57087509  0.94408306  0.40014906  1
  N  N384  1  0.31561860  0.22369144  0.60159327  1
  N  N385  1  0.31420717  0.55583379  0.59895256  1
  N  N386  1  0.30392881  0.89046639  0.58822114  1
  N  N387  1  0.82228975  0.22246742  0.60200280  1
  N  N388  1  0.80940101  0.55829923  0.59176746  1
  N  N389  1  0.80708554  0.88959091  0.59601958  1
  N  N390  1  0.18513997  0.11082066  0.09535523  1
  N  N391  1  0.18245012  0.44214530  0.09687200  1
  N  N392  1  0.18334496  0.77609186  0.09893060  1
  N  N393  1  0.69437310  0.11074472  0.08958399  1
  N  N394  1  0.67416564  0.44419684  0.10426537  1
  N  N395  1  0.68746703  0.77401272  0.09222517  1
  N  N396  1  0.19138192  0.22287436  0.90747623  1
  N  N397  1  0.18367082  0.55631420  0.90191330  1
  N  N398  1  0.18214143  0.88889811  0.90497776  1
  N  N399  1  0.68257316  0.22346744  0.89974093  1
  N  N400  1  0.67784712  0.55424575  0.89687020  1
  N  N401  1  0.68232996  0.88792986  0.89912350  1
  N  N402  1  0.30454496  0.11182624  0.40857310  1
  N  N403  1  0.32031412  0.44618653  0.39389044  1
  N  N404  1  0.32061362  0.77897869  0.39794834  1
  N  N405  1  0.80352491  0.11188739  0.41064397  1
  N  N406  1  0.80828290  0.44330854  0.41159166  1
  N  N407  1  0.81173459  0.77475206  0.40739052  1
  N  N408  1  0.43070137  0.27875317  0.39423824  1
  N  N409  1  0.44010596  0.60985453  0.40851408  1
  N  N410  1  0.44440452  0.94221365  0.40052482  1
  N  N411  1  0.93526178  0.27566200  0.40541520  1
  N  N412  1  0.93432221  0.60991292  0.40083650  1
  N  N413  1  0.95322647  0.94076076  0.41395829  1
  N  N414  1  0.06190986  0.05662314  0.90079265  1
  N  N415  1  0.07599161  0.39063362  0.89889199  1
  N  N416  1  0.06624446  0.72221611  0.89959945  1
  N  N417  1  0.55730765  0.05865806  0.90612152  1
  N  N418  1  0.57477530  0.38744999  0.89903060  1
  N  N419  1  0.56349287  0.72338332  0.90536261  1
  N  N420  1  0.05916451  0.27610364  0.09295413  1
  N  N421  1  0.07160750  0.61243552  0.10304826  1
  N  N422  1  0.06768357  0.94581222  0.10255712  1
  N  N423  1  0.56663114  0.27714469  0.09960588  1
  N  N424  1  0.57088081  0.61336596  0.10023351  1
  N  N425  1  0.56736779  0.94181224  0.09753786  1
  N  N426  1  0.44619577  0.05129285  0.59219599  1
  N  N427  1  0.43609008  0.39216203  0.59527497  1
  N  N428  1  0.43491947  0.72063158  0.60348038  1
  N  N429  1  0.94634179  0.05576580  0.58998024  1
  N  N430  1  0.93281051  0.38836640  0.59919294  1
  N  N431  1  0.94060243  0.72019876  0.58963955  1
  N  N432  1  0.17688559  0.11121640  0.39396082  1
  N  N433  1  0.19406392  0.44729388  0.41432661  1
  N  N434  1  0.19365679  0.77127777  0.41878748  1
  N  N435  1  0.67862755  0.11152344  0.39367710  1
  N  N436  1  0.68263940  0.44585693  0.39300838  1
  N  N437  1  0.68477722  0.77829013  0.39541895  1
  N  N438  1  0.32045288  0.22132312  0.89424032  1
  N  N439  1  0.31180114  0.55391134  0.90093829  1
  N  N440  1  0.31085022  0.89188256  0.90700844  1
  N  N441  1  0.80872963  0.22675772  0.91168691  1
  N  N442  1  0.80420831  0.56228531  0.90929334  1
  N  N443  1  0.80854118  0.88866854  0.90627183  1
  N  N444  1  0.31522967  0.11086198  0.09794555  1
  N  N445  1  0.30910235  0.44347681  0.09675161  1
  N  N446  1  0.31129866  0.77748259  0.09970146  1
  N  N447  1  0.81994183  0.11315784  0.10445412  1
  N  N448  1  0.79975062  0.44099716  0.08635574  1
  N  N449  1  0.81578971  0.77637374  0.09664684  1
  N  N450  1  0.18758434  0.22433270  0.59891482  1
  N  N451  1  0.18523774  0.55975479  0.58695838  1
  N  N452  1  0.17614232  0.88903457  0.59952338  1
  N  N453  1  0.69271169  0.22349364  0.59290056  1
  N  N454  1  0.67997016  0.55640312  0.60089949  1
  N  N455  1  0.67730505  0.88739553  0.60486235  1
  Cl  Cl456  1  0.26327744  0.06014441  0.60367992  1
  Cl  Cl457  1  0.24489692  0.39632864  0.60514157  1
  Cl  Cl458  1  0.25066856  0.71559070  0.62075146  1
  Cl  Cl459  1  0.76346164  0.06338097  0.60731603  1
  Cl  Cl460  1  0.74951243  0.38866346  0.61793609  1
  Cl  Cl461  1  0.75283683  0.72386483  0.60875310  1
  Cl  Cl462  1  0.24945368  0.27452680  0.11310173  1
  Cl  Cl463  1  0.26005097  0.61197800  0.11822766  1
  Cl  Cl464  1  0.25190394  0.94519265  0.11400150  1
  Cl  Cl465  1  0.74683390  0.28210074  0.12211332  1
  Cl  Cl466  1  0.75770202  0.61228344  0.10245556  1
  Cl  Cl467  1  0.75142876  0.94818171  0.12147589  1
  Cl  Cl468  1  0.24559327  0.04880016  0.87572076  1
  Cl  Cl469  1  0.26133356  0.38821639  0.87356790  1
  Cl  Cl470  1  0.25344030  0.72331600  0.88492850  1
  Cl  Cl471  1  0.74281058  0.06105290  0.89018789  1
  Cl  Cl472  1  0.76357987  0.39802136  0.89527483  1
  Cl  Cl473  1  0.74767477  0.71412397  0.87884300  1
  Cl  Cl474  1  0.24438562  0.28463063  0.38041402  1
  Cl  Cl475  1  0.25192847  0.61341502  0.38466109  1
  Cl  Cl476  1  0.26340306  0.94577933  0.38246456  1
  Cl  Cl477  1  0.74854052  0.27795250  0.38896129  1
  Cl  Cl478  1  0.75003222  0.61303397  0.37316683  1
  Cl  Cl479  1  0.76228037  0.94601418  0.38991419  1
  Cl  Cl480  1  0.00448694  0.21306330  0.62562044  1
  Cl  Cl481  1  -0.00202016  0.55358971  0.62029044  1
  Cl  Cl482  1  -0.00733485  0.88273924  0.61794004  1
  Cl  Cl483  1  0.50432239  0.22093058  0.61046087  1
  Cl  Cl484  1  0.49866210  0.55268098  0.61383476  1
  Cl  Cl485  1  0.48849616  0.88776295  0.62332540  1
  Cl  Cl486  1  0.00181696  0.11502154  0.12589364  1
  Cl  Cl487  1  -0.01553931  0.43748151  0.10643044  1
  Cl  Cl488  1  -0.00077793  0.78207442  0.12942390  1
  Cl  Cl489  1  0.51112223  0.10997136  0.11414448  1
  Cl  Cl490  1  0.49293116  0.44785372  0.12125707  1
  Cl  Cl491  1  0.49752244  0.78145575  0.10822463  1
  Cl  Cl492  1  -0.00063007  0.22486795  0.89169984  1
  Cl  Cl493  1  -0.01131058  0.55282422  0.88962031  1
  Cl  Cl494  1  -0.00546707  0.88710926  0.88785776  1
  Cl  Cl495  1  0.50462444  0.21810955  0.87572320  1
  Cl  Cl496  1  0.49644466  0.55033310  0.87875218  1
  Cl  Cl497  1  0.49734883  0.88815991  0.89026431  1
  Cl  Cl498  1  -0.01499591  0.10421068  0.39839010  1
  Cl  Cl499  1  0.00488438  0.44012198  0.39853492  1
  Cl  Cl500  1  -0.00063605  0.77105821  0.39815012  1
  Cl  Cl501  1  0.48797247  0.10247634  0.39212313  1
  Cl  Cl502  1  0.50068025  0.44735548  0.38611480  1
  Cl  Cl503  1  0.50280576  0.78081432  0.37098597  1
  Cl  Cl504  1  0.36332402  0.14625813  0.75086003  1
  Cl  Cl505  1  0.36010775  0.48141054  0.73885068  1
  Cl  Cl506  1  0.35750077  0.81536265  0.75255812  1
  Cl  Cl507  1  0.85901985  0.14927829  0.75257347  1
  Cl  Cl508  1  0.85405217  0.48148778  0.75129420  1
  Cl  Cl509  1  0.85776905  0.81591375  0.74958158  1
  Cl  Cl510  1  0.13486971  0.18769924  0.25594790  1
  Cl  Cl511  1  0.13688635  0.51998081  0.24626345  1
  Cl  Cl512  1  0.14016980  0.85293364  0.25999813  1
  Cl  Cl513  1  0.63543358  0.18711819  0.25943204  1
  Cl  Cl514  1  0.63418664  0.52233367  0.24690265  1
  Cl  Cl515  1  0.63702081  0.85560396  0.25129110  1
  Cl  Cl516  1  0.14144971  0.14682691  0.74956700  1
  Cl  Cl517  1  0.13941259  0.47994164  0.74915415  1
  Cl  Cl518  1  0.13845363  0.81287514  0.74717242  1
  Cl  Cl519  1  0.64004044  0.14626487  0.74987661  1
  Cl  Cl520  1  0.63718246  0.47953659  0.75250972  1
  Cl  Cl521  1  0.63594451  0.81306086  0.74963972  1
  Cl  Cl522  1  0.35602649  0.18867992  0.25378655  1
  Cl  Cl523  1  0.35951499  0.51840353  0.25621914  1
  Cl  Cl524  1  0.36285748  0.85162729  0.25044494  1
  Cl  Cl525  1  0.85903158  0.18500124  0.24645032  1
  Cl  Cl526  1  0.85391492  0.51790846  0.24541906  1
  Cl  Cl527  1  0.85916130  0.85222799  0.24904611  1
  Cl  Cl528  1  0.11211378  0.31416648  0.75226994  1
  Cl  Cl529  1  0.10941949  0.64663457  0.75678177  1
  Cl  Cl530  1  0.11439818  0.97853192  0.74254275  1
  Cl  Cl531  1  0.60931945  0.31322228  0.75313515  1
  Cl  Cl532  1  0.61000733  0.64611324  0.74738590  1
  Cl  Cl533  1  0.61209068  0.98046246  0.74549553  1
  Cl  Cl534  1  0.38825344  0.01990951  0.24429253  1
  Cl  Cl535  1  0.38824317  0.35248991  0.25579200  1
  Cl  Cl536  1  0.39221797  0.68538787  0.24982444  1
  Cl  Cl537  1  0.89380589  0.01651471  0.25133736  1
  Cl  Cl538  1  0.88572639  0.35425707  0.24674328  1
  Cl  Cl539  1  0.88954510  0.68497323  0.25620677  1
  Cl  Cl540  1  0.39028587  0.31319602  0.74355035  1
  Cl  Cl541  1  0.38980393  0.64773048  0.74731289  1
  Cl  Cl542  1  0.38766868  0.98043802  0.75569043  1
  Cl  Cl543  1  0.89094804  0.31445778  0.74728472  1
  Cl  Cl544  1  0.88953139  0.64855949  0.75097856  1
  Cl  Cl545  1  0.89237842  0.98283361  0.74976269  1
  Cl  Cl546  1  0.11716875  0.02235021  0.25694672  1
  Cl  Cl547  1  0.10474839  0.35656507  0.24960837  1
  Cl  Cl548  1  0.11017302  0.68465857  0.24773902  1
  Cl  Cl549  1  0.60918133  0.02396386  0.25278191  1
  Cl  Cl550  1  0.61143436  0.35503034  0.24924841  1
  Cl  Cl551  1  0.61501959  0.68742542  0.25048072  1
