# generated using pymatgen
data_H8PbC4(N3Cl2)2
_symmetry_space_group_name_H-M   'P 1'
_cell_length_a   16.62972505
_cell_length_b   22.52672276
_cell_length_c   21.60154526
_cell_angle_alpha   90.00291284
_cell_angle_beta   90.02124765
_cell_angle_gamma   90.01471786
_symmetry_Int_Tables_number   1
_chemical_formula_structural   H8PbC4(N3Cl2)2
_chemical_formula_sum   'H192 Pb24 C96 N144 Cl96'
_cell_volume   8092.22328360
_cell_formula_units_Z   24
loop_
 _symmetry_equiv_pos_site_id
 _symmetry_equiv_pos_as_xyz
  1  'x, y, z'
loop_
 _atom_site_type_symbol
 _atom_site_label
 _atom_site_symmetry_multiplicity
 _atom_site_fract_x
 _atom_site_fract_y
 _atom_site_fract_z
 _atom_site_occupancy
  H  H0  1  -0.01078701  0.02879845  0.67594820  1
  H  H1  1  0.02039186  0.35978722  0.67593594  1
  H  H2  1  -0.00960360  0.69534263  0.67431055  1
  H  H3  1  0.49620474  0.02975730  0.67617921  1
  H  H4  1  0.48185704  0.35491854  0.67707228  1
  H  H5  1  0.50689222  0.70032811  0.68002259  1
  H  H6  1  0.00753189  0.29947989  0.17574202  1
  H  H7  1  -0.03313438  0.63302964  0.16210776  1
  H  H8  1  0.00993940  0.97255780  0.17734602  1
  H  H9  1  0.48795030  0.31026279  0.17503356  1
  H  H10  1  0.46753184  0.63597985  0.16049639  1
  H  H11  1  0.49796240  0.97684874  0.18036885  1
  H  H12  1  -0.00546230  0.02613381  0.82222589  1
  H  H13  1  0.00835386  0.35823503  0.82467848  1
  H  H14  1  -0.00557602  0.69760565  0.81536803  1
  H  H15  1  0.51419445  0.02607851  0.82410476  1
  H  H16  1  0.49738881  0.36245106  0.81692093  1
  H  H17  1  0.49880865  0.69430606  0.82051100  1
  H  H18  1  -0.01301001  0.30479299  0.32754713  1
  H  H19  1  0.01344600  0.64321459  0.32323691  1
  H  H20  1  -0.00199358  0.97446884  0.31900837  1
  H  H21  1  0.49891644  0.30071722  0.31933316  1
  H  H22  1  0.49108120  0.63684960  0.31723314  1
  H  H23  1  0.50892814  0.96656927  0.31988071  1
  H  H24  1  0.24927827  0.19509217  0.68075504  1
  H  H25  1  0.26295298  0.53145880  0.68314929  1
  H  H26  1  0.23751069  0.86426598  0.67464971  1
  H  H27  1  0.75567002  0.19120586  0.67633109  1
  H  H28  1  0.73636807  0.52943288  0.68062749  1
  H  H29  1  0.73959396  0.86042716  0.67846345  1
  H  H30  1  0.25344819  0.13673513  0.17628779  1
  H  H31  1  0.24318075  0.47047767  0.18227295  1
  H  H32  1  0.24136785  0.80607965  0.18239989  1
  H  H33  1  0.74260908  0.14169650  0.18010586  1
  H  H34  1  0.74657184  0.46887041  0.18000069  1
  H  H35  1  0.76247466  0.80260552  0.18027879  1
  H  H36  1  0.26638346  0.19863523  0.81873113  1
  H  H37  1  0.28065801  0.52916443  0.84386538  1
  H  H38  1  0.25081981  0.86148979  0.81911297  1
  H  H39  1  0.73064849  0.19618265  0.82683308  1
  H  H40  1  0.77999406  0.53242539  0.84076336  1
  H  H41  1  0.74578633  0.86237173  0.82329930  1
  H  H42  1  0.26022357  0.14541973  0.32465050  1
  H  H43  1  0.26421594  0.46560114  0.32163897  1
  H  H44  1  0.24576039  0.80761473  0.32338189  1
  H  H45  1  0.75211935  0.13771479  0.32166842  1
  H  H46  1  0.74410993  0.46720759  0.32331545  1
  H  H47  1  0.74566163  0.80699444  0.32514452  1
  H  H48  1  0.12384056  0.04456469  0.61943059  1
  H  H49  1  0.12487025  0.39251447  0.59087775  1
  H  H50  1  0.11956475  0.71987970  0.60877556  1
  H  H51  1  0.63751234  0.04878461  0.62411083  1
  H  H52  1  0.62779225  0.37655979  0.63732725  1
  H  H53  1  0.61267417  0.72666210  0.59660098  1
  H  H54  1  0.37858610  0.27550037  0.09591236  1
  H  H55  1  0.33278647  0.61243299  0.10323024  1
  H  H56  1  0.37215803  0.94914514  0.11081809  1
  H  H57  1  0.87359782  0.28123528  0.11554266  1
  H  H58  1  0.83271535  0.61279593  0.10267613  1
  H  H59  1  0.87206502  0.94919451  0.12105154  1
  H  H60  1  0.37968291  0.05068252  0.88106410  1
  H  H61  1  0.36893740  0.38958511  0.88406479  1
  H  H62  1  0.38212302  0.72016214  0.89545048  1
  H  H63  1  0.88926856  0.05825006  0.90607445  1
  H  H64  1  0.86968315  0.37845825  0.87949716  1
  H  H65  1  0.88173236  0.72116224  0.89363243  1
  H  H66  1  0.12778116  0.28783070  0.37552476  1
  H  H67  1  0.11876193  0.61084944  0.40665009  1
  H  H68  1  0.11770550  0.94603445  0.39353247  1
  H  H69  1  0.63276439  0.28323717  0.38205629  1
  H  H70  1  0.61865014  0.60754122  0.38234104  1
  H  H71  1  0.61116424  0.93935462  0.40440780  1
  H  H72  1  0.36845252  0.22308131  0.60717204  1
  H  H73  1  0.38241016  0.55348771  0.60630855  1
  H  H74  1  0.37419102  0.88343626  0.62196629  1
  H  H75  1  0.86375103  0.22153796  0.59341530  1
  H  H76  1  0.87664672  0.55107760  0.62660270  1
  H  H77  1  0.87931639  0.88243049  0.62642997  1
  H  H78  1  0.11818339  0.11692196  0.11731262  1
  H  H79  1  0.13508911  0.44301207  0.10097957  1
  H  H80  1  0.11857601  0.77804207  0.10977384  1
  H  H81  1  0.61783057  0.11399153  0.11065367  1
  H  H82  1  0.63133195  0.44234622  0.10364715  1
  H  H83  1  0.61945525  0.78510560  0.13219295  1
  H  H84  1  0.12204710  0.21218932  0.86549654  1
  H  H85  1  0.16972114  0.56449402  0.92030194  1
  H  H86  1  0.12839851  0.88707938  0.89155271  1
  H  H87  1  0.63435489  0.22663516  0.91733227  1
  H  H88  1  0.66890508  0.56591976  0.91743580  1
  H  H89  1  0.63005525  0.89098282  0.89819474  1
  H  H90  1  0.36175714  0.10713826  0.40741937  1
  H  H91  1  0.36620773  0.43849961  0.40990049  1
  H  H92  1  0.38000516  0.78319900  0.38552675  1
  H  H93  1  0.86579284  0.11248848  0.40306779  1
  H  H94  1  0.87180738  0.44658030  0.38837512  1
  H  H95  1  0.88278778  0.78099344  0.37891689  1
  H  H96  1  0.38476662  0.27442452  0.39845143  1
  H  H97  1  0.37209843  0.61822615  0.39312054  1
  H  H98  1  0.36650918  0.95140921  0.36995173  1
  H  H99  1  0.88465935  0.27597114  0.41207754  1
  H  H100  1  0.87442631  0.61830391  0.37307511  1
  H  H101  1  0.86934145  0.94690512  0.38674422  1
  H  H102  1  0.13390284  0.04935618  0.87596279  1
  H  H103  1  0.11421254  0.39324154  0.90530849  1
  H  H104  1  0.12935386  0.71462154  0.87400817  1
  H  H105  1  0.62633104  0.05626785  0.90395915  1
  H  H106  1  0.61690797  0.38809467  0.89303771  1
  H  H107  1  0.63054149  0.71669247  0.88078717  1
  H  H108  1  0.12172416  0.27387416  0.09940948  1
  H  H109  1  0.08038106  0.60445518  0.08636921  1
  H  H110  1  0.11729401  0.94276006  0.09336076  1
  H  H111  1  0.62472326  0.28381657  0.12199633  1
  H  H112  1  0.58033868  0.60597998  0.08440892  1
  H  H113  1  0.62048038  0.94449776  0.11022228  1
  H  H114  1  0.39295288  0.06072521  0.59114890  1
  H  H115  1  0.38850975  0.39148132  0.58774633  1
  H  H116  1  0.36636332  0.71822511  0.62559987  1
  H  H117  1  0.87843395  0.05744225  0.59783357  1
  H  H118  1  0.88051058  0.37893220  0.62008743  1
  H  H119  1  0.87098923  0.72543255  0.60205423  1
  H  H120  1  0.11791122  0.12210523  0.37285878  1
  H  H121  1  0.12268679  0.44903685  0.37447838  1
  H  H122  1  0.13321484  0.77684800  0.40236783  1
  H  H123  1  0.61869805  0.11301403  0.38378206  1
  H  H124  1  0.62301516  0.44409669  0.39634162  1
  H  H125  1  0.63651610  0.77398315  0.40512173  1
  H  H126  1  0.36478549  0.22376238  0.90667589  1
  H  H127  1  0.41663097  0.55617918  0.89842495  1
  H  H128  1  0.37742236  0.88704407  0.88695379  1
  H  H129  1  0.87510369  0.21534080  0.87441776  1
  H  H130  1  0.91561116  0.55469197  0.89730203  1
  H  H131  1  0.87882790  0.88622044  0.88547822  1
  H  H132  1  0.36660970  0.11230363  0.09917006  1
  H  H133  1  0.38145802  0.45145828  0.12861552  1
  H  H134  1  0.36694784  0.77803045  0.11312370  1
  H  H135  1  0.86703445  0.11520264  0.11083186  1
  H  H136  1  0.87912109  0.44710742  0.11623431  1
  H  H137  1  0.86316809  0.77449881  0.09514905  1
  H  H138  1  0.11968913  0.21657899  0.61376573  1
  H  H139  1  0.13377015  0.55576248  0.61886571  1
  H  H140  1  0.12923657  0.88826114  0.59278916  1
  H  H141  1  0.61756264  0.21650671  0.62287357  1
  H  H142  1  0.63156109  0.55911718  0.59651631  1
  H  H143  1  0.63355617  0.89187072  0.59534050  1
  H  H144  1  0.53537336  0.91341154  0.50916076  1
  H  H145  1  0.17192498  0.58217491  0.50625519  1
  H  H146  1  0.60277825  0.74954596  0.99361067  1
  H  H147  1  0.89205990  0.58447758  0.48612543  1
  H  H148  1  0.28138232  0.08049052  0.50596662  1
  H  H149  1  0.11800342  0.25502843  0.49103148  1
  H  H150  1  0.52264212  0.57645656  -0.02329274  1
  H  H151  1  0.73302983  0.58959163  1.02155442  1
  H  H152  1  0.54131296  0.75762509  0.49333950  1
  H  H153  1  0.89248219  0.41656237  0.98460373  1
  H  H154  1  0.30774958  0.08166036  -0.00808238  1
  H  H155  1  0.45138430  0.24505916  -0.00383593  1
  H  H156  1  0.47231192  0.07888549  0.49187729  1
  H  H157  1  0.23464570  0.58887278  1.02432744  1
  H  H158  1  0.10414191  0.74630652  0.98664408  1
  H  H159  1  0.11369164  0.08146100  0.98565947  1
  H  H160  1  0.81649877  0.08184423  0.00282455  1
  H  H161  1  0.83439490  0.41460520  0.49989315  1
  H  H162  1  0.62804706  0.41129141  0.52365238  1
  H  H163  1  0.69244554  0.41154631  -0.00267032  1
  H  H164  1  0.44074976  0.61941649  0.49735226  1
  H  H165  1  0.03874670  0.41002098  1.00690010  1
  H  H166  1  0.68772473  0.92066009  1.00588631  1
  H  H167  1  0.70909490  0.74623452  0.50583362  1
  H  H168  1  0.20281065  0.41482555  -0.00448560  1
  H  H169  1  0.38741587  0.75073020  0.51787122  1
  H  H170  1  0.04293896  0.59103805  0.50700607  1
  H  H171  1  0.43835031  0.75302266  1.00255564  1
  H  H172  1  0.60148647  0.25374329  0.49340967  1
  H  H173  1  0.02437862  0.57785720  -0.02238298  1
  H  H174  1  0.33164596  0.91824252  0.99543075  1
  H  H175  1  0.70653156  0.58831356  0.49481101  1
  H  H176  1  0.86097934  0.91851605  0.51570886  1
  H  H177  1  0.47514633  0.41568358  0.49411476  1
  H  H178  1  0.28462356  0.41125968  0.50639254  1
  H  H179  1  0.10192690  0.07779686  0.50451880  1
  H  H180  1  0.70761448  0.91550892  0.49549192  1
  H  H181  1  0.61789094  0.08430228  0.51696688  1
  H  H182  1  0.56010436  0.55171620  0.47149972  1
  H  H183  1  0.35742071  0.91495332  0.50550903  1
  H  H184  1  0.36246765  0.42088836  0.01528166  1
  H  H185  1  0.94389411  0.74919995  1.00196227  1
  H  H186  1  0.32412632  0.56219640  0.49999629  1
  H  H187  1  0.28524727  0.24879299  1.00927825  1
  H  H188  1  0.06735828  0.24310025  -0.00772122  1
  H  H189  1  0.86535065  0.24502317  0.98544730  1
  H  H190  1  0.84440374  0.91405279  0.99264062  1
  H  H191  1  0.78576056  0.74769221  -0.00881434  1
  Pb  Pb192  1  0.25920767  0.05137053  0.73686214  1
  Pb  Pb193  1  0.25228977  0.38295739  0.74602432  1
  Pb  Pb194  1  0.25529169  0.71474706  0.75181627  1
  Pb  Pb195  1  0.75533643  0.04843005  0.76009300  1
  Pb  Pb196  1  0.75639836  0.38317140  0.75579408  1
  Pb  Pb197  1  0.75881716  0.71788071  0.74258631  1
  Pb  Pb198  1  0.24776196  0.28561307  0.24601501  1
  Pb  Pb199  1  0.23757554  0.61502691  0.25542534  1
  Pb  Pb200  1  0.24289296  0.95328969  0.24453285  1
  Pb  Pb201  1  0.74689204  0.28557322  0.25580023  1
  Pb  Pb202  1  0.74328166  0.61944078  0.24710580  1
  Pb  Pb203  1  0.74508544  0.95083296  0.25523534  1
  Pb  Pb204  1  -0.00134275  0.21432960  0.73819854  1
  Pb  Pb205  1  0.01114440  0.54976020  0.74942847  1
  Pb  Pb206  1  0.01067013  0.88385338  0.74716649  1
  Pb  Pb207  1  0.50587335  0.21620615  0.76342905  1
  Pb  Pb208  1  0.51069748  0.55005320  0.74513795  1
  Pb  Pb209  1  0.50518279  0.88236412  0.74891393  1
  Pb  Pb210  1  -0.00704503  0.12017362  0.25266954  1
  Pb  Pb211  1  -0.00465926  0.44988799  0.24046857  1
  Pb  Pb212  1  -0.00200576  0.78400432  0.24507406  1
  Pb  Pb213  1  0.49189830  0.11803459  0.25500634  1
  Pb  Pb214  1  0.49854376  0.45224118  0.25914592  1
  Pb  Pb215  1  0.49416019  0.78406855  0.25547777  1
  C  C216  1  -0.00186495  0.04361753  0.62876294  1
  C  C217  1  0.00899177  0.37640087  0.62961390  1
  C  C218  1  -0.00623810  0.71335815  0.62809839  1
  C  C219  1  0.50922060  0.04558674  0.62961465  1
  C  C220  1  0.49967884  0.37321644  0.63245152  1
  C  C221  1  0.49448518  0.71505157  0.63302525  1
  C  C222  1  0.00127641  0.28491542  0.12814641  1
  C  C223  1  -0.04054342  0.61740175  0.11471737  1
  C  C224  1  -0.00013850  0.95585774  0.13082111  1
  C  C225  1  0.49684020  0.29138981  0.12952611  1
  C  C226  1  0.45980132  0.61896776  0.11371576  1
  C  C227  1  0.49697524  0.95822148  0.13412750  1
  C  C228  1  0.00639721  0.04342269  0.86822810  1
  C  C229  1  -0.00278328  0.37590443  0.87078357  1
  C  C230  1  0.00231374  0.71171459  0.86310531  1
  C  C231  1  0.50699581  0.04386859  0.87023740  1
  C  C232  1  0.49429994  0.37871067  0.86417947  1
  C  C233  1  0.50407232  0.71096821  0.86754961  1
  C  C234  1  0.00089284  0.28960045  0.37389967  1
  C  C235  1  0.00229626  0.62571400  0.36937545  1
  C  C236  1  -0.00537277  0.95706203  0.36579741  1
  C  C237  1  0.50567430  0.28615904  0.36689424  1
  C  C238  1  0.49417039  0.62142242  0.36483002  1
  C  C239  1  0.49553783  0.95261547  0.36678194  1
  C  C240  1  0.24585191  0.21139441  0.63385208  1
  C  C241  1  0.26025553  0.54511376  0.63491532  1
  C  C242  1  0.24796090  0.87884958  0.62751205  1
  C  C243  1  0.74586603  0.20897760  0.63047795  1
  C  C244  1  0.74862727  0.54552415  0.63415911  1
  C  C245  1  0.75084939  0.87700092  0.63187358  1
  C  C246  1  0.24641942  0.12186826  0.12881561  1
  C  C247  1  0.25371513  0.45550201  0.13512339  1
  C  C248  1  0.24226218  0.78900269  0.13547481  1
  C  C249  1  0.74251631  0.12392443  0.13346483  1
  C  C250  1  0.75277721  0.45390864  0.13244088  1
  C  C251  1  0.74824221  0.78799103  0.13366967  1
  C  C252  1  0.25082991  0.21152166  0.86552801  1
  C  C253  1  0.28861468  0.54872102  0.88951538  1
  C  C254  1  0.25222297  0.87766470  0.86630758  1
  C  C255  1  0.74700495  0.21192702  0.87266029  1
  C  C256  1  0.78802350  0.54982547  0.88740229  1
  C  C257  1  0.75214809  0.87872169  0.87045951  1
  C  C258  1  0.24700468  0.12676587  0.36974571  1
  C  C259  1  0.25136477  0.45103899  0.36844905  1
  C  C260  1  0.25312111  0.79048841  0.37009043  1
  C  C261  1  0.74523026  0.12219266  0.36903457  1
  C  C262  1  0.74705804  0.45222182  0.37087859  1
  C  C263  1  0.75470944  0.78908646  0.37109586  1
  C  C264  1  0.48807224  0.58852096  0.01788292  1
  C  C265  1  0.98622211  0.25928957  0.47036674  1
  C  C266  1  0.05788592  0.73663878  0.95240829  1
  C  C267  1  0.97346131  0.07322831  0.53339412  1
  C  C268  1  0.40548325  0.59206612  0.02343536  1
  C  C269  1  0.30741776  0.90524329  0.53951466  1
  C  C270  1  0.68947362  0.24062699  0.54528433  1
  C  C271  1  0.02837127  0.25574729  0.03202751  1
  C  C272  1  0.55669144  0.25532260  0.04593153  1
  C  C273  1  0.55502299  0.26219582  0.45714967  1
  C  C274  1  0.05431682  0.06903384  0.53910451  1
  C  C275  1  0.27177942  0.09348466  0.03236857  1
  C  C276  1  0.31430530  0.42966498  0.04804638  1
  C  C277  1  0.47412946  0.74081357  0.96235818  1
  C  C278  1  0.75888836  0.76016511  0.03526169  1
  C  C279  1  0.72172708  0.90855983  0.96474983  1
  C  C280  1  0.42816582  0.92937654  0.45165366  1
  C  C281  1  0.06642274  0.26348622  0.45950957  1
  C  C282  1  0.34534501  0.57975098  0.97642703  1
  C  C283  1  0.45480399  0.07535439  0.95692282  1
  C  C284  1  0.25891321  0.23700268  0.96460527  1
  C  C285  1  0.93941599  0.59439148  0.45281427  1
  C  C286  1  -0.01148990  0.58913530  0.01828507  1
  C  C287  1  0.70925150  0.42558866  0.46526349  1
  C  C288  1  0.23320047  0.42676617  0.03833136  1
  C  C289  1  0.79090568  0.42566271  0.46409644  1
  C  C290  1  0.72620143  0.42552967  0.03808723  1
  C  C291  1  0.21252167  0.57043948  0.54371240  1
  C  C292  1  0.19075532  0.09579571  0.04005024  1
  C  C293  1  0.73422310  0.57491304  0.53842615  1
  C  C294  1  0.77871096  0.09303264  0.04222023  1
  C  C295  1  0.29148311  0.90671200  0.95759756  1
  C  C296  1  0.94714652  0.25870445  0.03879332  1
  C  C297  1  0.67975687  0.76445530  0.04967120  1
  C  C298  1  0.20262393  0.24108223  0.54345837  1
  C  C299  1  0.81289543  0.90887815  0.54850163  1
  C  C300  1  0.84486596  0.58030076  0.97523501  1
  C  C301  1  0.17980744  0.23205852  0.94917787  1
  C  C302  1  0.90576915  0.59282739  0.02284733  1
  C  C303  1  0.55592153  0.73927467  0.95743291  1
  C  C304  1  0.50778295  0.92513128  0.46497139  1
  C  C305  1  0.22665530  0.90637472  0.53108252  1
  C  C306  1  0.81493258  0.75510559  0.45586066  1
  C  C307  1  0.96239574  0.74790889  0.53683431  1
  C  C308  1  0.97630394  0.73856942  0.95966282  1
  C  C309  1  0.51314153  0.74506175  0.53700239  1
  C  C310  1  0.18041600  0.09258753  0.45072922  1
  C  C311  1  0.57388731  0.40308475  0.55396527  1
  N  N312  1  0.53321339  0.92317002  0.04300416  1
  N  N313  1  0.53153035  0.07753800  0.96529594  1
  N  N314  1  0.02459420  0.41056327  0.53463335  1
  N  N315  1  0.49465046  0.08058505  0.53694366  1
  N  N316  1  0.73717510  0.24210373  0.96959048  1
  N  N317  1  0.81212713  0.57142349  0.54807201  1
  N  N318  1  0.01513855  0.41257996  0.96260312  1
  N  N319  1  0.69946204  0.09160435  0.04207863  1
  N  N320  1  0.76582436  0.24309781  0.53475463  1
  N  N321  1  0.29220728  0.56870411  0.54000950  1
  N  N322  1  0.26505425  0.58479480  0.98173427  1
  N  N323  1  0.21224835  0.90732426  0.95956989  1
  N  N324  1  0.94968036  0.40591355  0.54372806  1
  N  N325  1  0.80097322  0.90615445  0.95931014  1
  N  N326  1  0.45072685  0.40763179  0.95542968  1
  N  N327  1  0.06405593  0.07294958  0.95222550  1
  N  N328  1  0.28221731  0.75831979  0.04365460  1
  N  N329  1  0.94244469  0.92709023  0.04411449  1
  N  N330  1  0.22813139  0.75914810  0.46471910  1
  N  N331  1  0.45690269  0.59502145  0.45894414  1
  N  N332  1  0.73432858  0.91182335  0.53855241  1
  N  N333  1  0.47850453  0.25399889  0.03804319  1
  N  N334  1  0.20589570  0.75852717  0.04266488  1
  N  N335  1  0.52690784  0.40782961  0.95825380  1
  N  N336  1  0.26157548  0.42261475  0.46309574  1
  N  N337  1  0.81267864  0.23763923  0.95466231  1
  N  N338  1  0.43491751  0.74269231  0.54818247  1
  N  N339  1  0.54054345  0.59225351  0.45543233  1
  N  N340  1  0.98739632  0.07656185  0.96311521  1
  N  N341  1  0.47619206  0.25871898  0.46318949  1
  N  N342  1  0.02759579  0.92564508  0.45898207  1
  N  N343  1  0.76437597  0.58552582  0.97962907  1
  N  N344  1  0.18496968  0.42644473  0.45301540  1
  N  N345  1  0.93796406  0.39942598  0.95647676  1
  N  N346  1  0.77085537  0.09454205  0.46465903  1
  N  N347  1  0.30404390  0.76204410  0.45926782  1
  N  N348  1  0.80524586  0.42909384  0.04157457  1
  N  N349  1  0.49697423  0.40815355  0.53859866  1
  N  N350  1  0.01808394  0.92455773  0.03527098  1
  N  N351  1  0.95171570  0.92665138  0.45670462  1
  N  N352  1  0.27982867  0.24336519  0.53965514  1
  N  N353  1  0.01787178  0.59228770  0.46341790  1
  N  N354  1  0.25773970  0.08825987  0.46177414  1
  N  N355  1  0.57137906  0.06750010  0.54492441  1
  N  N356  1  0.03963103  0.74583993  0.53746323  1
  N  N357  1  0.69476404  0.09622078  0.45888833  1
  N  N358  1  0.73664903  0.75401412  0.46373828  1
  N  N359  1  0.45665922  0.92458332  0.04345671  1
  N  N360  1  0.06830168  0.05065665  0.59982722  1
  N  N361  1  0.06296532  0.39251675  0.58762343  1
  N  N362  1  0.05939258  0.72437254  0.59567984  1
  N  N363  1  0.58083115  0.05543394  0.60511420  1
  N  N364  1  0.57519414  0.38352997  0.61298324  1
  N  N365  1  0.55047298  0.72782376  0.58963238  1
  N  N366  1  0.44044451  0.27825079  0.08853795  1
  N  N367  1  0.39000390  0.61100262  0.08421452  1
  N  N368  1  0.43292302  0.94645701  0.09971928  1
  N  N369  1  0.93136204  0.27617167  0.09733631  1
  N  N370  1  0.89003121  0.61085505  0.08410772  1
  N  N371  1  0.92984100  0.94661462  0.10332411  1
  N  N372  1  0.43698726  0.05551366  0.89926817  1
  N  N373  1  0.42889822  0.38923233  0.89744900  1
  N  N374  1  0.44315495  0.72323997  0.90607997  1
  N  N375  1  0.95173540  0.05858438  0.91045409  1
  N  N376  1  0.92656736  0.38660281  0.89661818  1
  N  N377  1  0.94305048  0.72300612  0.90372444  1
  N  N378  1  0.07379673  0.28207167  0.39827448  1
  N  N379  1  0.05673182  0.61539199  0.41282460  1
  N  N380  1  0.05598377  0.94389637  0.40265603  1
  N  N381  1  0.57441210  0.27881204  0.39820546  1
  N  N382  1  0.55841689  0.60233039  0.39466067  1
  N  N383  1  0.54903547  0.93985816  0.41073692  1
  N  N384  1  0.30695090  0.22473329  0.59737076  1
  N  N385  1  0.32131959  0.54957764  0.59597639  1
  N  N386  1  0.31908896  0.88820239  0.60081237  1
  N  N387  1  0.80119783  0.22227750  0.58894574  1
  N  N388  1  0.81961926  0.55320910  0.60784487  1
  N  N389  1  0.82308007  0.88901305  0.60680372  1
  N  N390  1  0.17589668  0.11264542  0.09887895  1
  N  N391  1  0.19684058  0.44299226  0.09300531  1
  N  N392  1  0.17958770  0.77751156  0.09945371  1
  N  N393  1  0.67863335  0.11094639  0.09919890  1
  N  N394  1  0.69268858  0.44138296  0.09314019  1
  N  N395  1  0.67357148  0.78067275  0.10914965  1
  N  N396  1  0.17583096  0.21714976  0.88923445  1
  N  N397  1  0.23090528  0.56144038  0.92960600  1
  N  N398  1  0.18950623  0.88894425  0.90236463  1
  N  N399  1  0.69649719  0.22619458  0.91827163  1
  N  N400  1  0.73004395  0.56233104  0.92727889  1
  N  N401  1  0.69105457  0.89191352  0.90939021  1
  N  N402  1  0.29975880  0.11247913  0.41293436  1
  N  N403  1  0.30380360  0.43833968  0.41254790  1
  N  N404  1  0.32102860  0.78135461  0.40057496  1
  N  N405  1  0.80333747  0.11124602  0.40951987  1
  N  N406  1  0.81295608  0.44257350  0.40419962  1
  N  N407  1  0.82623664  0.77593533  0.39814764  1
  N  N408  1  0.44706918  0.27372834  0.40640445  1
  N  N409  1  0.43296796  0.61991612  0.40399695  1
  N  N410  1  0.42122799  0.94573923  0.39215797  1
  N  N411  1  0.94678254  0.27503958  0.41888720  1
  N  N412  1  0.92983209  0.61299011  0.39397136  1
  N  N413  1  0.92951140  0.94670470  0.39921680  1
  N  N414  1  0.07677478  0.05253179  0.89483860  1
  N  N415  1  0.05252618  0.38807660  0.91314940  1
  N  N416  1  0.07242057  0.72002925  0.89237285  1
  N  N417  1  0.56445996  0.05759921  0.91003639  1
  N  N418  1  0.55529684  0.38998927  0.90184714  1
  N  N419  1  0.57276027  0.72107116  0.89819147  1
  N  N420  1  0.06078714  0.27258861  0.08911911  1
  N  N421  1  0.01921316  0.60433130  0.07528379  1
  N  N422  1  0.05503904  0.94236086  0.08882438  1
  N  N423  1  0.56821031  0.27759919  0.10285411  1
  N  N424  1  0.51920172  0.60551858  0.07393791  1
  N  N425  1  0.55948930  0.94373680  0.09918298  1
  N  N426  1  0.45562579  0.05680507  0.58564352  1
  N  N427  1  0.45112452  0.38676088  0.58595679  1
  N  N428  1  0.42373999  0.72390913  0.60710196  1
  N  N429  1  0.93970084  0.05798721  0.58726792  1
  N  N430  1  0.93842151  0.38432720  0.60249559  1
  N  N431  1  0.93125117  0.72816776  0.59125083  1
  N  N432  1  0.17316625  0.11488698  0.39321584  1
  N  N433  1  0.17905779  0.44322288  0.39370926  1
  N  N434  1  0.19514882  0.77708017  0.40989181  1
  N  N435  1  0.67741975  0.11254695  0.39939486  1
  N  N436  1  0.68313555  0.44129393  0.40849457  1
  N  N437  1  0.69837344  0.77703564  0.41250870  1
  N  N438  1  0.30236642  0.22379290  0.91111738  1
  N  N439  1  0.35944483  0.55955050  0.91756348  1
  N  N440  1  0.31765502  0.88879597  0.90066184  1
  N  N441  1  0.81966662  0.21916424  0.89601058  1
  N  N442  1  0.85876712  0.56005384  0.91609476  1
  N  N443  1  0.81954556  0.88671162  0.90166198  1
  N  N444  1  0.30540131  0.11018188  0.08903779  1
  N  N445  1  0.32540906  0.44747617  0.10813684  1
  N  N446  1  0.30612753  0.77727454  0.10096681  1
  N  N447  1  0.80684321  0.11222788  0.09806894  1
  N  N448  1  0.82021914  0.44641025  0.10095521  1
  N  N449  1  0.80095854  0.77516263  0.08919686  1
  N  N450  1  0.17899942  0.22173176  0.60044337  1
  N  N451  1  0.19275583  0.55724102  0.60258651  1
  N  N452  1  0.19097933  0.89065225  0.58411231  1
  N  N453  1  0.67445014  0.22076330  0.60363384  1
  N  N454  1  0.69374856  0.55926212  0.59089594  1
  N  N455  1  0.69623527  0.88863882  0.58898345  1
  Cl  Cl456  1  0.27410445  0.06300870  0.59888602  1
  Cl  Cl457  1  0.26476154  0.39408076  0.60134911  1
  Cl  Cl458  1  0.24295314  0.71507605  0.61878915  1
  Cl  Cl459  1  0.76025218  0.05313736  0.62729470  1
  Cl  Cl460  1  0.75746674  0.38078953  0.62731543  1
  Cl  Cl461  1  0.73662125  0.72715088  0.60285611  1
  Cl  Cl462  1  0.25326959  0.27422198  0.11035446  1
  Cl  Cl463  1  0.20440159  0.60446480  0.11226512  1
  Cl  Cl464  1  0.24509532  0.94570411  0.11074263  1
  Cl  Cl465  1  0.74953486  0.28547379  0.12529419  1
  Cl  Cl466  1  0.70424244  0.60772357  0.11005445  1
  Cl  Cl467  1  0.74412099  0.94167347  0.11962238  1
  Cl  Cl468  1  0.25682049  0.05028468  0.86864177  1
  Cl  Cl469  1  0.23665189  0.39741343  0.88168580  1
  Cl  Cl470  1  0.25937275  0.71280298  0.87971943  1
  Cl  Cl471  1  0.76267517  0.05556109  0.89567652  1
  Cl  Cl472  1  0.74105186  0.38923283  0.89175416  1
  Cl  Cl473  1  0.75920564  0.71639106  0.87619767  1
  Cl  Cl474  1  0.26337925  0.27861146  0.37636495  1
  Cl  Cl475  1  0.24639231  0.60335863  0.39628451  1
  Cl  Cl476  1  0.23805783  0.95098716  0.37730758  1
  Cl  Cl477  1  0.76181170  0.28186614  0.38565444  1
  Cl  Cl478  1  0.74177350  0.61381579  0.38275100  1
  Cl  Cl479  1  0.73789571  0.93631060  0.39541125  1
  Cl  Cl480  1  -0.00970307  0.22134237  0.60334330  1
  Cl  Cl481  1  0.01032409  0.56468006  0.61262558  1
  Cl  Cl482  1  0.00724730  0.88486357  0.61571014  1
  Cl  Cl483  1  0.49203282  0.21924957  0.63089743  1
  Cl  Cl484  1  0.50604601  0.55969749  0.60252578  1
  Cl  Cl485  1  0.51420189  0.89103920  0.61317257  1
  Cl  Cl486  1  -0.00696078  0.11505650  0.12239657  1
  Cl  Cl487  1  0.01121765  0.43625982  0.10296726  1
  Cl  Cl488  1  -0.01019961  0.77144813  0.10952595  1
  Cl  Cl489  1  0.49153284  0.11774652  0.12368254  1
  Cl  Cl490  1  0.51092482  0.44654616  0.12936574  1
  Cl  Cl491  1  0.48767500  0.77432196  0.12381774  1
  Cl  Cl492  1  -0.00311026  0.21882446  0.87080809  1
  Cl  Cl493  1  0.04551265  0.55201389  0.88325956  1
  Cl  Cl494  1  0.00215820  0.88883460  0.87935464  1
  Cl  Cl495  1  0.49361895  0.22557159  0.90215364  1
  Cl  Cl496  1  0.54293951  0.55887099  0.87986781  1
  Cl  Cl497  1  0.50491314  0.89132730  0.87796160  1
  Cl  Cl498  1  -0.01240986  0.11404888  0.38768212  1
  Cl  Cl499  1  -0.00414774  0.45572815  0.36802167  1
  Cl  Cl500  1  0.01084330  0.77507441  0.37636580  1
  Cl  Cl501  1  0.48522054  0.10148035  0.39679596  1
  Cl  Cl502  1  0.48966709  0.44591423  0.40370749  1
  Cl  Cl503  1  0.51191173  0.77214649  0.39180425  1
  Cl  Cl504  1  0.35573750  0.14918248  0.74889953  1
  Cl  Cl505  1  0.36180513  0.48184340  0.76133901  1
  Cl  Cl506  1  0.36765210  0.81362179  0.73693838  1
  Cl  Cl507  1  0.85910570  0.15321887  0.75581554  1
  Cl  Cl508  1  0.85995555  0.48249929  0.75845354  1
  Cl  Cl509  1  0.86295350  0.81240129  0.74650453  1
  Cl  Cl510  1  0.13327244  0.18586529  0.25093364  1
  Cl  Cl511  1  0.14649307  0.51509899  0.25544214  1
  Cl  Cl512  1  0.13917232  0.84876481  0.25057157  1
  Cl  Cl513  1  0.64058484  0.18752561  0.25699370  1
  Cl  Cl514  1  0.63974876  0.51540269  0.26297643  1
  Cl  Cl515  1  0.63293109  0.85078091  0.24704276  1
  Cl  Cl516  1  0.13475673  0.14404730  0.75023369  1
  Cl  Cl517  1  0.14135050  0.48283799  0.73612636  1
  Cl  Cl518  1  0.14702243  0.81640601  0.75390405  1
  Cl  Cl519  1  0.64024233  0.14788537  0.74916592  1
  Cl  Cl520  1  0.64116541  0.48134467  0.74755324  1
  Cl  Cl521  1  0.64337523  0.81544091  0.75427693  1
  Cl  Cl522  1  0.35521786  0.18238191  0.24895515  1
  Cl  Cl523  1  0.36539261  0.52378808  0.24703089  1
  Cl  Cl524  1  0.36188044  0.85684294  0.25825998  1
  Cl  Cl525  1  0.85895049  0.18773036  0.24305375  1
  Cl  Cl526  1  0.86117663  0.52184051  0.23625922  1
  Cl  Cl527  1  0.85799313  0.85073143  0.25616386  1
  Cl  Cl528  1  0.11243030  0.31430559  0.75016731  1
  Cl  Cl529  1  0.11088669  0.65213250  0.74825667  1
  Cl  Cl530  1  0.11300493  0.98068919  0.74046334  1
  Cl  Cl531  1  0.60749517  0.31334378  0.75126882  1
  Cl  Cl532  1  0.60809669  0.64998635  0.74279606  1
  Cl  Cl533  1  0.61662162  0.98296337  0.74837195  1
  Cl  Cl534  1  0.38752347  0.01995145  0.25426283  1
  Cl  Cl535  1  0.39028871  0.35132324  0.24928166  1
  Cl  Cl536  1  0.38571030  0.68499167  0.24974825  1
  Cl  Cl537  1  0.87942963  0.01965034  0.24702347  1
  Cl  Cl538  1  0.89374733  0.35396893  0.24224792  1
  Cl  Cl539  1  0.88328368  0.68428175  0.25094650  1
  Cl  Cl540  1  0.38565884  0.31294290  0.75481697  1
  Cl  Cl541  1  0.38716861  0.64364655  0.74262339  1
  Cl  Cl542  1  0.39473807  0.98393631  0.74558715  1
  Cl  Cl543  1  0.89128226  0.31697716  0.75723138  1
  Cl  Cl544  1  0.88989839  0.64530728  0.74612741  1
  Cl  Cl545  1  0.89285475  0.98094004  0.75192573  1
  Cl  Cl546  1  0.10459308  0.01942059  0.24893793  1
  Cl  Cl547  1  0.11092055  0.35245966  0.25776590  1
  Cl  Cl548  1  0.10295143  0.67875017  0.24190218  1
  Cl  Cl549  1  0.61080367  0.02132337  0.25577944  1
  Cl  Cl550  1  0.60983372  0.35162644  0.25498104  1
  Cl  Cl551  1  0.60621368  0.68375294  0.24894706  1
