# generated using pymatgen
data_H8PbC4(N3Cl2)2
_symmetry_space_group_name_H-M   'P 1'
_cell_length_a   16.62055766
_cell_length_b   22.50574382
_cell_length_c   21.58924888
_cell_angle_alpha   90.00177169
_cell_angle_beta   90.01514890
_cell_angle_gamma   90.00241778
_symmetry_Int_Tables_number   1
_chemical_formula_structural   H8PbC4(N3Cl2)2
_chemical_formula_sum   'H192 Pb24 C96 N144 Cl96'
_cell_volume   8075.63124249
_cell_formula_units_Z   24
loop_
 _symmetry_equiv_pos_site_id
 _symmetry_equiv_pos_as_xyz
  1  'x, y, z'
loop_
 _atom_site_type_symbol
 _atom_site_label
 _atom_site_symmetry_multiplicity
 _atom_site_fract_x
 _atom_site_fract_y
 _atom_site_fract_z
 _atom_site_occupancy
  H  H0  1  0.00609477  0.02996489  0.67917700  1
  H  H1  1  0.00695418  0.36441376  0.68021679  1
  H  H2  1  -0.00126400  0.69725654  0.68100943  1
  H  H3  1  0.49782780  0.03058179  0.67784116  1
  H  H4  1  0.50230267  0.36488008  0.68024772  1
  H  H5  1  0.50209178  0.69762589  0.67747436  1
  H  H6  1  -0.00609126  0.30018663  0.18064212  1
  H  H7  1  0.00689105  0.63728376  0.17821328  1
  H  H8  1  -0.01662367  0.96635018  0.17601964  1
  H  H9  1  0.49935752  0.30053168  0.17751334  1
  H  H10  1  0.49767094  0.63437599  0.17464146  1
  H  H11  1  0.51168528  0.96885683  0.17887673  1
  H  H12  1  -0.00011914  0.02951931  0.81815113  1
  H  H13  1  -0.00297912  0.36503609  0.81948676  1
  H  H14  1  -0.00316645  0.69789018  0.82429439  1
  H  H15  1  0.49650285  0.03197123  0.81898893  1
  H  H16  1  0.49949234  0.36489872  0.81961633  1
  H  H17  1  0.49105400  0.69470492  0.82062081  1
  H  H18  1  0.00856598  0.29962980  0.31911831  1
  H  H19  1  0.00515041  0.63535743  0.32269053  1
  H  H20  1  -0.00006063  0.96788197  0.31903280  1
  H  H21  1  0.49005829  0.30091744  0.31751625  1
  H  H22  1  0.49733787  0.63687957  0.32004454  1
  H  H23  1  0.49760613  0.96955588  0.31891449  1
  H  H24  1  0.24958886  0.19956155  0.68413482  1
  H  H25  1  0.25781549  0.53061577  0.68116750  1
  H  H26  1  0.25328127  0.86246553  0.67798808  1
  H  H27  1  0.75624152  0.19686847  0.67913549  1
  H  H28  1  0.74912723  0.53219744  0.67687076  1
  H  H29  1  0.74922234  0.86521904  0.68013218  1
  H  H30  1  0.24370549  0.13607371  0.18195035  1
  H  H31  1  0.25619548  0.46831493  0.17745524  1
  H  H32  1  0.25444655  0.80266103  0.17751821  1
  H  H33  1  0.75132536  0.13453396  0.18334954  1
  H  H34  1  0.75378206  0.47135673  0.17818727  1
  H  H35  1  0.75849662  0.80023823  0.17727008  1
  H  H36  1  0.24340782  0.19628883  0.82046183  1
  H  H37  1  0.24945919  0.53344853  0.82080148  1
  H  H38  1  0.25597277  0.86541250  0.82073765  1
  H  H39  1  0.75781263  0.19794186  0.82140874  1
  H  H40  1  0.74755500  0.53245054  0.82229265  1
  H  H41  1  0.74701285  0.86332269  0.81915502  1
  H  H42  1  0.23916025  0.13580103  0.32115023  1
  H  H43  1  0.24829806  0.46841205  0.32028666  1
  H  H44  1  0.24826277  0.80364611  0.31830437  1
  H  H45  1  0.76473826  0.13570798  0.32444895  1
  H  H46  1  0.75330264  0.46609313  0.32151500  1
  H  H47  1  0.75659385  0.80151365  0.32263270  1
  H  H48  1  0.11779650  0.05721573  0.59730441  1
  H  H49  1  0.12343588  0.38934437  0.60139357  1
  H  H50  1  0.12473178  0.72168964  0.61236583  1
  H  H51  1  0.62526406  0.05248180  0.60946830  1
  H  H52  1  0.62623477  0.38833771  0.61011569  1
  H  H53  1  0.62557308  0.72161386  0.60696465  1
  H  H54  1  0.38041845  0.27767896  0.10204944  1
  H  H55  1  0.37214103  0.61261523  0.10803369  1
  H  H56  1  0.37313264  0.94824959  0.12374666  1
  H  H57  1  0.88471500  0.27444027  0.09737550  1
  H  H58  1  0.86956161  0.61785167  0.12117000  1
  H  H59  1  0.87856146  0.94130185  0.09321625  1
  H  H60  1  0.37151830  0.05570845  0.89018813  1
  H  H61  1  0.38428121  0.39033779  0.89675184  1
  H  H62  1  0.38358496  0.72259661  0.90545873  1
  H  H63  1  0.87524401  0.05265657  0.89041248  1
  H  H64  1  0.88538814  0.39191233  0.89876940  1
  H  H65  1  0.88211054  0.72347512  0.90172371  1
  H  H66  1  0.11893991  0.27985628  0.39986782  1
  H  H67  1  0.12202844  0.61349241  0.40027210  1
  H  H68  1  0.12615796  0.94756508  0.38697934  1
  H  H69  1  0.62647177  0.28275592  0.37354506  1
  H  H70  1  0.62862464  0.61399558  0.38548527  1
  H  H71  1  0.62642010  0.94652694  0.38554535  1
  H  H72  1  0.37422999  0.21955787  0.61458319  1
  H  H73  1  0.37422634  0.55568482  0.60405639  1
  H  H74  1  0.37053153  0.88919872  0.60143268  1
  H  H75  1  0.87495064  0.22144055  0.60429656  1
  H  H76  1  0.87450738  0.55480310  0.60969727  1
  H  H77  1  0.87300846  0.88553257  0.61017175  1
  H  H78  1  0.12599564  0.11105161  0.10677515  1
  H  H79  1  0.11704020  0.44830659  0.12340776  1
  H  H80  1  0.11389990  0.78535713  0.12422863  1
  H  H81  1  0.62740901  0.11380037  0.11262580  1
  H  H82  1  0.61713748  0.45052000  0.11953298  1
  H  H83  1  0.62130252  0.78108442  0.12399008  1
  H  H84  1  0.12024188  0.22178967  0.89102186  1
  H  H85  1  0.13327565  0.55638094  0.89620722  1
  H  H86  1  0.12662631  0.88567382  0.88618096  1
  H  H87  1  0.61864831  0.21432695  0.87730012  1
  H  H88  1  0.62746265  0.55499792  0.89581040  1
  H  H89  1  0.63143016  0.88816681  0.89688117  1
  H  H90  1  0.37820467  0.11583343  0.37488604  1
  H  H91  1  0.37670452  0.44651505  0.38893328  1
  H  H92  1  0.37565796  0.77936619  0.38735594  1
  H  H93  1  0.87165033  0.10860294  0.40806436  1
  H  H94  1  0.87369337  0.44470990  0.39687172  1
  H  H95  1  0.87515577  0.77949484  0.39794272  1
  H  H96  1  0.37910016  0.27888270  0.39855118  1
  H  H97  1  0.38065924  0.61018547  0.39656227  1
  H  H98  1  0.37697971  0.94596924  0.39409202  1
  H  H99  1  0.87171961  0.28222786  0.37634223  1
  H  H100  1  0.87440606  0.61118772  0.38596995  1
  H  H101  1  0.87663429  0.94639757  0.38948302  1
  H  H102  1  0.12369220  0.05360220  0.89091149  1
  H  H103  1  0.13340373  0.38619750  0.87901404  1
  H  H104  1  0.12969922  0.72072289  0.88591158  1
  H  H105  1  0.61991294  0.05424955  0.89127910  1
  H  H106  1  0.63307269  0.38771651  0.88169229  1
  H  H107  1  0.62907066  0.71443648  0.87767703  1
  H  H108  1  0.13174317  0.28181945  0.12433930  1
  H  H109  1  0.11698749  0.60882932  0.09713340  1
  H  H110  1  0.12314803  0.95072923  0.12395844  1
  H  H111  1  0.62906001  0.27893232  0.11265654  1
  H  H112  1  0.62059795  0.61322958  0.10502001  1
  H  H113  1  0.61783108  0.94098251  0.09386139  1
  H  H114  1  0.37580578  0.05382616  0.60572853  1
  H  H115  1  0.37744193  0.38794112  0.60899270  1
  H  H116  1  0.37607872  0.72203028  0.60886489  1
  H  H117  1  0.87049341  0.04985036  0.61790435  1
  H  H118  1  0.87581566  0.38619118  0.61399978  1
  H  H119  1  0.87548131  0.72035299  0.60761170  1
  H  H120  1  0.13236989  0.10811413  0.40566667  1
  H  H121  1  0.12816264  0.44447029  0.39479201  1
  H  H122  1  0.12705160  0.77808544  0.39274560  1
  H  H123  1  0.62619101  0.11486299  0.37950830  1
  H  H124  1  0.62484280  0.44842969  0.38985310  1
  H  H125  1  0.62669193  0.78098143  0.38515525  1
  H  H126  1  0.36892190  0.22131767  0.89018650  1
  H  H127  1  0.38252101  0.55244533  0.88333858  1
  H  H128  1  0.37596794  0.89009009  0.89593049  1
  H  H129  1  0.86365319  0.22721590  0.90515019  1
  H  H130  1  0.87617562  0.55435508  0.88583670  1
  H  H131  1  0.88020325  0.88317226  0.88440362  1
  H  H132  1  0.37484025  0.11507533  0.11630826  1
  H  H133  1  0.36290044  0.44245693  0.09371221  1
  H  H134  1  0.35935710  0.77086462  0.09412477  1
  H  H135  1  0.87702117  0.11180708  0.11584329  1
  H  H136  1  0.86254505  0.44302737  0.09557664  1
  H  H137  1  0.86673688  0.77745932  0.09435586  1
  H  H138  1  0.12432102  0.21990460  0.61538607  1
  H  H139  1  0.12566852  0.55262169  0.61695237  1
  H  H140  1  0.12238168  0.88552677  0.61493027  1
  H  H141  1  0.62629090  0.22061088  0.61364091  1
  H  H142  1  0.62564105  0.55424876  0.60702632  1
  H  H143  1  0.62405245  0.88560424  0.61158544  1
  H  H144  1  0.60467743  0.25492739  0.48785503  1
  H  H145  1  0.04570505  0.58322682  -0.00455860  1
  H  H146  1  0.19170205  0.58497161  1.00647960  1
  H  H147  1  0.95387121  0.24789406  -0.00280861  1
  H  H148  1  0.06148814  0.57252302  0.49535744  1
  H  H149  1  0.09819776  0.75028033  0.99516147  1
  H  H150  1  0.58529499  0.91503669  0.49465222  1
  H  H151  1  0.66670940  0.41586079  0.49420631  1
  H  H152  1  0.44481493  0.42170879  1.00369288  1
  H  H153  1  0.84178197  0.58508434  0.99889591  1
  H  H154  1  0.64083755  0.75116988  1.00873665  1
  H  H155  1  0.05256436  0.25818935  0.50973026  1
  H  H156  1  0.81776971  0.41326754  0.49951505  1
  H  H157  1  0.31378771  0.58485891  0.49798461  1
  H  H158  1  0.18414486  0.08181697  -0.00050496  1
  H  H159  1  0.45928114  0.74236055  1.00647306  1
  H  H160  1  0.90778835  0.59131965  0.49197890  1
  H  H161  1  0.08778727  0.91723247  0.49765206  1
  H  H162  1  0.32853374  0.24316047  0.50133167  1
  H  H163  1  0.44483141  0.25691794  0.50704180  1
  H  H164  1  0.16913211  0.24452581  0.50204504  1
  H  H165  1  0.28958519  0.41698603  -0.00698782  1
  H  H166  1  0.63872800  0.24777000  0.98490918  1
  H  H167  1  0.10738919  0.41322802  0.98898902  1
  H  H168  1  0.95038400  0.41975731  1.00538880  1
  H  H169  1  0.42193543  0.08249054  0.49661359  1
  H  H170  1  0.69352286  0.91444724  1.00399600  1
  H  H171  1  0.92036703  0.91673199  0.49912665  1
  H  H172  1  0.32235502  0.91692878  0.99890161  1
  H  H173  1  0.59991324  0.41811662  0.98842861  1
  H  H174  1  0.43733997  0.24819390  -0.00139363  1
  H  H175  1  0.78913568  0.41992123  -0.00576116  1
  H  H176  1  0.78730912  0.24047024  1.00608859  1
  H  H177  1  0.42150617  0.08361566  0.99447977  1
  H  H178  1  0.42271494  0.75157819  0.50376195  1
  H  H179  1  0.28466495  0.74534706  -0.00543077  1
  H  H180  1  0.67218615  0.08449907  0.00269496  1
  H  H181  1  0.07741493  0.75144009  0.50294480  1
  H  H182  1  0.59070858  0.58522323  0.49004803  1
  H  H183  1  0.04626381  0.08460794  0.49674884  1
  H  H184  1  0.33038614  0.41784170  0.49407761  1
  H  H185  1  0.11045430  0.25201675  0.01064673  1
  H  H186  1  0.15926267  0.91830556  0.99711288  1
  H  H187  1  0.83606226  0.08093345  0.00548433  1
  H  H188  1  0.65949474  0.75335291  0.49950501  1
  H  H189  1  0.20757618  0.08026089  0.50464118  1
  H  H190  1  0.54079656  0.91816383  -0.00580302  1
  H  H191  1  0.58291164  0.08105900  0.50406016  1
  Pb  Pb192  1  0.24913916  0.04583064  0.74414356  1
  Pb  Pb193  1  0.25237985  0.37939819  0.74891171  1
  Pb  Pb194  1  0.25763841  0.71510555  0.75511679  1
  Pb  Pb195  1  0.75156661  0.04535559  0.75366764  1
  Pb  Pb196  1  0.75460866  0.38282230  0.74824596  1
  Pb  Pb197  1  0.75169613  0.71171748  0.74789719  1
  Pb  Pb198  1  0.25162832  0.28832251  0.25514718  1
  Pb  Pb199  1  0.24283842  0.61780298  0.25067959  1
  Pb  Pb200  1  0.24942729  0.95463723  0.24951373  1
  Pb  Pb201  1  0.75047467  0.28651393  0.23960760  1
  Pb  Pb202  1  0.74821746  0.62132745  0.25050339  1
  Pb  Pb203  1  0.74708299  0.95270231  0.24373224  1
  Pb  Pb204  1  -0.00100137  0.21264154  0.75640559  1
  Pb  Pb205  1  0.00657808  0.54943313  0.75185033  1
  Pb  Pb206  1  0.00086471  0.87774832  0.74767460  1
  Pb  Pb207  1  0.50061709  0.21329097  0.75188489  1
  Pb  Pb208  1  0.50217563  0.54501897  0.74331637  1
  Pb  Pb209  1  0.50502018  0.88199339  0.75231426  1
  Pb  Pb210  1  0.00142589  0.11962029  0.25824234  1
  Pb  Pb211  1  -0.00394204  0.45323316  0.24804123  1
  Pb  Pb212  1  -0.00367500  0.78782458  0.24801654  1
  Pb  Pb213  1  0.49983163  0.12111828  0.24750683  1
  Pb  Pb214  1  0.49902832  0.45523101  0.24569578  1
  Pb  Pb215  1  0.49398083  0.78382913  0.24796957  1
  C  C216  1  -0.00151672  0.04558814  0.63198201  1
  C  C217  1  0.00212798  0.37918184  0.63250564  1
  C  C218  1  -0.00044250  0.71288436  0.63352760  1
  C  C219  1  0.49996902  0.04608706  0.63017518  1
  C  C220  1  0.50168587  0.37996397  0.63278020  1
  C  C221  1  0.50073902  0.71342530  0.63010758  1
  C  C222  1  0.00336056  0.28582543  0.13305887  1
  C  C223  1  -0.00185660  0.62177713  0.13108884  1
  C  C224  1  -0.00447354  0.95289849  0.12864199  1
  C  C225  1  0.50273950  0.28552304  0.12981076  1
  C  C226  1  0.49670689  0.61979083  0.12693327  1
  C  C227  1  0.50125395  0.95373553  0.13182876  1
  C  C228  1  -0.00029304  0.04469684  0.86589159  1
  C  C229  1  0.00620854  0.38034279  0.86678084  1
  C  C230  1  0.00355998  0.71342511  0.87145037  1
  C  C231  1  0.49560931  0.04707872  0.86668159  1
  C  C232  1  0.50634379  0.38035459  0.86702485  1
  C  C233  1  0.50093822  0.70985740  0.86771304  1
  C  C234  1  -0.00015365  0.28686865  0.36698694  1
  C  C235  1  0.00055086  0.61989896  0.37033041  1
  C  C236  1  0.00100804  0.95320726  0.36696088  1
  C  C237  1  0.49894200  0.28701199  0.36525327  1
  C  C238  1  0.50257280  0.62071125  0.36721550  1
  C  C239  1  0.50025290  0.95366082  0.36624691  1
  C  C240  1  0.24942387  0.21369005  0.63602030  1
  C  C241  1  0.25237446  0.54592415  0.63373698  1
  C  C242  1  0.24892787  0.87891971  0.63111263  1
  C  C243  1  0.75219740  0.21281540  0.63201017  1
  C  C244  1  0.74989833  0.54713314  0.62925543  1
  C  C245  1  0.74879653  0.87911187  0.63213647  1
  C  C246  1  0.24851458  0.12067464  0.13446984  1
  C  C247  1  0.24547460  0.45364097  0.13022126  1
  C  C248  1  0.24271015  0.78727693  0.13070503  1
  C  C249  1  0.75190134  0.11972185  0.13542039  1
  C  C250  1  0.74454002  0.45551576  0.13115449  1
  C  C251  1  0.74789078  0.78666845  0.12983150  1
  C  C252  1  0.24443086  0.21307200  0.86727321  1
  C  C253  1  0.25489452  0.54762337  0.86855933  1
  C  C254  1  0.25326812  0.88063358  0.86853167  1
  C  C255  1  0.74637253  0.21301523  0.86850427  1
  C  C256  1  0.75102993  0.54727859  0.86994044  1
  C  C257  1  0.75304355  0.87844819  0.86664848  1
  C  C258  1  0.24960972  0.12079330  0.36822626  1
  C  C259  1  0.25144569  0.45319841  0.36787641  1
  C  C260  1  0.25027674  0.78808548  0.36579492  1
  C  C261  1  0.75386796  0.12016545  0.37110622  1
  C  C262  1  0.75054684  0.45227644  0.36974839  1
  C  C263  1  0.75216599  0.78756727  0.37054733  1
  C  C264  1  0.93809464  0.59469050  0.04357882  1
  C  C265  1  0.94120524  0.26469632  0.45559650  1
  C  C266  1  0.78555791  0.76354373  0.46612172  1
  C  C267  1  0.30749742  0.57273005  0.95890487  1
  C  C268  1  0.70670258  0.90437512  0.53918281  1
  C  C269  1  0.78345345  0.24246207  0.53846394  1
  C  C270  1  0.54159938  0.74320731  0.53711615  1
  C  C271  1  0.97408190  0.74451070  0.96653985  1
  C  C272  1  0.18332910  0.42709622  0.04373966  1
  C  C273  1  0.79229378  0.57532717  0.53748273  1
  C  C274  1  0.79743744  0.57459371  0.96239851  1
  C  C275  1  0.22602691  0.57412349  0.96507011  1
  C  C276  1  0.06265528  0.26069071  0.04556470  1
  C  C277  1  0.28998093  0.23579158  0.54124700  1
  C  C278  1  0.55218804  0.26021217  0.03799582  1
  C  C279  1  0.71227018  0.09401983  0.04124090  1
  C  C280  1  0.71016941  0.57485106  0.53644418  1
  C  C281  1  0.76933107  0.76080121  0.03278187  1
  C  C282  1  0.03821682  0.74014364  0.54144058  1
  C  C283  1  0.98141846  0.40826411  0.96257640  1
  C  C284  1  0.70411504  0.76308486  0.46331535  1
  C  C285  1  0.21952166  0.09336579  0.04016889  1
  C  C286  1  0.27945678  0.57343984  0.53919993  1
  C  C287  1  0.47597558  0.26409710  0.46338812  1
  C  C288  1  0.02165779  0.26483394  0.46582041  1
  C  C289  1  0.47718900  0.40943201  0.96182410  1
  C  C290  1  0.54005561  0.40672158  0.53963056  1
  C  C291  1  0.71586287  0.57468275  0.96419767  1
  C  C292  1  0.31317296  0.09300757  0.45425738  1
  C  C293  1  0.20517047  0.90737627  0.95987814  1
  C  C294  1  0.05880469  0.93030952  0.04232036  1
  C  C295  1  0.20802597  0.23628213  0.54159839  1
  C  C296  1  0.55721087  0.26413915  0.45433163  1
  C  C297  1  0.78879311  0.90428463  0.53870102  1
  C  C298  1  0.77110283  0.08936953  0.46649727  1
  C  C299  1  0.53512972  0.59322254  0.03429995  1
  C  C300  1  0.97863192  0.92693798  0.03219623  1
  C  C301  1  0.54249154  0.92594840  0.45730704  1
  C  C302  1  0.68870986  0.76156427  0.04161324  1
  C  C303  1  0.46193768  0.07268370  0.53616610  1
  C  C304  1  0.96187462  0.92709342  0.46120644  1
  C  C305  1  0.45408068  0.59303642  0.03530376  1
  C  C306  1  0.79450160  0.09283835  0.04234262  1
  C  C307  1  0.20736397  0.24171116  0.96027225  1
  C  C308  1  0.04422747  0.92712710  0.46038484  1
  C  C309  1  0.72679491  0.90451265  0.96179858  1
  C  C310  1  0.20196819  0.90803971  0.54138770  1
  C  C311  1  0.17883585  0.76130406  0.04492988  1
  N  N312  1  0.05251629  0.74198838  0.96048253  1
  N  N313  1  0.56139597  0.73436358  0.95419792  1
  N  N314  1  0.29894091  0.09467184  0.04285027  1
  N  N315  1  0.95885558  0.73948302  0.53955604  1
  N  N316  1  0.54770211  0.59297884  0.45593522  1
  N  N317  1  0.98363591  0.25906765  0.03741896  1
  N  N318  1  0.95189379  0.58816790  0.45756701  1
  N  N319  1  0.55633734  0.40827408  0.95542791  1
  N  N320  1  0.03711754  0.07179738  0.95974574  1
  N  N321  1  0.03119267  0.40500344  0.53655980  1
  N  N322  1  0.54168463  0.07259084  0.53864082  1
  N  N323  1  0.06042363  0.40554395  0.95496816  1
  N  N324  1  0.21371958  0.42676645  0.46200315  1
  N  N325  1  0.48457898  0.73615762  0.96287803  1
  N  N326  1  0.28514436  0.24217693  0.96107821  1
  N  N327  1  0.70566602  0.43517077  0.46246468  1
  N  N328  1  0.25679765  0.75646083  0.03587486  1
  N  N329  1  0.53758986  0.07206371  0.96029413  1
  N  N330  1  0.01661379  0.59129747  0.03655971  1
  N  N331  1  0.68647086  0.23243313  0.95510952  1
  N  N332  1  0.27942990  0.90999146  0.53587238  1
  N  N333  1  0.94145670  0.07161526  0.54401934  1
  N  N334  1  0.23499509  0.09075373  0.46331754  1
  N  N335  1  0.69435364  0.09168822  0.45884117  1
  N  N336  1  0.96049872  0.07132194  0.95940918  1
  N  N337  1  0.43827126  0.92788565  0.04603058  1
  N  N338  1  0.20025516  0.57193638  0.54271581  1
  N  N339  1  0.95468669  0.40422345  0.54071145  1
  N  N340  1  0.76283710  0.42547441  0.03728818  1
  N  N341  1  0.45916054  0.07225295  0.95852441  1
  N  N342  1  0.29284475  0.76027518  0.45798810  1
  N  N343  1  0.51567314  0.92451896  0.03753241  1
  N  N344  1  0.01894610  0.07378631  0.53821474  1
  N  N345  1  0.28506016  0.90782599  0.96209541  1
  N  N346  1  0.29177732  0.42808545  0.45860664  1
  N  N347  1  0.21588921  0.75965725  0.45976729  1
  N  N348  1  0.70600762  0.24244484  0.54024666  1
  N  N349  1  0.47298196  0.25953197  0.03538873  1
  N  N350  1  0.46204036  0.40668627  0.53811867  1
  N  N351  1  0.46954796  0.59197002  0.46175956  1
  N  N352  1  0.76357109  0.24552021  0.96219038  1
  N  N353  1  0.46321415  0.92567366  0.46086566  1
  N  N354  1  0.68544525  0.42933552  0.04401877  1
  N  N355  1  0.46232562  0.74258402  0.53877356  1
  N  N356  1  0.03003297  0.60021783  0.46632281  1
  N  N357  1  0.26157455  0.42505703  0.03476312  1
  N  N358  1  0.78460399  0.43230015  0.46437691  1
  N  N359  1  0.80577331  0.90363164  0.95743219  1
  N  N360  1  0.05555881  0.05736302  0.59101773  1
  N  N361  1  0.06182270  0.38961106  0.59324756  1
  N  N362  1  0.06483506  0.72403086  0.59886370  1
  N  N363  1  0.56484472  0.05587977  0.59639779  1
  N  N364  1  0.56630874  0.39084236  0.59690943  1
  N  N365  1  0.56545805  0.72536126  0.59368054  1
  N  N366  1  0.44191164  0.27523625  0.09217645  1
  N  N367  1  0.43070461  0.60883463  0.09199364  1
  N  N368  1  0.43032420  0.94390895  0.10537826  1
  N  N369  1  0.94706413  0.27563570  0.09102892  1
  N  N370  1  0.92664594  0.61247409  0.10249857  1
  N  N371  1  0.93997886  0.94047059  0.08456222  1
  N  N372  1  0.43221863  0.05763934  0.90190216  1
  N  N373  1  0.44580347  0.39193631  0.90701479  1
  N  N374  1  0.44601362  0.71983610  0.91090134  1
  N  N375  1  0.93609078  0.05476284  0.90137506  1
  N  N376  1  0.94726583  0.39282365  0.90790420  1
  N  N377  1  0.94334271  0.72653000  0.91172429  1
  N  N378  1  0.05764150  0.27830858  0.40911549  1
  N  N379  1  0.06084475  0.60806397  0.40842245  1
  N  N380  1  0.06675867  0.94324230  0.40124081  1
  N  N381  1  0.56982810  0.27818443  0.39332884  1
  N  N382  1  0.56890056  0.61124805  0.39940157  1
  N  N383  1  0.56665981  0.94278072  0.39949250  1
  N  N384  1  0.31454079  0.22198444  0.60032894  1
  N  N385  1  0.31291459  0.55781167  0.59457816  1
  N  N386  1  0.30875924  0.89149778  0.59313818  1
  N  N387  1  0.81422441  0.22465362  0.59355773  1
  N  N388  1  0.81536202  0.55818329  0.59435993  1
  N  N389  1  0.81328671  0.88886880  0.59586536  1
  N  N390  1  0.18721365  0.10884004  0.09597461  1
  N  N391  1  0.17301079  0.44380429  0.10334132  1
  N  N392  1  0.16982511  0.77946924  0.10416402  1
  N  N393  1  0.68732931  0.11051622  0.09942019  1
  N  N394  1  0.67466067  0.44591208  0.10293048  1
  N  N395  1  0.67664813  0.77781440  0.10293053  1
  N  N396  1  0.18006751  0.22458225  0.90335002  1
  N  N397  1  0.19424893  0.55841949  0.90756824  1
  N  N398  1  0.18581716  0.89069888  0.90153043  1
  N  N399  1  0.67555159  0.22208069  0.89474480  1
  N  N400  1  0.68802389  0.55828267  0.90859839  1
  N  N401  1  0.69276804  0.88956483  0.90631253  1
  N  N402  1  0.32217450  0.11109279  0.39520241  1
  N  N403  1  0.31643332  0.44376464  0.40168791  1
  N  N404  1  0.31512056  0.77787138  0.39985315  1
  N  N405  1  0.81005756  0.10660663  0.41418955  1
  N  N406  1  0.81241611  0.44187915  0.40701737  1
  N  N407  1  0.81458618  0.77781136  0.41028395  1
  N  N408  1  0.44073956  0.27807742  0.40733866  1
  N  N409  1  0.44204621  0.60850086  0.40571173  1
  N  N410  1  0.43858145  0.94270138  0.40350337  1
  N  N411  1  0.92864473  0.27778294  0.39596330  1
  N  N412  1  0.93347996  0.61098152  0.40182567  1
  N  N413  1  0.93665923  0.94317946  0.40280438  1
  N  N414  1  0.06270032  0.05517070  0.90188649  1
  N  N415  1  0.07517164  0.38768836  0.89615341  1
  N  N416  1  0.07132149  0.72214848  0.90189582  1
  N  N417  1  0.55937493  0.05642522  0.90277583  1
  N  N418  1  0.57414094  0.38978636  0.89731197  1
  N  N419  1  0.57140932  0.71894998  0.89511195  1
  N  N420  1  0.07483653  0.27700286  0.10513256  1
  N  N421  1  0.05460324  0.60961613  0.09001129  1
  N  N422  1  0.06819378  0.94586017  0.10189888  1
  N  N423  1  0.57078546  0.27595752  0.09656426  1
  N  N424  1  0.56107069  0.60930918  0.09023679  1
  N  N425  1  0.55543948  0.94279715  0.08855791  1
  N  N426  1  0.43591363  0.05667251  0.59338282  1
  N  N427  1  0.43828356  0.38969209  0.59736973  1
  N  N428  1  0.43647763  0.72350150  0.59587279  1
  N  N429  1  0.92923961  0.05455289  0.60246631  1
  N  N430  1  0.93558094  0.38820019  0.60019116  1
  N  N431  1  0.93662241  0.72264889  0.59722151  1
  N  N432  1  0.19489525  0.10949475  0.41096852  1
  N  N433  1  0.18905912  0.44243751  0.40507952  1
  N  N434  1  0.18845481  0.77691339  0.40274338  1
  N  N435  1  0.68373854  0.11127253  0.39790897  1
  N  N436  1  0.68473860  0.44466022  0.40333380  1
  N  N437  1  0.68474610  0.77828704  0.40239547  1
  N  N438  1  0.30806615  0.22425007  0.90173936  1
  N  N439  1  0.32417141  0.55690130  0.90046143  1
  N  N440  1  0.31461047  0.89092125  0.90597825  1
  N  N441  1  0.80143246  0.22338117  0.91166395  1
  N  N442  1  0.81795600  0.55744735  0.90229368  1
  N  N443  1  0.82031626  0.88747910  0.89822128  1
  N  N444  1  0.31501193  0.11165195  0.10223790  1
  N  N445  1  0.30049581  0.44358469  0.08754313  1
  N  N446  1  0.29682800  0.77432984  0.08821164  1
  N  N447  1  0.81754341  0.10882747  0.10119025  1
  N  N448  1  0.80025857  0.44404865  0.08912521  1
  N  N449  1  0.80484607  0.77594053  0.08596555  1
  N  N450  1  0.18397935  0.22271381  0.60086310  1
  N  N451  1  0.18523174  0.55493014  0.60205912  1
  N  N452  1  0.18091353  0.88972887  0.59913605  1
  N  N453  1  0.68622305  0.22387983  0.60006758  1
  N  N454  1  0.68550821  0.55780127  0.59301402  1
  N  N455  1  0.68339751  0.88909719  0.59662203  1
  Cl  Cl456  1  0.24030408  0.05761144  0.60414990  1
  Cl  Cl457  1  0.25168371  0.38904693  0.61585760  1
  Cl  Cl458  1  0.25265547  0.71979744  0.62457912  1
  Cl  Cl459  1  0.74691435  0.04990933  0.62150090  1
  Cl  Cl460  1  0.75120674  0.39050469  0.60911695  1
  Cl  Cl461  1  0.74880279  0.72003308  0.61415867  1
  Cl  Cl462  1  0.25927351  0.28443413  0.12247153  1
  Cl  Cl463  1  0.23865326  0.61319801  0.11505410  1
  Cl  Cl464  1  0.25050924  0.94362581  0.11390156  1
  Cl  Cl465  1  0.76073776  0.27341402  0.10172786  1
  Cl  Cl466  1  0.74584389  0.61417900  0.11859378  1
  Cl  Cl467  1  0.74099270  0.94091634  0.10819915  1
  Cl  Cl468  1  0.24763995  0.05394766  0.87983325  1
  Cl  Cl469  1  0.26134412  0.39245981  0.89208813  1
  Cl  Cl470  1  0.26380652  0.72617264  0.89964280  1
  Cl  Cl471  1  0.74783843  0.05594391  0.88882731  1
  Cl  Cl472  1  0.76222324  0.39214617  0.89317572  1
  Cl  Cl473  1  0.75786214  0.71774252  0.88044474  1
  Cl  Cl474  1  0.25094361  0.27706587  0.39069595  1
  Cl  Cl475  1  0.25175083  0.61070951  0.38598632  1
  Cl  Cl476  1  0.25277079  0.95379691  0.37957442  1
  Cl  Cl477  1  0.74960213  0.29016049  0.36845083  1
  Cl  Cl478  1  0.75124886  0.61064528  0.38449551  1
  Cl  Cl479  1  0.75079644  0.94959323  0.37521273  1
  Cl  Cl480  1  -0.00010795  0.21799866  0.62345335  1
  Cl  Cl481  1  0.00082097  0.55631343  0.61660880  1
  Cl  Cl482  1  -0.00122770  0.88737156  0.61508100  1
  Cl  Cl483  1  0.50046505  0.21941858  0.61997747  1
  Cl  Cl484  1  0.50073854  0.55491960  0.61051619  1
  Cl  Cl485  1  0.49663786  0.88459164  0.62012367  1
  Cl  Cl486  1  0.00319719  0.11745268  0.12671724  1
  Cl  Cl487  1  -0.01519019  0.44458869  0.10859383  1
  Cl  Cl488  1  -0.01260610  0.77761528  0.11259943  1
  Cl  Cl489  1  0.49960882  0.11608049  0.11461053  1
  Cl  Cl490  1  0.48624433  0.44363308  0.10873129  1
  Cl  Cl491  1  0.47978528  0.76940956  0.10432363  1
  Cl  Cl492  1  -0.01346121  0.22770413  0.89750129  1
  Cl  Cl493  1  0.00895965  0.55699126  0.89002310  1
  Cl  Cl494  1  0.00375119  0.87988779  0.87919678  1
  Cl  Cl495  1  0.49245846  0.22123653  0.88990515  1
  Cl  Cl496  1  0.50575338  0.54876022  0.87527358  1
  Cl  Cl497  1  0.50499417  0.89145761  0.89487875  1
  Cl  Cl498  1  0.00889217  0.10900670  0.39884728  1
  Cl  Cl499  1  -0.00163713  0.44851223  0.37999685  1
  Cl  Cl500  1  0.00305238  0.77653827  0.38114617  1
  Cl  Cl501  1  0.50184656  0.10988685  0.38177988  1
  Cl  Cl502  1  0.50122269  0.44794607  0.37831862  1
  Cl  Cl503  1  0.49779446  0.77580709  0.38212462  1
  Cl  Cl504  1  0.36229307  0.14574573  0.75092344  1
  Cl  Cl505  1  0.36187708  0.47993602  0.75240609  1
  Cl  Cl506  1  0.35730245  0.81164232  0.75441209  1
  Cl  Cl507  1  0.85844276  0.14838568  0.75252369  1
  Cl  Cl508  1  0.85878846  0.47826446  0.74959449  1
  Cl  Cl509  1  0.86125614  0.81314055  0.74977432  1
  Cl  Cl510  1  0.13976432  0.18680071  0.25157453  1
  Cl  Cl511  1  0.13787793  0.52009654  0.24752888  1
  Cl  Cl512  1  0.13657923  0.85443516  0.24567129  1
  Cl  Cl513  1  0.63676657  0.18870319  0.25137271  1
  Cl  Cl514  1  0.63987799  0.51770401  0.25030481  1
  Cl  Cl515  1  0.63524212  0.85293228  0.24568878  1
  Cl  Cl516  1  0.13780338  0.14738374  0.75086381  1
  Cl  Cl517  1  0.13887846  0.47825892  0.75054281  1
  Cl  Cl518  1  0.13893643  0.81187511  0.75248597  1
  Cl  Cl519  1  0.63643515  0.14490302  0.75395797  1
  Cl  Cl520  1  0.63854955  0.47714992  0.74938608  1
  Cl  Cl521  1  0.63844254  0.81200099  0.75170274  1
  Cl  Cl522  1  0.36250482  0.18676185  0.25269110  1
  Cl  Cl523  1  0.35935562  0.51937167  0.25146346  1
  Cl  Cl524  1  0.36087386  0.85448970  0.24674944  1
  Cl  Cl525  1  0.86033531  0.18662853  0.25134349  1
  Cl  Cl526  1  0.85964258  0.52001242  0.25023675  1
  Cl  Cl527  1  0.85721176  0.85166724  0.25196769  1
  Cl  Cl528  1  0.11420805  0.31203460  0.75614199  1
  Cl  Cl529  1  0.10996786  0.64429212  0.75414581  1
  Cl  Cl530  1  0.11219078  0.97874895  0.74973723  1
  Cl  Cl531  1  0.61308640  0.31232457  0.75661508  1
  Cl  Cl532  1  0.61274228  0.64573168  0.75214814  1
  Cl  Cl533  1  0.60577491  0.97934853  0.75102632  1
  Cl  Cl534  1  0.38741111  0.02143022  0.24411208  1
  Cl  Cl535  1  0.39114340  0.35171813  0.25124191  1
  Cl  Cl536  1  0.39241772  0.68665802  0.25074345  1
  Cl  Cl537  1  0.88875194  0.02001346  0.24739956  1
  Cl  Cl538  1  0.88935420  0.35207441  0.24910177  1
  Cl  Cl539  1  0.88844382  0.68412227  0.25199092  1
  Cl  Cl540  1  0.38934645  0.31315234  0.74910749  1
  Cl  Cl541  1  0.39131543  0.64671598  0.75233218  1
  Cl  Cl542  1  0.38597919  0.97865945  0.75104994  1
  Cl  Cl543  1  0.88949569  0.31483853  0.75235695  1
  Cl  Cl544  1  0.89053427  0.64681627  0.74965710  1
  Cl  Cl545  1  0.88988906  0.97951229  0.74768321  1
  Cl  Cl546  1  0.11240101  0.02124442  0.24761834  1
  Cl  Cl547  1  0.11218783  0.35497602  0.24337713  1
  Cl  Cl548  1  0.10826950  0.68673807  0.24871879  1
  Cl  Cl549  1  0.61078032  0.02080443  0.24831701  1
  Cl  Cl550  1  0.61308717  0.35495861  0.24261195  1
  Cl  Cl551  1  0.61029230  0.68717234  0.24804423  1
