# generated using pymatgen
data_H8PbC4(N3Cl2)2
_symmetry_space_group_name_H-M   'P 1'
_cell_length_a   16.62265012
_cell_length_b   22.50952682
_cell_length_c   21.59135573
_cell_angle_alpha   89.99867410
_cell_angle_beta   90.00568319
_cell_angle_gamma   89.99419089
_symmetry_Int_Tables_number   1
_chemical_formula_structural   H8PbC4(N3Cl2)2
_chemical_formula_sum   'H192 Pb24 C96 N144 Cl96'
_cell_volume   8078.79405938
_cell_formula_units_Z   24
loop_
 _symmetry_equiv_pos_site_id
 _symmetry_equiv_pos_as_xyz
  1  'x, y, z'
loop_
 _atom_site_type_symbol
 _atom_site_label
 _atom_site_symmetry_multiplicity
 _atom_site_fract_x
 _atom_site_fract_y
 _atom_site_fract_z
 _atom_site_occupancy
  H  H0  1  -0.00864873  0.03055946  0.68247669  1
  H  H1  1  -0.00286520  0.36284605  0.67861677  1
  H  H2  1  -0.01065890  0.69832981  0.67923993  1
  H  H3  1  0.49662026  0.03119161  0.68004414  1
  H  H4  1  0.50863067  0.36512231  0.68052013  1
  H  H5  1  0.51153158  0.69723970  0.67669036  1
  H  H6  1  0.00158820  0.30187007  0.17938782  1
  H  H7  1  0.00803290  0.63455008  0.17884824  1
  H  H8  1  -0.00636369  0.97038545  0.17769128  1
  H  H9  1  0.51160216  0.30091298  0.17532003  1
  H  H10  1  0.49471293  0.63326511  0.17943463  1
  H  H11  1  0.50335145  0.96618912  0.18042064  1
  H  H12  1  -0.00015915  0.02896482  0.82084280  1
  H  H13  1  0.00240510  0.36460704  0.82301025  1
  H  H14  1  -0.00792265  0.69488361  0.81816267  1
  H  H15  1  0.50616593  0.03017019  0.81900410  1
  H  H16  1  0.49875884  0.36249312  0.82138688  1
  H  H17  1  0.50731502  0.69637109  0.82350108  1
  H  H18  1  -0.00000065  0.30300757  0.32012292  1
  H  H19  1  0.00203675  0.63782581  0.32013212  1
  H  H20  1  0.00514260  0.96905923  0.32533462  1
  H  H21  1  0.49174524  0.30308911  0.32253473  1
  H  H22  1  0.49832534  0.63519051  0.32059234  1
  H  H23  1  0.49219446  0.97114640  0.32284360  1
  H  H24  1  0.25861214  0.19795452  0.67871356  1
  H  H25  1  0.24893107  0.52992393  0.68040841  1
  H  H26  1  0.26099204  0.86420470  0.67713285  1
  H  H27  1  0.75001039  0.19684118  0.67538289  1
  H  H28  1  0.75039025  0.52867716  0.67767976  1
  H  H29  1  0.74140001  0.86482360  0.67758648  1
  H  H30  1  0.26203647  0.13701322  0.17882697  1
  H  H31  1  0.24246490  0.47033325  0.17582164  1
  H  H32  1  0.24095834  0.80404241  0.17898509  1
  H  H33  1  0.74109202  0.14012995  0.17949763  1
  H  H34  1  0.75684917  0.46902890  0.17830086  1
  H  H35  1  0.75966083  0.80005115  0.18411335  1
  H  H36  1  0.24620615  0.19369920  0.82061848  1
  H  H37  1  0.25192154  0.53290830  0.81890424  1
  H  H38  1  0.26127093  0.86607630  0.81913227  1
  H  H39  1  0.74361005  0.19856646  0.82186419  1
  H  H40  1  0.74009453  0.53092433  0.82384462  1
  H  H41  1  0.74194946  0.86534534  0.81723719  1
  H  H42  1  0.24498460  0.13533421  0.31829616  1
  H  H43  1  0.25156189  0.46988086  0.32309939  1
  H  H44  1  0.25229299  0.80165482  0.32210347  1
  H  H45  1  0.76049638  0.13548777  0.32034757  1
  H  H46  1  0.74091390  0.46896344  0.32055263  1
  H  H47  1  0.75154047  0.80179431  0.32016350  1
  H  H48  1  0.12760016  0.05113728  0.62219167  1
  H  H49  1  0.12102828  0.38801011  0.60954086  1
  H  H50  1  0.12129908  0.71955773  0.61692632  1
  H  H51  1  0.63007764  0.05266876  0.61907361  1
  H  H52  1  0.61956952  0.39023677  0.59807053  1
  H  H53  1  0.61427052  0.72704707  0.59175177  1
  H  H54  1  0.37163053  0.28406694  0.12498403  1
  H  H55  1  0.38064063  0.61097336  0.10204271  1
  H  H56  1  0.37081226  0.94837618  0.11763904  1
  H  H57  1  0.86409153  0.28451535  0.12202243  1
  H  H58  1  0.87468754  0.61210113  0.11789025  1
  H  H59  1  0.87793976  0.94446561  0.09992554  1
  H  H60  1  0.37063403  0.05155293  0.88069045  1
  H  H61  1  0.36561669  0.38304533  0.88348956  1
  H  H62  1  0.37099793  0.71664281  0.88187430  1
  H  H63  1  0.87657214  0.05512934  0.89213042  1
  H  H64  1  0.86632596  0.38547023  0.88179933  1
  H  H65  1  0.87330147  0.72106972  0.89405581  1
  H  H66  1  0.12991079  0.28056736  0.38537456  1
  H  H67  1  0.12347915  0.61253973  0.39185086  1
  H  H68  1  0.12602726  0.93782235  0.39611545  1
  H  H69  1  0.63123219  0.28144006  0.37552272  1
  H  H70  1  0.62688403  0.61400057  0.38870877  1
  H  H71  1  0.63152376  0.94998473  0.37543880  1
  H  H72  1  0.36382804  0.22634300  0.59397363  1
  H  H73  1  0.37317422  0.55554905  0.60923951  1
  H  H74  1  0.36126743  0.89485929  0.59012071  1
  H  H75  1  0.86823469  0.22387098  0.60165731  1
  H  H76  1  0.87394648  0.55509149  0.60849127  1
  H  H77  1  0.87390711  0.88170274  0.61431628  1
  H  H78  1  0.12654887  0.11505814  0.11815504  1
  H  H79  1  0.13785890  0.44009492  0.09168179  1
  H  H80  1  0.13412316  0.77503094  0.09615429  1
  H  H81  1  0.62857287  0.11207148  0.09952834  1
  H  H82  1  0.63068585  0.44885235  0.11145958  1
  H  H83  1  0.62936505  0.77896175  0.12066069  1
  H  H84  1  0.13085641  0.22269044  0.89676702  1
  H  H85  1  0.12002089  0.55058847  0.88244109  1
  H  H86  1  0.12657996  0.88554217  0.88173524  1
  H  H87  1  0.63596234  0.22646355  0.90531872  1
  H  H88  1  0.62392942  0.55604219  0.90033457  1
  H  H89  1  0.62737479  0.88918579  0.89567836  1
  H  H90  1  0.37050696  0.11266504  0.38874831  1
  H  H91  1  0.37698146  0.44626145  0.39321744  1
  H  H92  1  0.37964115  0.77795475  0.39084573  1
  H  H93  1  0.86421716  0.10983353  0.40426602  1
  H  H94  1  0.87682417  0.44779076  0.38076386  1
  H  H95  1  0.88351707  0.78217194  0.38339340  1
  H  H96  1  0.38740817  0.27514486  0.40910255  1
  H  H97  1  0.37706620  0.61063666  0.39279808  1
  H  H98  1  0.38643772  0.94111688  0.40677674  1
  H  H99  1  0.88163861  0.27586582  0.39609737  1
  H  H100  1  0.87389852  0.61504458  0.38804686  1
  H  H101  1  0.87842224  0.94815491  0.39420811  1
  H  H102  1  0.12464452  0.05523825  0.89090383  1
  H  H103  1  0.11382345  0.39176816  0.90349035  1
  H  H104  1  0.12218828  0.71707478  0.88184588  1
  H  H105  1  0.61880271  0.05726601  0.89858758  1
  H  H106  1  0.61361005  0.38857380  0.89974042  1
  H  H107  1  0.61708589  0.72309836  0.90471161  1
  H  H108  1  0.11197331  0.27656613  0.10051995  1
  H  H109  1  0.12245452  0.60866698  0.09897704  1
  H  H110  1  0.12566775  0.94695048  0.11422056  1
  H  H111  1  0.61601068  0.27648139  0.09066583  1
  H  H112  1  0.62903859  0.61460752  0.11890826  1
  H  H113  1  0.61965969  0.94486717  0.10441768  1
  H  H114  1  0.38229134  0.05602528  0.59985831  1
  H  H115  1  0.37274275  0.38571868  0.61887628  1
  H  H116  1  0.37015941  0.71544122  0.62610777  1
  H  H117  1  0.88017555  0.05672294  0.60257346  1
  H  H118  1  0.87133227  0.38704383  0.60884173  1
  H  H119  1  0.87356117  0.72446516  0.60042906  1
  H  H120  1  0.12123718  0.11141337  0.38979188  1
  H  H121  1  0.12763050  0.44508289  0.39237623  1
  H  H122  1  0.13003822  0.77759839  0.39305605  1
  H  H123  1  0.61855529  0.11787452  0.37149553  1
  H  H124  1  0.63038936  0.44262013  0.40360854  1
  H  H125  1  0.63457375  0.77899872  0.39491243  1
  H  H126  1  0.37905702  0.21762750  0.88274971  1
  H  H127  1  0.36903650  0.55417844  0.89406100  1
  H  H128  1  0.37340462  0.89175591  0.90084385  1
  H  H129  1  0.88128117  0.21919869  0.87956622  1
  H  H130  1  0.87206857  0.54928776  0.88431605  1
  H  H131  1  0.87567975  0.88606684  0.88083106  1
  H  H132  1  0.37297255  0.10912048  0.09662940  1
  H  H133  1  0.38300977  0.45178281  0.12210047  1
  H  H134  1  0.38011010  0.78358628  0.12290871  1
  H  H135  1  0.87608186  0.11568319  0.12276384  1
  H  H136  1  0.87967467  0.44396031  0.10669427  1
  H  H137  1  0.87852435  0.78042979  0.10879438  1
  H  H138  1  0.11852110  0.21764994  0.62596896  1
  H  H139  1  0.12443354  0.55420353  0.61084214  1
  H  H140  1  0.11865409  0.88312528  0.62959140  1
  H  H141  1  0.61987444  0.22219250  0.61091417  1
  H  H142  1  0.62519661  0.55470911  0.60820208  1
  H  H143  1  0.62548639  0.88948147  0.60226266  1
  H  H144  1  0.58540958  0.58234042  0.49289054  1
  H  H145  1  0.33898953  0.75062427  0.49686135  1
  H  H146  1  0.07717999  0.41733569  0.49979900  1
  H  H147  1  0.67200782  0.41703296  -0.00059758  1
  H  H148  1  0.21614409  0.42336872  -0.00883088  1
  H  H149  1  0.69580642  0.09106725  -0.00338393  1
  H  H150  1  0.46652751  0.25079375  0.50751090  1
  H  H151  1  0.85857547  0.24972523  0.98905440  1
  H  H152  1  0.28070538  0.92013856  0.49277990  1
  H  H153  1  0.66540400  0.75559432  0.00591181  1
  H  H154  1  0.55254346  0.08537014  1.00375012  1
  H  H155  1  0.32984601  0.41707468  0.49770566  1
  H  H156  1  0.53674349  0.75354814  0.49313560  1
  H  H157  1  0.46207419  0.91669762  0.50676524  1
  H  H158  1  0.08532753  0.74396720  0.99490376  1
  H  H159  1  0.31195283  0.57855720  1.00579198  1
  H  H160  1  0.38586736  0.25319552  1.00944890  1
  H  H161  1  0.82370614  0.76495216  -0.00398988  1
  H  H162  1  0.56199366  0.91787249  -0.00600495  1
  H  H163  1  0.79043077  0.08189119  0.50937966  1
  H  H164  1  0.42719193  0.57951074  0.50124557  1
  H  H165  1  0.07919992  0.91717002  0.50136762  1
  H  H166  1  0.91993047  0.91017348  0.49437328  1
  H  H167  1  0.65918188  0.25071694  0.50402212  1
  H  H168  1  0.04672584  0.24702388  -0.00697196  1
  H  H169  1  0.17724027  0.74663081  0.50219415  1
  H  H170  1  0.28803325  0.25084091  0.49420468  1
  H  H171  1  0.04483345  0.41742533  1.00580305  1
  H  H172  1  0.60076692  0.08277790  0.50686168  1
  H  H173  1  0.84363689  0.57997185  0.99860095  1
  H  H174  1  0.08642456  0.91889408  0.00751938  1
  H  H175  1  0.07506777  0.08349893  0.99532690  1
  H  H176  1  0.17107572  0.08359174  0.49825433  1
  H  H177  1  0.44197692  0.58489194  -0.00811299  1
  H  H178  1  0.91530828  0.58990469  0.49391515  1
  H  H179  1  0.39860604  0.75210491  0.98769418  1
  H  H180  1  0.09226698  0.25112193  0.49608136  1
  H  H181  1  0.93348614  0.73388489  1.00059892  1
  H  H182  1  0.67901811  0.91601106  0.49287919  1
  H  H183  1  0.94820484  0.08472213  0.49669601  1
  H  H184  1  0.84949469  0.08360231  0.01073373  1
  H  H185  1  0.07536925  0.58374101  0.50078582  1
  H  H186  1  0.69205948  0.91568718  1.00321345  1
  H  H187  1  0.36375862  0.41653968  0.01427291  1
  H  H188  1  0.69087240  0.75156622  0.50565162  1
  H  H189  1  0.54440444  0.73503964  1.00705671  1
  H  H190  1  0.91688146  0.41392295  0.50384474  1
  H  H191  1  0.20720275  0.74886092  -0.00793000  1
  Pb  Pb192  1  0.24771177  0.04696422  0.74530835  1
  Pb  Pb193  1  0.25023948  0.38291901  0.75113655  1
  Pb  Pb194  1  0.24709313  0.71210515  0.74871501  1
  Pb  Pb195  1  0.75016982  0.04833080  0.75593209  1
  Pb  Pb196  1  0.74638333  0.37921299  0.74988782  1
  Pb  Pb197  1  0.74540303  0.71758825  0.74895750  1
  Pb  Pb198  1  0.25568762  0.28459782  0.25596092  1
  Pb  Pb199  1  0.25492177  0.61755651  0.24686938  1
  Pb  Pb200  1  0.25153892  0.95406939  0.26000951  1
  Pb  Pb201  1  0.74790246  0.28635598  0.24936737  1
  Pb  Pb202  1  0.75387479  0.61938162  0.25233634  1
  Pb  Pb203  1  0.75635135  0.95116734  0.24505916  1
  Pb  Pb204  1  0.00084523  0.21533179  0.75084494  1
  Pb  Pb205  1  -0.00498304  0.54687723  0.74375648  1
  Pb  Pb206  1  -0.00156032  0.87909635  0.75009694  1
  Pb  Pb207  1  0.49854185  0.21296457  0.74792830  1
  Pb  Pb208  1  0.50286018  0.54853286  0.74849367  1
  Pb  Pb209  1  0.49352497  0.88336003  0.74597203  1
  Pb  Pb210  1  0.00043804  0.12015598  0.25393899  1
  Pb  Pb211  1  0.00580506  0.44979861  0.24507636  1
  Pb  Pb212  1  0.00782520  0.78455466  0.24063635  1
  Pb  Pb213  1  0.50446803  0.11771771  0.24246407  1
  Pb  Pb214  1  0.50346636  0.45338687  0.25436186  1
  Pb  Pb215  1  0.50264075  0.78654149  0.25224420  1
  C  C216  1  0.00007596  0.04578928  0.63523759  1
  C  C217  1  -0.00394174  0.37961247  0.63136739  1
  C  C218  1  -0.00559715  0.71375782  0.63200489  1
  C  C219  1  0.50305195  0.04654930  0.63271907  1
  C  C220  1  0.50033804  0.38005682  0.63313698  1
  C  C221  1  0.49877236  0.71270187  0.63010904  1
  C  C222  1  -0.00723686  0.28757089  0.13193858  1
  C  C223  1  0.00204712  0.61889832  0.13171455  1
  C  C224  1  -0.00058709  0.95427931  0.13061595  1
  C  C225  1  0.49862393  0.28690485  0.12832437  1
  C  C226  1  0.50130964  0.61979892  0.13154500  1
  C  C227  1  0.49820363  0.95298540  0.13235367  1
  C  C228  1  0.00054525  0.04552992  0.86800554  1
  C  C229  1  -0.00569316  0.37934768  0.87034661  1
  C  C230  1  -0.00477958  0.71029673  0.86580800  1
  C  C231  1  0.49840504  0.04539218  0.86629281  1
  C  C232  1  0.49258308  0.37745902  0.86874694  1
  C  C233  1  0.49829969  0.71199432  0.87072932  1
  C  C234  1  0.00396889  0.28671611  0.36726995  1
  C  C235  1  -0.00069728  0.62169981  0.36756883  1
  C  C236  1  0.00338594  0.95212228  0.37258225  1
  C  C237  1  0.50312807  0.28779106  0.36933274  1
  C  C238  1  0.50115922  0.61949929  0.36819680  1
  C  C239  1  0.50307047  0.95522931  0.36950290  1
  C  C240  1  0.24713431  0.21263983  0.63166022  1
  C  C241  1  0.24913760  0.54609807  0.63334752  1
  C  C242  1  0.24693119  0.87980836  0.63084923  1
  C  C243  1  0.74549821  0.21330036  0.62837743  1
  C  C244  1  0.74960053  0.54566021  0.63096054  1
  C  C245  1  0.74658850  0.87847283  0.62961730  1
  C  C246  1  0.25402557  0.12152453  0.13160762  1
  C  C247  1  0.25463172  0.45444383  0.12910302  1
  C  C248  1  0.25211170  0.78865300  0.13208175  1
  C  C249  1  0.74834144  0.12396550  0.13234850  1
  C  C250  1  0.75533333  0.45368205  0.13078835  1
  C  C251  1  0.75567832  0.78687508  0.13582837  1
  C  C252  1  0.25230807  0.21087411  0.86700116  1
  C  C253  1  0.24721781  0.54617170  0.86698322  1
  C  C254  1  0.25386467  0.88059655  0.86677157  1
  C  C255  1  0.75418387  0.21419325  0.86869565  1
  C  C256  1  0.74602693  0.54573774  0.87136540  1
  C  C257  1  0.74861238  0.88020003  0.86476136  1
  C  C258  1  0.24551316  0.11971600  0.36583667  1
  C  C259  1  0.25250159  0.45382720  0.37036280  1
  C  C260  1  0.25457144  0.78557696  0.36960853  1
  C  C261  1  0.74791389  0.12138666  0.36739529  1
  C  C262  1  0.74923200  0.45362062  0.36779622  1
  C  C263  1  0.75622542  0.78748576  0.36788237  1
  C  C264  1  0.71571832  0.57354172  0.96655261  1
  C  C265  1  0.97884312  0.07349400  0.53981321  1
  C  C266  1  0.17785812  0.90715620  0.54760218  1
  C  C267  1  0.43237510  0.73940884  0.54552543  1
  C  C268  1  0.72393632  0.90585715  0.96034008  1
  C  C269  1  0.79457164  0.42601632  0.03718463  1
  C  C270  1  0.93669322  0.40748070  0.95859790  1
  C  C271  1  0.51581886  0.25991764  0.03105435  1
  C  C272  1  0.44384923  0.40228546  0.95913133  1
  C  C273  1  0.03650870  0.59426042  0.46132609  1
  C  C274  1  0.78723726  0.57691033  0.53926434  1
  C  C275  1  0.72589708  0.76197763  0.46448142  1
  C  C276  1  0.04328949  0.74128108  0.54213769  1
  C  C277  1  0.22497901  0.24398682  0.96010300  1
  C  C278  1  0.80432720  0.09397710  0.04555393  1
  C  C279  1  0.71711245  0.90458666  0.53282951  1
  C  C280  1  0.80704674  0.76354706  0.45874801  1
  C  C281  1  0.56692418  0.92628992  0.45478360  1
  C  C282  1  0.21651147  0.75771555  0.46302257  1
  C  C283  1  0.93359496  0.26335543  0.04387313  1
  C  C284  1  0.43557145  0.26183063  0.04147556  1
  C  C285  1  0.19596273  0.56909089  0.95816868  1
  C  C286  1  0.79838753  0.90072746  0.53826765  1
  C  C287  1  0.04840280  0.26048713  0.45854003  1
  C  C288  1  0.95184773  0.59045853  0.04256283  1
  C  C289  1  0.68221317  0.09706737  0.45241820  1
  C  C290  1  0.46451606  0.59131051  0.46184323  1
  C  C291  1  0.21032336  0.57490885  0.54097898  1
  C  C292  1  0.79718983  0.57154548  0.96281214  1
  C  C293  1  0.23540134  0.76126490  0.03577360  1
  C  C294  1  0.55282005  0.07283059  0.54315807  1
  C  C295  1  0.76197551  0.09393936  0.46574500  1
  C  C296  1  0.52080247  0.07345362  0.96139496  1
  C  C297  1  0.44601259  0.92997954  0.04151822  1
  C  C298  1  0.04440186  0.73611731  0.95649456  1
  C  C299  1  0.70724479  0.76555781  0.04312473  1
  C  C300  1  0.77988046  0.24483147  0.53438630  1
  C  C301  1  0.78909190  0.76762475  0.03868141  1
  C  C302  1  0.52714474  0.92806664  0.03532333  1
  C  C303  1  0.20997425  0.09377019  0.45917136  1
  C  C304  1  0.18306253  0.23981104  0.54621394  1
  C  C305  1  0.71297226  0.42711382  0.03719763  1
  C  C306  1  0.21064629  0.42485001  0.46362371  1
  C  C307  1  0.03670146  0.40718363  0.53850461  1
  C  C308  1  0.27725442  0.56996963  0.96402415  1
  C  C309  1  0.55619408  0.59666409  0.04160168  1
  C  C310  1  0.01445715  0.25940362  0.03499407  1
  C  C311  1  0.47503980  0.59499108  0.03412896  1
  N  N312  1  0.96471577  0.73759430  0.95986256  1
  N  N313  1  0.52052515  0.74394644  0.96411462  1
  N  N314  1  0.51011115  0.74330027  0.53484839  1
  N  N315  1  0.44215534  0.07156313  0.95555460  1
  N  N316  1  0.80921732  0.24058578  0.95500651  1
  N  N317  1  0.52317590  0.40758181  0.53678094  1
  N  N318  1  0.49045879  0.25780325  0.46354069  1
  N  N319  1  0.47407599  0.07420398  0.53628327  1
  N  N320  1  0.28808679  0.57529059  0.53925709  1
  N  N321  1  0.20164325  0.90633484  0.95680971  1
  N  N322  1  0.20050985  0.09370859  0.04280984  1
  N  N323  1  0.95672338  0.59435801  0.45855852  1
  N  N324  1  0.26097800  0.24220878  0.53635782  1
  N  N325  1  0.56738977  0.26085220  0.45393070  1
  N  N326  1  0.44708278  0.40584387  0.54357127  1
  N  N327  1  0.03930856  0.91750714  0.46254267  1
  N  N328  1  0.30224220  0.24227360  0.95616145  1
  N  N329  1  0.96610168  0.74284442  0.53566685  1
  N  N330  1  0.95690361  0.40694722  0.53947096  1
  N  N331  1  0.27773194  0.90857897  0.96293684  1
  N  N332  1  0.48873196  0.92408321  0.46414120  1
  N  N333  1  0.52106188  0.40529762  0.96540906  1
  N  N334  1  0.54419848  0.59327873  0.45935693  1
  N  N335  1  0.95903458  0.07358770  0.96073989  1
  N  N336  1  0.23882702  0.42076659  0.03584971  1
  N  N337  1  0.96934770  0.25886964  0.46246938  1
  N  N338  1  0.73223421  0.24276387  0.96483960  1
  N  N339  1  0.70912552  0.57670686  0.53799236  1
  N  N340  1  0.80285161  0.90505209  0.95520465  1
  N  N341  1  0.04508770  0.92698550  0.04197376  1
  N  N342  1  0.72504103  0.09291291  0.03854997  1
  N  N343  1  0.31581580  0.43305002  0.04366072  1
  N  N344  1  0.03735604  0.07409839  0.95885386  1
  N  N345  1  0.28926194  0.09390941  0.45937542  1
  N  N346  1  0.80340434  0.42581609  0.45633194  1
  N  N347  1  0.29624941  0.75835479  0.46100983  1
  N  N348  1  0.01522037  0.40886830  0.96478529  1
  N  N349  1  0.27653064  0.09109058  0.03607328  1
  N  N350  1  0.96720218  0.92618363  0.03576717  1
  N  N351  1  0.70117372  0.24277692  0.53856766  1
  N  N352  1  0.96174259  0.93091675  0.46532595  1
  N  N353  1  0.05769019  0.07207050  0.54649654  1
  N  N354  1  0.31361617  0.76538754  0.04427343  1
  N  N355  1  0.29003105  0.42559888  0.46243455  1
  N  N356  1  0.25531977  0.91072235  0.53551380  1
  N  N357  1  0.44236015  0.73422318  0.95816573  1
  N  N358  1  0.72755538  0.42406171  0.46361344  1
  N  N359  1  0.02899536  0.58939046  0.03523140  1
  N  N360  1  0.06902264  0.05511111  0.60614635  1
  N  N361  1  0.06105026  0.39108792  0.59594612  1
  N  N362  1  0.06301824  0.72382000  0.60046472  1
  N  N363  1  0.57194082  0.05623063  0.60222157  1
  N  N364  1  0.55751693  0.39179660  0.59202250  1
  N  N365  1  0.55191216  0.72559532  0.58677958  1
  N  N366  1  0.42633823  0.27861980  0.10302557  1
  N  N367  1  0.44166594  0.60959654  0.09141994  1
  N  N368  1  0.42894864  0.94462067  0.10001870  1
  N  N369  1  0.92109942  0.27999639  0.10301479  1
  N  N370  1  0.93300648  0.60805651  0.10117240  1
  N  N371  1  0.93930245  0.94241552  0.09161283  1
  N  N372  1  0.42987387  0.05414483  0.89635226  1
  N  N373  1  0.42368594  0.38613707  0.90005762  1
  N  N374  1  0.42892185  0.72398358  0.89805577  1
  N  N375  1  0.93690782  0.05673646  0.90351595  1
  N  N376  1  0.92355420  0.38985902  0.89986902  1
  N  N377  1  0.93443379  0.71800272  0.90447617  1
  N  N378  1  0.07108950  0.27711354  0.40007102  1
  N  N379  1  0.06297303  0.61009070  0.40440153  1
  N  N380  1  0.06594607  0.93965305  0.40825847  1
  N  N381  1  0.57458461  0.27758307  0.39465074  1
  N  N382  1  0.56652577  0.61002565  0.40152783  1
  N  N383  1  0.57575743  0.94445259  0.39579498  1
  N  N384  1  0.30148191  0.22311707  0.58841516  1
  N  N385  1  0.31228778  0.55710768  0.59809455  1
  N  N386  1  0.29870818  0.89177106  0.58621285  1
  N  N387  1  0.80758814  0.22654211  0.58984083  1
  N  N388  1  0.81397779  0.55849805  0.59552283  1
  N  N389  1  0.81548927  0.88546847  0.59695409  1
  N  N390  1  0.18544881  0.11263082  0.10201374  1
  N  N391  1  0.20030003  0.44386409  0.08539206  1
  N  N392  1  0.19619519  0.77540157  0.08932438  1
  N  N393  1  0.69065273  0.11470605  0.09127200  1
  N  N394  1  0.68982536  0.44433935  0.09645459  1
  N  N395  1  0.68788407  0.77775415  0.10361035  1
  N  N396  1  0.19214259  0.22525491  0.90611244  1
  N  N397  1  0.17835022  0.55493190  0.89962124  1
  N  N398  1  0.18567998  0.88902792  0.89707979  1
  N  N399  1  0.69818367  0.22674315  0.91102036  1
  N  N400  1  0.68489594  0.55795291  0.91149795  1
  N  N401  1  0.68885130  0.89109191  0.90505041  1
  N  N402  1  0.30958614  0.10982355  0.40090164  1
  N  N403  1  0.31631135  0.44382482  0.40507656  1
  N  N404  1  0.31929898  0.77606623  0.40363202  1
  N  N405  1  0.80214644  0.10959828  0.41120812  1
  N  N406  1  0.81816370  0.44404204  0.39678274  1
  N  N407  1  0.82504786  0.77864512  0.40048573  1
  N  N408  1  0.44993999  0.27682135  0.41335284  1
  N  N409  1  0.43753723  0.60788725  0.40527301  1
  N  N410  1  0.44851593  0.94408540  0.41240470  1
  N  N411  1  0.94345954  0.27513777  0.40529724  1
  N  N412  1  0.93422265  0.61251057  0.40123229  1
  N  N413  1  0.93869399  0.94281070  0.40686645  1
  N  N414  1  0.06396493  0.05606231  0.90312441  1
  N  N415  1  0.05186475  0.38949083  0.91131080  1
  N  N416  1  0.06340958  0.72117680  0.89788030  1
  N  N417  1  0.55713485  0.05743958  0.90702234  1
  N  N418  1  0.55141887  0.38908183  0.90787462  1
  N  N419  1  0.55523888  0.72023028  0.91283619  1
  N  N420  1  0.05033904  0.27489622  0.09110308  1
  N  N421  1  0.06043322  0.60749889  0.09198640  1
  N  N422  1  0.06622758  0.94474056  0.09910557  1
  N  N423  1  0.55392903  0.27508255  0.08324207  1
  N  N424  1  0.57136912  0.61131451  0.10050479  1
  N  N425  1  0.55888867  0.94255354  0.09334278  1
  N  N426  1  0.44459042  0.05785626  0.59268797  1
  N  N427  1  0.43179155  0.38914674  0.60353123  1
  N  N428  1  0.42525340  0.72134213  0.60486078  1
  N  N429  1  0.94207323  0.05730316  0.59379039  1
  N  N430  1  0.93208470  0.38934598  0.59651709  1
  N  N431  1  0.93530491  0.72542556  0.59291556  1
  N  N432  1  0.18148180  0.10925643  0.40194229  1
  N  N433  1  0.18741200  0.44182682  0.40642519  1
  N  N434  1  0.19047489  0.77425561  0.40609531  1
  N  N435  1  0.67408509  0.11312204  0.39299046  1
  N  N436  1  0.69251502  0.44118948  0.40904130  1
  N  N437  1  0.69514246  0.77707974  0.40654386  1
  N  N438  1  0.31978188  0.22161645  0.89739349  1
  N  N439  1  0.30839514  0.55573694  0.90588940  1
  N  N440  1  0.31147768  0.89260612  0.90743053  1
  N  N441  1  0.82357424  0.22312055  0.89676915  1
  N  N442  1  0.81443029  0.55451771  0.90207290  1
  N  N443  1  0.81638072  0.88926636  0.89567122  1
  N  N444  1  0.31106726  0.10858726  0.09083317  1
  N  N445  1  0.32592217  0.44435737  0.10392776  1
  N  N446  1  0.32248462  0.78208301  0.10450949  1
  N  N447  1  0.81877844  0.11169376  0.10414543  1
  N  N448  1  0.81979050  0.44192256  0.09394834  1
  N  N449  1  0.81806781  0.78031204  0.09684649  1
  N  N450  1  0.17428935  0.22252949  0.60551266  1
  N  N451  1  0.18423251  0.55742809  0.59777596  1
  N  N452  1  0.17275783  0.88889811  0.60697841  1
  N  N453  1  0.67905174  0.22241775  0.59629100  1
  N  N454  1  0.68590506  0.55681300  0.59638875  1
  N  N455  1  0.68591148  0.89040030  0.59110389  1
  Cl  Cl456  1  0.25755401  0.05157404  0.61277994  1
  Cl  Cl457  1  0.24771188  0.38602545  0.61670711  1
  Cl  Cl458  1  0.24487018  0.72152000  0.61485490  1
  Cl  Cl459  1  0.75874754  0.05657292  0.62268124  1
  Cl  Cl460  1  0.74697628  0.38394296  0.61719882  1
  Cl  Cl461  1  0.74036945  0.72409870  0.61333615  1
  Cl  Cl462  1  0.23596703  0.28431405  0.12565222  1
  Cl  Cl463  1  0.25099851  0.60971807  0.11123797  1
  Cl  Cl464  1  0.24654115  0.94713180  0.12957909  1
  Cl  Cl465  1  0.73549454  0.27908473  0.11831487  1
  Cl  Cl466  1  0.75313794  0.61306708  0.12156917  1
  Cl  Cl467  1  0.74870891  0.94700680  0.11055390  1
  Cl  Cl468  1  0.24484573  0.05541138  0.87649209  1
  Cl  Cl469  1  0.23640430  0.39384818  0.89393371  1
  Cl  Cl470  1  0.24677278  0.71763168  0.88392551  1
  Cl  Cl471  1  0.74509106  0.06177174  0.89560690  1
  Cl  Cl472  1  0.73709325  0.38884084  0.88452998  1
  Cl  Cl473  1  0.74342362  0.72556122  0.88753662  1
  Cl  Cl474  1  0.26547882  0.27640006  0.39984081  1
  Cl  Cl475  1  0.24994448  0.61400279  0.37870768  1
  Cl  Cl476  1  0.25944906  0.93681207  0.39874503  1
  Cl  Cl477  1  0.75812148  0.27515792  0.38424165  1
  Cl  Cl478  1  0.75043649  0.61688449  0.38540950  1
  Cl  Cl479  1  0.75891909  0.94875033  0.37875997  1
  Cl  Cl480  1  -0.00912037  0.22063446  0.62063101  1
  Cl  Cl481  1  -0.00153377  0.55523659  0.60748360  1
  Cl  Cl482  1  -0.00579359  0.88739683  0.61493845  1
  Cl  Cl483  1  0.48724884  0.22869449  0.60331452  1
  Cl  Cl484  1  0.50031189  0.55941820  0.61119613  1
  Cl  Cl485  1  0.48523796  0.89241253  0.60179178  1
  Cl  Cl486  1  0.00336926  0.10974898  0.12001624  1
  Cl  Cl487  1  0.01667475  0.43841927  0.10433157  1
  Cl  Cl488  1  0.00646221  0.77244461  0.10279406  1
  Cl  Cl489  1  0.50449211  0.10906590  0.10659814  1
  Cl  Cl490  1  0.50543885  0.45195076  0.12299712  1
  Cl  Cl491  1  0.50592820  0.77071643  0.11590659  1
  Cl  Cl492  1  0.00847882  0.22063652  0.88666553  1
  Cl  Cl493  1  -0.00343657  0.54567312  0.87146561  1
  Cl  Cl494  1  0.00311264  0.88500388  0.88214869  1
  Cl  Cl495  1  0.51160181  0.22119925  0.87991483  1
  Cl  Cl496  1  0.49695159  0.55614902  0.88182584  1
  Cl  Cl497  1  0.50075315  0.88596716  0.88098623  1
  Cl  Cl498  1  -0.00981850  0.10696220  0.38863802  1
  Cl  Cl499  1  0.00265679  0.44652865  0.38374281  1
  Cl  Cl500  1  0.00793403  0.78331093  0.37259458  1
  Cl  Cl501  1  0.49210324  0.11695929  0.37360230  1
  Cl  Cl502  1  0.50242194  0.44751731  0.38694808  1
  Cl  Cl503  1  0.50691682  0.77715964  0.39309126  1
  Cl  Cl504  1  0.36077379  0.14685701  0.75242632  1
  Cl  Cl505  1  0.35511276  0.47738623  0.74741801  1
  Cl  Cl506  1  0.35941954  0.81307495  0.74696971  1
  Cl  Cl507  1  0.85910179  0.14706718  0.75662788  1
  Cl  Cl508  1  0.86069534  0.47864708  0.74791332  1
  Cl  Cl509  1  0.86192500  0.81209487  0.75091777  1
  Cl  Cl510  1  0.13648916  0.18789741  0.25389713  1
  Cl  Cl511  1  0.14068251  0.51833409  0.25083221  1
  Cl  Cl512  1  0.14526242  0.85009651  0.25323835  1
  Cl  Cl513  1  0.63879754  0.18617476  0.25671929  1
  Cl  Cl514  1  0.64078504  0.51988435  0.24988761  1
  Cl  Cl515  1  0.63604289  0.85552782  0.24809693  1
  Cl  Cl516  1  0.13685081  0.14611347  0.74447773  1
  Cl  Cl517  1  0.13647549  0.47884100  0.74960897  1
  Cl  Cl518  1  0.13624240  0.81297884  0.74780320  1
  Cl  Cl519  1  0.63851200  0.14812734  0.74751975  1
  Cl  Cl520  1  0.64139774  0.48441611  0.74932261  1
  Cl  Cl521  1  0.64225326  0.81367293  0.74796182  1
  Cl  Cl522  1  0.35704746  0.18883012  0.24972603  1
  Cl  Cl523  1  0.36088925  0.52127982  0.24742271  1
  Cl  Cl524  1  0.36538708  0.85404776  0.24911425  1
  Cl  Cl525  1  0.86264258  0.18728595  0.24250606  1
  Cl  Cl526  1  0.86174407  0.52247189  0.25337099  1
  Cl  Cl527  1  0.85816262  0.85315326  0.25068070  1
  Cl  Cl528  1  0.10410815  0.31303282  0.74641749  1
  Cl  Cl529  1  0.11278533  0.64349100  0.74862481  1
  Cl  Cl530  1  0.11199057  0.97916906  0.74347708  1
  Cl  Cl531  1  0.60675318  0.31488013  0.74710757  1
  Cl  Cl532  1  0.60244981  0.64878501  0.75108168  1
  Cl  Cl533  1  0.61264719  0.97977799  0.74688910  1
  Cl  Cl534  1  0.38857285  0.01915573  0.24924396  1
  Cl  Cl535  1  0.38605187  0.35536924  0.24474088  1
  Cl  Cl536  1  0.38956301  0.68706128  0.25286784  1
  Cl  Cl537  1  0.89271062  0.01718873  0.24793662  1
  Cl  Cl538  1  0.89123841  0.35450964  0.24784759  1
  Cl  Cl539  1  0.88716038  0.68933101  0.24908489  1
  Cl  Cl540  1  0.38417899  0.31252465  0.75236251  1
  Cl  Cl541  1  0.38352037  0.64550130  0.74643684  1
  Cl  Cl542  1  0.39284605  0.97935769  0.75107693  1
  Cl  Cl543  1  0.88580664  0.31303721  0.75627608  1
  Cl  Cl544  1  0.89239107  0.64612096  0.74838643  1
  Cl  Cl545  1  0.88861998  0.98045109  0.75655618  1
  Cl  Cl546  1  0.10977200  0.01746569  0.25478089  1
  Cl  Cl547  1  0.10838443  0.35587106  0.25673655  1
  Cl  Cl548  1  0.10500384  0.68521383  0.24839020  1
  Cl  Cl549  1  0.60989258  0.02267291  0.25524136  1
  Cl  Cl550  1  0.60747257  0.34979469  0.25333790  1
  Cl  Cl551  1  0.61155162  0.68531071  0.24822229  1
