# generated using pymatgen
data_H8PbC4(N3Cl2)2
_symmetry_space_group_name_H-M   'P 1'
_cell_length_a   16.62219683
_cell_length_b   22.50519549
_cell_length_c   21.58941594
_cell_angle_alpha   89.99856198
_cell_angle_beta   90.00455424
_cell_angle_gamma   90.00533421
_symmetry_Int_Tables_number   1
_chemical_formula_structural   H8PbC4(N3Cl2)2
_chemical_formula_sum   'H192 Pb24 C96 N144 Cl96'
_cell_volume   8076.29363546
_cell_formula_units_Z   24
loop_
 _symmetry_equiv_pos_site_id
 _symmetry_equiv_pos_as_xyz
  1  'x, y, z'
loop_
 _atom_site_type_symbol
 _atom_site_label
 _atom_site_symmetry_multiplicity
 _atom_site_fract_x
 _atom_site_fract_y
 _atom_site_fract_z
 _atom_site_occupancy
  H  H0  1  -0.00558254  0.03259959  0.68096214  1
  H  H1  1  0.00939011  0.36702716  0.68138771  1
  H  H2  1  0.00984689  0.69862247  0.68056311  1
  H  H3  1  0.50744828  0.03225035  0.67923492  1
  H  H4  1  0.49568995  0.36395807  0.68142316  1
  H  H5  1  0.50027770  0.69779556  0.67988994  1
  H  H6  1  0.00287909  0.30190936  0.17765132  1
  H  H7  1  0.00282525  0.63524119  0.17919089  1
  H  H8  1  -0.00495681  0.97022270  0.18065005  1
  H  H9  1  0.50322800  0.30341768  0.17978297  1
  H  H10  1  0.50244391  0.63681608  0.17832952  1
  H  H11  1  0.50814384  0.96884761  0.18278244  1
  H  H12  1  -0.00005104  0.03058892  0.82118673  1
  H  H13  1  0.00120638  0.36427373  0.82287298  1
  H  H14  1  -0.00761909  0.69595857  0.82280888  1
  H  H15  1  0.49788181  0.03118693  0.82250056  1
  H  H16  1  0.49625412  0.36399210  0.82218243  1
  H  H17  1  0.50811548  0.69746118  0.81912768  1
  H  H18  1  -0.00294813  0.30201339  0.31911743  1
  H  H19  1  -0.00794479  0.63810311  0.31771736  1
  H  H20  1  0.00430801  0.96766078  0.32316118  1
  H  H21  1  0.50167256  0.30219206  0.32110953  1
  H  H22  1  0.50645262  0.63376208  0.31991092  1
  H  H23  1  0.50470548  0.96972852  0.32055808  1
  H  H24  1  0.25167628  0.19894732  0.68236043  1
  H  H25  1  0.23996764  0.53078250  0.67809867  1
  H  H26  1  0.25129746  0.86448806  0.68213625  1
  H  H27  1  0.74354884  0.20014586  0.68159310  1
  H  H28  1  0.75811272  0.52996484  0.68183241  1
  H  H29  1  0.74587941  0.86647304  0.67792452  1
  H  H30  1  0.25015669  0.13712435  0.17937090  1
  H  H31  1  0.24991599  0.46584005  0.17640027  1
  H  H32  1  0.25142882  0.80138232  0.17749942  1
  H  H33  1  0.75309920  0.13672663  0.17690377  1
  H  H34  1  0.74841587  0.46883970  0.17752513  1
  H  H35  1  0.75233432  0.80106011  0.18256702  1
  H  H36  1  0.24114159  0.20041433  0.82242089  1
  H  H37  1  0.24742272  0.53056016  0.82028814  1
  H  H38  1  0.25303145  0.86397397  0.81840246  1
  H  H39  1  0.74215780  0.19824663  0.82091868  1
  H  H40  1  0.75048713  0.52974988  0.82288975  1
  H  H41  1  0.74582330  0.86553413  0.81815865  1
  H  H42  1  0.24080101  0.13502752  0.32012694  1
  H  H43  1  0.24589414  0.46711636  0.32068891  1
  H  H44  1  0.24914340  0.80157456  0.31984641  1
  H  H45  1  0.75438483  0.13483991  0.31647101  1
  H  H46  1  0.75351428  0.46703298  0.31735206  1
  H  H47  1  0.75319112  0.80214953  0.32037571  1
  H  H48  1  0.12205542  0.05362199  0.61389370  1
  H  H49  1  0.11565099  0.39001432  0.59813237  1
  H  H50  1  0.12483011  0.72499597  0.60311102  1
  H  H51  1  0.61765277  0.05778915  0.59919581  1
  H  H52  1  0.62216599  0.38548614  0.61215963  1
  H  H53  1  0.62704624  0.72160322  0.61290742  1
  H  H54  1  0.37247027  0.28364964  0.11403990  1
  H  H55  1  0.37037300  0.61381342  0.11464181  1
  H  H56  1  0.37213063  0.94858035  0.12236621  1
  H  H57  1  0.87599595  0.28182329  0.11121075  1
  H  H58  1  0.87313512  0.61212656  0.11348556  1
  H  H59  1  0.87061659  0.94734130  0.11053206  1
  H  H60  1  0.37922785  0.05804170  0.89636374  1
  H  H61  1  0.37317703  0.38811443  0.89338646  1
  H  H62  1  0.37704421  0.71839313  0.88526359  1
  H  H63  1  0.87749151  0.05607811  0.89361658  1
  H  H64  1  0.87612248  0.38707079  0.89385250  1
  H  H65  1  0.88414091  0.72583783  0.90425888  1
  H  H66  1  0.12124269  0.28086208  0.39100876  1
  H  H67  1  0.12168627  0.61225970  0.38326554  1
  H  H68  1  0.11154110  0.93824906  0.40502425  1
  H  H69  1  0.62387174  0.27748624  0.39283047  1
  H  H70  1  0.61790081  0.61064395  0.40033647  1
  H  H71  1  0.61576021  0.94197588  0.40091773  1
  H  H72  1  0.37619944  0.22168909  0.61037916  1
  H  H73  1  0.37897015  0.55128323  0.62414043  1
  H  H74  1  0.38390404  0.88447403  0.62092735  1
  H  H75  1  0.87614542  0.22001156  0.61585846  1
  H  H76  1  0.87697661  0.55515210  0.60737138  1
  H  H77  1  0.88517626  0.88157097  0.62476209  1
  H  H78  1  0.12104518  0.11436596  0.11271906  1
  H  H79  1  0.12558401  0.44627536  0.10753816  1
  H  H80  1  0.12041935  0.78075936  0.11364860  1
  H  H81  1  0.62418575  0.11443643  0.11163526  1
  H  H82  1  0.62649580  0.44373369  0.10573717  1
  H  H83  1  0.61971575  0.78032603  0.11747946  1
  H  H84  1  0.12908965  0.22385179  0.90072632  1
  H  H85  1  0.13179915  0.55341090  0.89605475  1
  H  H86  1  0.12680259  0.88598747  0.88569163  1
  H  H87  1  0.62754846  0.22365424  0.89877853  1
  H  H88  1  0.62949019  0.55031083  0.89692191  1
  H  H89  1  0.63141336  0.88885274  0.89566917  1
  H  H90  1  0.37935369  0.11586285  0.37715125  1
  H  H91  1  0.37873624  0.44606831  0.38292471  1
  H  H92  1  0.37582324  0.77960831  0.38998948  1
  H  H93  1  0.87681435  0.11388310  0.38817226  1
  H  H94  1  0.87970580  0.44519970  0.38677115  1
  H  H95  1  0.87237122  0.77818817  0.39463218  1
  H  H96  1  0.37488762  0.28061404  0.39067598  1
  H  H97  1  0.37022089  0.61279706  0.37903679  1
  H  H98  1  0.36840004  0.94695480  0.37804459  1
  H  H99  1  0.87262594  0.27872536  0.39099641  1
  H  H100  1  0.87241530  0.61290979  0.39107525  1
  H  H101  1  0.86580380  0.94981731  0.38062619  1
  H  H102  1  0.12600861  0.05544413  0.88858818  1
  H  H103  1  0.12536816  0.38634249  0.89374705  1
  H  H104  1  0.13001551  0.71439002  0.87987582  1
  H  H105  1  0.62781047  0.05534834  0.88707107  1
  H  H106  1  0.62265049  0.38699783  0.89186302  1
  H  H107  1  0.62465502  0.72323079  0.89803044  1
  H  H108  1  0.12548687  0.28120638  0.10490641  1
  H  H109  1  0.12134754  0.60922119  0.10527320  1
  H  H110  1  0.11938124  0.94518823  0.10988878  1
  H  H111  1  0.62147551  0.27797494  0.10322893  1
  H  H112  1  0.61785692  0.60922581  0.10055948  1
  H  H113  1  0.61944812  0.94455847  0.10218009  1
  H  H114  1  0.37021398  0.05243473  0.62087296  1
  H  H115  1  0.37281597  0.38828814  0.60777512  1
  H  H116  1  0.37833415  0.72244072  0.60683269  1
  H  H117  1  0.87388330  0.05495250  0.60704338  1
  H  H118  1  0.86921034  0.38307794  0.62742210  1
  H  H119  1  0.87658010  0.71973890  0.61729608  1
  H  H120  1  0.13292248  0.10843952  0.40301790  1
  H  H121  1  0.13023608  0.44269681  0.39870353  1
  H  H122  1  0.12723767  0.77857901  0.39319837  1
  H  H123  1  0.62735822  0.11468445  0.38363841  1
  H  H124  1  0.63077692  0.44482169  0.39079419  1
  H  H125  1  0.62292834  0.78129394  0.38633294  1
  H  H126  1  0.37618885  0.21760479  0.88080544  1
  H  H127  1  0.38056690  0.54953980  0.88279819  1
  H  H128  1  0.37624824  0.88739139  0.88819265  1
  H  H129  1  0.87600403  0.21858960  0.88404473  1
  H  H130  1  0.87781054  0.55473484  0.88931564  1
  H  H131  1  0.87989336  0.88497680  0.87746114  1
  H  H132  1  0.37068825  0.11322925  0.10593969  1
  H  H133  1  0.37434712  0.44691590  0.10744966  1
  H  H134  1  0.36894651  0.77658110  0.10134429  1
  H  H135  1  0.87301686  0.11146597  0.10312337  1
  H  H136  1  0.87566435  0.44609023  0.10896182  1
  H  H137  1  0.86832159  0.77709618  0.10488186  1
  H  H138  1  0.12681563  0.22147016  0.61163638  1
  H  H139  1  0.13505520  0.56005163  0.59264645  1
  H  H140  1  0.13529403  0.88749605  0.60555373  1
  H  H141  1  0.62828463  0.22256844  0.60161280  1
  H  H142  1  0.62786221  0.55548863  0.61723102  1
  H  H143  1  0.63948423  0.89135488  0.59563284  1
  H  H144  1  0.17572464  0.25111954  0.50301060  1
  H  H145  1  0.92859605  0.59189746  0.50304996  1
  H  H146  1  0.03653170  0.92123266  0.50730480  1
  H  H147  1  0.88445875  0.91521439  0.49191362  1
  H  H148  1  0.57568606  0.41246296  0.50202698  1
  H  H149  1  0.58995513  0.08408689  0.99364965  1
  H  H150  1  0.80678662  0.75309087  -0.00294664  1
  H  H151  1  0.16027149  0.08933107  0.00586058  1
  H  H152  1  0.54621995  0.91434084  0.50272311  1
  H  H153  1  0.69170986  0.91346837  1.00507571  1
  H  H154  1  0.95833701  0.74045022  1.00578667  1
  H  H155  1  0.81787125  0.08454162  -0.00095478  1
  H  H156  1  0.39826446  0.58662393  0.48788543  1
  H  H157  1  0.16763242  0.91611009  0.99669750  1
  H  H158  1  0.40297503  0.58284089  0.00879986  1
  H  H159  1  0.35500290  0.91128706  0.50737957  1
  H  H160  1  0.83406047  0.56906981  0.99622442  1
  H  H161  1  0.82009778  0.57426913  0.49559255  1
  H  H162  1  0.66851849  0.09331927  0.49792933  1
  H  H163  1  0.19449161  0.41524119  0.50210728  1
  H  H164  1  0.85380123  0.91393470  0.99115947  1
  H  H165  1  0.68487538  0.59306005  0.99305307  1
  H  H166  1  0.65994995  0.75366355  0.49270526  1
  H  H167  1  0.55122764  0.58640285  0.50877842  1
  H  H168  1  0.93502625  0.05608550  0.50116698  1
  H  H169  1  0.55164997  0.91572776  -0.00336576  1
  H  H170  1  0.32035265  0.08575412  -0.00268608  1
  H  H171  1  0.07135597  0.09877451  0.51641723  1
  H  H172  1  0.04517108  0.41452309  0.49160046  1
  H  H173  1  0.32747363  0.75250196  0.49507278  1
  H  H174  1  0.31074156  0.74816144  -0.00159033  1
  H  H175  1  0.20515493  0.08104770  0.50722018  1
  H  H176  1  0.92353868  0.25372342  0.49578349  1
  H  H177  1  0.07867066  0.59513204  0.49258807  1
  H  H178  1  0.81958344  0.75074413  0.50351600  1
  H  H179  1  0.40791803  0.25205839  0.00405735  1
  H  H180  1  0.71070306  0.91815028  0.48954499  1
  H  H181  1  0.55080747  0.08483418  0.49173101  1
  H  H182  1  0.66895976  0.57163703  0.50757712  1
  H  H183  1  0.39743827  0.08206079  0.51265512  1
  H  H184  1  0.83831903  0.41500276  0.49684625  1
  H  H185  1  0.82808034  0.09855435  0.50196408  1
  H  H186  1  0.91566906  0.25249857  -0.00135040  1
  H  H187  1  0.19330548  0.91182284  0.49567784  1
  H  H188  1  0.21393148  0.58254412  0.49318394  1
  H  H189  1  0.33135498  0.91553199  0.99875922  1
  H  H190  1  0.18694947  0.57962658  1.00514628  1
  H  H191  1  0.10722707  0.74955464  0.98639162  1
  Pb  Pb192  1  0.25371868  0.04856308  0.75479381  1
  Pb  Pb193  1  0.25073457  0.37922528  0.74320145  1
  Pb  Pb194  1  0.25375306  0.71274411  0.74750957  1
  Pb  Pb195  1  0.75604006  0.04759312  0.74935600  1
  Pb  Pb196  1  0.75003002  0.37869547  0.75332266  1
  Pb  Pb197  1  0.75272778  0.71332371  0.75254533  1
  Pb  Pb198  1  0.24866157  0.28834388  0.25231502  1
  Pb  Pb199  1  0.24511478  0.61808915  0.25047955  1
  Pb  Pb200  1  0.24428344  0.95279077  0.25158069  1
  Pb  Pb201  1  0.74761673  0.28734197  0.24802703  1
  Pb  Pb202  1  0.74262158  0.61834215  0.24850603  1
  Pb  Pb203  1  0.74542735  0.95346515  0.24801733  1
  Pb  Pb204  1  0.00173004  0.21343871  0.74983993  1
  Pb  Pb205  1  0.00205350  0.54605856  0.74427100  1
  Pb  Pb206  1  0.00619901  0.88057314  0.74307988  1
  Pb  Pb207  1  0.50431547  0.21348244  0.74985198  1
  Pb  Pb208  1  0.50314274  0.54497102  0.75057379  1
  Pb  Pb209  1  0.50693268  0.88236624  0.74680184  1
  Pb  Pb210  1  -0.00093786  0.12083319  0.25666152  1
  Pb  Pb211  1  -0.00390231  0.45235416  0.25137929  1
  Pb  Pb212  1  -0.00486340  0.78513515  0.24600032  1
  Pb  Pb213  1  0.49799189  0.12123900  0.24695305  1
  Pb  Pb214  1  0.49760928  0.45261514  0.24955272  1
  Pb  Pb215  1  0.49463608  0.78667480  0.25049484  1
  C  C216  1  -0.00322371  0.04713491  0.63294969  1
  C  C217  1  -0.00180620  0.37995590  0.63380014  1
  C  C218  1  0.00338759  0.71402287  0.63341199  1
  C  C219  1  0.49773409  0.04706496  0.63181347  1
  C  C220  1  0.49672764  0.37920178  0.63378576  1
  C  C221  1  0.50168141  0.71372241  0.63271902  1
  C  C222  1  0.00082901  0.28772520  0.12975336  1
  C  C223  1  -0.00126463  0.61934159  0.13214203  1
  C  C224  1  -0.00476586  0.95423161  0.13350310  1
  C  C225  1  0.49908443  0.28794004  0.13236839  1
  C  C226  1  0.49650479  0.62047017  0.13125056  1
  C  C227  1  0.49958483  0.95404785  0.13536380  1
  C  C228  1  0.00096509  0.04652386  0.86837923  1
  C  C229  1  0.00069716  0.37936764  0.87037477  1
  C  C230  1  0.00231826  0.71184086  0.86982195  1
  C  C231  1  0.50196662  0.04721440  0.86971290  1
  C  C232  1  0.49760512  0.37981026  0.86943988  1
  C  C233  1  0.50356214  0.71229180  0.86677726  1
  C  C234  1  -0.00333772  0.28676306  0.36681091  1
  C  C235  1  -0.00383395  0.62222112  0.36516335  1
  C  C236  1  -0.00657936  0.95239219  0.37039850  1
  C  C237  1  0.49989953  0.28654163  0.36837380  1
  C  C238  1  0.49746188  0.61943979  0.36751716  1
  C  C239  1  0.49649551  0.95401470  0.36764208  1
  C  C240  1  0.25160263  0.21415840  0.63472003  1
  C  C241  1  0.25103657  0.54608386  0.63117847  1
  C  C242  1  0.25720137  0.87893428  0.63435777  1
  C  C243  1  0.74951222  0.21415966  0.63367388  1
  C  C244  1  0.75378617  0.54609291  0.63446000  1
  C  C245  1  0.75732896  0.87973949  0.63029452  1
  C  C246  1  0.24686355  0.12179728  0.13162789  1
  C  C247  1  0.24997816  0.45253544  0.12803146  1
  C  C248  1  0.24716451  0.78610837  0.12992594  1
  C  C249  1  0.75043948  0.12107679  0.12950240  1
  C  C250  1  0.75037760  0.45302337  0.13031741  1
  C  C251  1  0.74649766  0.78629323  0.13495466  1
  C  C252  1  0.24907878  0.21427114  0.87009084  1
  C  C253  1  0.25294704  0.54481819  0.86803772  1
  C  C254  1  0.25197293  0.87967402  0.86598094  1
  C  C255  1  0.74890115  0.21338967  0.86813272  1
  C  C256  1  0.75259923  0.54530828  0.87050608  1
  C  C257  1  0.75272006  0.88019038  0.86585114  1
  C  C258  1  0.25142254  0.12028170  0.36735108  1
  C  C259  1  0.25144158  0.45270281  0.36825571  1
  C  C260  1  0.25105504  0.78603184  0.36740625  1
  C  C261  1  0.75290478  0.12076162  0.36457819  1
  C  C262  1  0.75467191  0.45240869  0.36520547  1
  C  C263  1  0.74908349  0.78625623  0.36793186  1
  C  C264  1  0.70209382  0.09379936  0.03788109  1
  C  C265  1  0.46206407  0.40988480  0.96144380  1
  C  C266  1  0.22742037  0.90287069  0.53772053  1
  C  C267  1  0.30474191  0.23896908  0.95873495  1
  C  C268  1  0.29031043  0.42864396  0.03530448  1
  C  C269  1  0.03768410  0.40699667  0.96290120  1
  C  C270  1  0.52218719  0.59425249  0.46435580  1
  C  C271  1  0.03897735  0.26211377  0.03559709  1
  C  C272  1  0.20909355  0.90569265  0.95926401  1
  C  C273  1  0.78290887  0.76042570  0.46293212  1
  C  C274  1  0.03009642  0.74421988  0.53926948  1
  C  C275  1  0.22407789  0.24116483  0.96561355  1
  C  C276  1  0.46761597  0.07718147  0.96443015  1
  C  C277  1  0.77317506  0.76202278  0.03934334  1
  C  C278  1  0.96108194  0.59609266  0.45961172  1
  C  C279  1  0.72512468  0.90479521  0.96277751  1
  C  C280  1  0.29131707  0.90556912  0.96023665  1
  C  C281  1  0.01487225  0.40415614  0.53498488  1
  C  C282  1  0.30476325  0.42476365  0.45812308  1
  C  C283  1  0.45393215  0.26189203  0.04141606  1
  C  C284  1  0.28241491  0.09548568  0.03724571  1
  C  C285  1  0.70873661  0.10030433  0.45888719  1
  C  C286  1  0.20976785  0.42846757  0.03533306  1
  C  C287  1  0.22446457  0.57053933  0.96489472  1
  C  C288  1  0.53592429  0.40394792  0.54098722  1
  C  C289  1  0.02998663  0.58840878  0.03881814  1
  C  C290  1  0.30603315  0.56906052  0.95862957  1
  C  C291  1  0.82178186  0.90157951  0.54266082  1
  C  C292  1  0.79080559  0.10111540  0.46070704  1
  C  C293  1  0.19625695  0.76142953  0.03841571  1
  C  C294  1  0.71620537  0.42231100  0.03826883  1
  C  C295  1  0.95740762  0.26209254  0.03613921  1
  C  C296  1  0.43862753  0.92470031  0.45483138  1
  C  C297  1  0.78762150  0.57058392  0.53917489  1
  C  C298  1  0.80697378  0.90439274  0.95614131  1
  C  C299  1  0.23389145  0.09290133  0.46353383  1
  C  C300  1  0.53451111  0.25668979  0.46067777  1
  C  C301  1  0.52095868  0.92695427  0.03969906  1
  C  C302  1  0.72272824  0.24342782  0.96227719  1
  C  C303  1  0.21467753  0.24045244  0.54191962  1
  C  C304  1  0.54356738  0.74213207  0.54092312  1
  C  C305  1  0.30936611  0.90246803  0.54331861  1
  C  C306  1  0.04209113  0.07559996  0.96007356  1
  C  C307  1  0.79455242  0.42631155  0.45792059  1
  C  C308  1  0.52153084  0.07499049  0.53563585  1
  C  C309  1  0.93429320  0.40133028  0.54655956  1
  C  C310  1  0.95666304  0.92584506  0.04088867  1
  C  C311  1  0.74074873  0.90577489  0.53255835  1
  N  N312  1  0.96423522  0.07571579  0.96299838  1
  N  N313  1  0.80002343  0.24129041  0.95891405  1
  N  N314  1  0.44289952  0.07373012  0.54463524  1
  N  N315  1  0.27539696  0.75926832  0.03551196  1
  N  N316  1  0.53937815  0.40957884  0.96221472  1
  N  N317  1  0.45715564  0.25754153  0.46124453  1
  N  N318  1  0.45600162  0.73799029  0.95821193  1
  N  N319  1  0.95256618  0.74193268  0.54240035  1
  N  N320  1  0.52712344  0.59172962  0.03636210  1
  N  N321  1  0.95216898  0.58977515  0.04012680  1
  N  N322  1  0.28971421  0.76140548  0.45875431  1
  N  N323  1  0.79354793  0.42341533  0.03783543  1
  N  N324  1  0.04054660  0.59429651  0.45539645  1
  N  N325  1  0.01229726  0.91795745  0.46316156  1
  N  N326  1  0.79806528  0.23795836  0.54191869  1
  N  N327  1  0.71508343  0.42660515  0.45988391  1
  N  N328  1  0.29398279  0.24052274  0.54098924  1
  N  N329  1  0.98282678  0.74659895  0.96242996  1
  N  N330  1  0.96034424  0.07443767  0.54017668  1
  N  N331  1  0.46556062  0.74239024  0.53782065  1
  N  N332  1  0.06026459  0.73390620  0.95651514  1
  N  N333  1  0.44907983  0.59298922  0.04269007  1
  N  N334  1  0.53306116  0.25939228  0.03723570  1
  N  N335  1  0.53236926  0.73973906  0.96224023  1
  N  N336  1  0.79635729  0.57740171  0.95926584  1
  N  N337  1  0.71732954  0.56503780  0.96518851  1
  N  N338  1  0.70323937  0.76128851  0.45878788  1
  N  N339  1  0.44222488  0.92864369  0.04627264  1
  N  N340  1  0.03917871  0.26216314  0.46037500  1
  N  N341  1  0.69411535  0.76238708  0.04351456  1
  N  N342  1  0.44340357  0.59439062  0.45550153  1
  N  N343  1  0.54655895  0.07525779  0.95999687  1
  N  N344  1  0.20269675  0.09559103  0.04064452  1
  N  N345  1  0.21154572  0.76103053  0.46166514  1
  N  N346  1  0.96080483  0.26070048  0.45852782  1
  N  N347  1  0.03458249  0.92466069  0.03956726  1
  N  N348  1  0.70827485  0.57228639  0.54398215  1
  N  N349  1  0.51686108  0.92355440  0.46193124  1
  N  N350  1  0.31480335  0.57275107  0.54622231  1
  N  N351  1  0.45673026  0.40594683  0.53946571  1
  N  N352  1  0.78141295  0.09263013  0.03620755  1
  N  N353  1  0.22608214  0.42492253  0.46259027  1
  N  N354  1  0.93492320  0.92938599  0.45711979  1
  N  N355  1  0.96048716  0.40765160  0.96408503  1
  N  N356  1  0.72161567  0.23881604  0.53726375  1
  N  N357  1  0.31230509  0.09497345  0.45489701  1
  N  N358  1  0.23776794  0.57647858  0.53712365  1
  N  N359  1  0.04218629  0.06583640  0.54038637  1
  N  N360  1  0.06214386  0.06032239  0.60099526  1
  N  N361  1  0.05360323  0.39058632  0.59062029  1
  N  N362  1  0.06371356  0.72735101  0.59372946  1
  N  N363  1  0.55618969  0.05850726  0.58974578  1
  N  N364  1  0.56207347  0.38837599  0.59871598  1
  N  N365  1  0.56763352  0.72496862  0.59848906  1
  N  N366  1  0.43186745  0.27901829  0.09957569  1
  N  N367  1  0.42955184  0.61066995  0.09999990  1
  N  N368  1  0.43073559  0.94535000  0.10603351  1
  N  N369  1  0.93495294  0.27801464  0.09590876  1
  N  N370  1  0.93278359  0.60959028  0.09965133  1
  N  N371  1  0.93042552  0.94341033  0.09777439  1
  N  N372  1  0.43976326  0.05993267  0.90839067  1
  N  N373  1  0.43347678  0.39185092  0.90566031  1
  N  N374  1  0.43693633  0.72115003  0.89906431  1
  N  N375  1  0.93863683  0.05700624  0.90456156  1
  N  N376  1  0.93698682  0.39013907  0.90518335  1
  N  N377  1  0.94624780  0.72291715  0.91187423  1
  N  N378  1  0.06062137  0.27715379  0.40255779  1
  N  N379  1  0.06206001  0.61418508  0.39816357  1
  N  N380  1  0.04918266  0.94144767  0.41271677  1
  N  N381  1  0.56369072  0.27414607  0.40483326  1
  N  N382  1  0.55629520  0.60944573  0.40965524  1
  N  N383  1  0.55367136  0.94361207  0.40871996  1
  N  N384  1  0.31528282  0.22441380  0.59922718  1
  N  N385  1  0.32239560  0.55569589  0.60534130  1
  N  N386  1  0.32615612  0.88787730  0.60368819  1
  N  N387  1  0.81640872  0.22301774  0.60183800  1
  N  N388  1  0.81647658  0.55632297  0.59581654  1
  N  N389  1  0.83030412  0.88580535  0.60295348  1
  N  N390  1  0.18114050  0.11295783  0.09845799  1
  N  N391  1  0.18475338  0.44291838  0.09192730  1
  N  N392  1  0.17867047  0.77737257  0.09711644  1
  N  N393  1  0.68301162  0.11061174  0.09592500  1
  N  N394  1  0.68672264  0.44044028  0.09375751  1
  N  N395  1  0.67936181  0.77731357  0.10319824  1
  N  N396  1  0.19025266  0.22605064  0.91137501  1
  N  N397  1  0.19264520  0.55540752  0.90715570  1
  N  N398  1  0.18624619  0.88978621  0.90033130  1
  N  N399  1  0.68886244  0.22642326  0.90808114  1
  N  N400  1  0.69026938  0.55726915  0.90643666  1
  N  N401  1  0.69264873  0.88998048  0.90619598  1
  N  N402  1  0.32149382  0.11195214  0.39480525  1
  N  N403  1  0.32078047  0.44193661  0.39977288  1
  N  N404  1  0.31533191  0.77574522  0.40182954  1
  N  N405  1  0.81698240  0.11322049  0.40151932  1
  N  N406  1  0.81991185  0.44242289  0.40009531  1
  N  N407  1  0.81163843  0.77547182  0.40628935  1
  N  N408  1  0.43532680  0.27633979  0.40244128  1
  N  N409  1  0.42843564  0.61043019  0.39607923  1
  N  N410  1  0.42540303  0.94295595  0.39627114  1
  N  N411  1  0.93356530  0.27656077  0.40247075  1
  N  N412  1  0.93304694  0.61121173  0.40309489  1
  N  N413  1  0.92319474  0.94296343  0.39757743  1
  N  N414  1  0.06671426  0.05806025  0.90277420  1
  N  N415  1  0.06540736  0.39002109  0.90646218  1
  N  N416  1  0.07250633  0.72171079  0.89674489  1
  N  N417  1  0.56837407  0.05615322  0.90192432  1
  N  N418  1  0.56185455  0.39046152  0.90368931  1
  N  N419  1  0.56322035  0.72361583  0.90580165  1
  N  N420  1  0.06509342  0.27746463  0.09210002  1
  N  N421  1  0.06070244  0.60638713  0.09403556  1
  N  N422  1  0.05840615  0.94266387  0.09863756  1
  N  N423  1  0.55951146  0.27580277  0.09436841  1
  N  N424  1  0.55613533  0.60831053  0.09199496  1
  N  N425  1  0.55769114  0.94245221  0.09399492  1
  N  N426  1  0.42839040  0.05616220  0.60364700  1
  N  N427  1  0.43393167  0.39018170  0.59759660  1
  N  N428  1  0.43960275  0.72468815  0.59640126  1
  N  N429  1  0.93445579  0.05182482  0.59505632  1
  N  N430  1  0.92526289  0.38704808  0.60649799  1
  N  N431  1  0.93596072  0.72302174  0.60245660  1
  N  N432  1  0.19505965  0.10816965  0.41006863  1
  N  N433  1  0.19196628  0.44303471  0.40767498  1
  N  N434  1  0.18804692  0.77612738  0.40415555  1
  N  N435  1  0.68669163  0.11224379  0.39893454  1
  N  N436  1  0.69208596  0.44248799  0.40166544  1
  N  N437  1  0.68281529  0.77687318  0.40018522  1
  N  N438  1  0.31938850  0.22270255  0.89999087  1
  N  N439  1  0.32223134  0.55368014  0.89970262  1
  N  N440  1  0.31647838  0.88963104  0.90189573  1
  N  N441  1  0.81653337  0.22245355  0.89877246  1
  N  N442  1  0.81810406  0.55406547  0.90403166  1
  N  N443  1  0.82228104  0.88936175  0.89557419  1
  N  N444  1  0.31001312  0.11099856  0.09401619  1
  N  N445  1  0.31521994  0.44323657  0.09190196  1
  N  N446  1  0.30730284  0.77452930  0.09206042  1
  N  N447  1  0.81183917  0.11035461  0.09253924  1
  N  N448  1  0.81512285  0.44254966  0.09652665  1
  N  N449  1  0.80695184  0.77624640  0.09511014  1
  N  N450  1  0.18700890  0.22449269  0.59914185  1
  N  N451  1  0.19744829  0.55746977  0.58757674  1
  N  N452  1  0.19642702  0.88829819  0.59466093  1
  N  N453  1  0.69032978  0.22418118  0.59381543  1
  N  N454  1  0.68753387  0.55441960  0.60197439  1
  N  N455  1  0.70172321  0.89187941  0.58780685  1
  Cl  Cl456  1  0.24347440  0.05390603  0.61731429  1
  Cl  Cl457  1  0.24160772  0.39282101  0.60511872  1
  Cl  Cl458  1  0.25301822  0.72056745  0.61416487  1
  Cl  Cl459  1  0.74711180  0.05816058  0.61484044  1
  Cl  Cl460  1  0.74501944  0.38748329  0.62091359  1
  Cl  Cl461  1  0.75033097  0.72101937  0.61568286  1
  Cl  Cl462  1  0.24852592  0.28316443  0.12078876  1
  Cl  Cl463  1  0.24629076  0.61529687  0.11779729  1
  Cl  Cl464  1  0.24375798  0.94697600  0.11798639  1
  Cl  Cl465  1  0.74531870  0.27965683  0.11641056  1
  Cl  Cl466  1  0.74321265  0.60868468  0.10951300  1
  Cl  Cl467  1  0.74413969  0.94902284  0.11475557  1
  Cl  Cl468  1  0.25238524  0.05903455  0.88835946  1
  Cl  Cl469  1  0.25008219  0.38364146  0.87431847  1
  Cl  Cl470  1  0.25458025  0.72080964  0.88644123  1
  Cl  Cl471  1  0.75312053  0.05853238  0.88693597  1
  Cl  Cl472  1  0.74852048  0.38701276  0.88413675  1
  Cl  Cl473  1  0.76000640  0.72289736  0.88851705  1
  Cl  Cl474  1  0.24535945  0.28354881  0.38668483  1
  Cl  Cl475  1  0.24352450  0.60552843  0.39487276  1
  Cl  Cl476  1  0.23339248  0.94192732  0.38681566  1
  Cl  Cl477  1  0.75046930  0.28053995  0.38024758  1
  Cl  Cl478  1  0.74416943  0.61014467  0.39004123  1
  Cl  Cl479  1  0.73784537  0.94416056  0.38377641  1
  Cl  Cl480  1  0.00004463  0.21798552  0.61361656  1
  Cl  Cl481  1  0.01115095  0.56263876  0.60252152  1
  Cl  Cl482  1  0.01449816  0.89563411  0.60510393  1
  Cl  Cl483  1  0.50457758  0.21749521  0.61693632  1
  Cl  Cl484  1  0.50636594  0.55913852  0.61401249  1
  Cl  Cl485  1  0.51618441  0.89152692  0.60680279  1
  Cl  Cl486  1  -0.00217062  0.11302270  0.12435969  1
  Cl  Cl487  1  -0.00010745  0.44970541  0.12265829  1
  Cl  Cl488  1  -0.00770796  0.77198832  0.10688692  1
  Cl  Cl489  1  0.49836879  0.11098390  0.11371912  1
  Cl  Cl490  1  0.50094843  0.44923471  0.12136333  1
  Cl  Cl491  1  0.49130578  0.78053068  0.11991754  1
  Cl  Cl492  1  0.00228226  0.21910789  0.88137108  1
  Cl  Cl493  1  0.00148195  0.55447220  0.87606772  1
  Cl  Cl494  1  0.00390101  0.88044552  0.87113092  1
  Cl  Cl495  1  0.50366976  0.21617211  0.88191665  1
  Cl  Cl496  1  0.50633517  0.54981896  0.88207066  1
  Cl  Cl497  1  0.50639125  0.89070929  0.88047551  1
  Cl  Cl498  1  0.00676966  0.10611413  0.39743254  1
  Cl  Cl499  1  0.00761020  0.44578915  0.38761349  1
  Cl  Cl500  1  0.00055604  0.78113057  0.37812613  1
  Cl  Cl501  1  0.50463660  0.11073881  0.38270714  1
  Cl  Cl502  1  0.50671415  0.44879288  0.38389632  1
  Cl  Cl503  1  0.49934948  0.78337664  0.38501705  1
  Cl  Cl504  1  0.36081068  0.14387915  0.75053191  1
  Cl  Cl505  1  0.36370479  0.47936237  0.74493036  1
  Cl  Cl506  1  0.35931090  0.81198470  0.74735564  1
  Cl  Cl507  1  0.86373996  0.14376450  0.74982715  1
  Cl  Cl508  1  0.86159830  0.47986968  0.74702646  1
  Cl  Cl509  1  0.86626871  0.81275537  0.74474452  1
  Cl  Cl510  1  0.13924793  0.18585513  0.25189331  1
  Cl  Cl511  1  0.14390975  0.52212022  0.25207406  1
  Cl  Cl512  1  0.13961092  0.85230664  0.24615620  1
  Cl  Cl513  1  0.63833983  0.18594820  0.24764906  1
  Cl  Cl514  1  0.64079306  0.52371953  0.25205446  1
  Cl  Cl515  1  0.63996722  0.85208461  0.24908611  1
  Cl  Cl516  1  0.13712546  0.14577889  0.74849813  1
  Cl  Cl517  1  0.14108521  0.48109902  0.74708120  1
  Cl  Cl518  1  0.14000625  0.81153464  0.75006967  1
  Cl  Cl519  1  0.63834398  0.14520795  0.75152914  1
  Cl  Cl520  1  0.64053882  0.48017545  0.74948173  1
  Cl  Cl521  1  0.64328088  0.81542901  0.74871171  1
  Cl  Cl522  1  0.36061735  0.18746596  0.25314572  1
  Cl  Cl523  1  0.36377986  0.52178265  0.25314846  1
  Cl  Cl524  1  0.36067431  0.85593071  0.25125901  1
  Cl  Cl525  1  0.86138560  0.18764491  0.25271787  1
  Cl  Cl526  1  0.86248838  0.52267746  0.24935064  1
  Cl  Cl527  1  0.86069106  0.85501896  0.25233148  1
  Cl  Cl528  1  0.11146919  0.31336216  0.74692641  1
  Cl  Cl529  1  0.11104209  0.64796389  0.75370733  1
  Cl  Cl530  1  0.11161652  0.97916168  0.74683102  1
  Cl  Cl531  1  0.61108887  0.31184434  0.75178898  1
  Cl  Cl532  1  0.61450835  0.64611269  0.74691276  1
  Cl  Cl533  1  0.60673002  0.97984363  0.74975146  1
  Cl  Cl534  1  0.38436064  0.02156880  0.25196982  1
  Cl  Cl535  1  0.38943283  0.35531672  0.25299348  1
  Cl  Cl536  1  0.38847710  0.68808322  0.25594200  1
  Cl  Cl537  1  0.88569531  0.02089262  0.25898931  1
  Cl  Cl538  1  0.89017661  0.35541568  0.25174324  1
  Cl  Cl539  1  0.89148470  0.68810465  0.24839564  1
  Cl  Cl540  1  0.38776050  0.31137846  0.74623940  1
  Cl  Cl541  1  0.38861063  0.64414795  0.75028129  1
  Cl  Cl542  1  0.38665423  0.97843123  0.74631654  1
  Cl  Cl543  1  0.88810406  0.31219280  0.74718523  1
  Cl  Cl544  1  0.88815206  0.64535480  0.74555725  1
  Cl  Cl545  1  0.88910358  0.97849316  0.74697595  1
  Cl  Cl546  1  0.10779462  0.01926991  0.25028772  1
  Cl  Cl547  1  0.10973296  0.35317444  0.25288217  1
  Cl  Cl548  1  0.11341656  0.68839566  0.25229634  1
  Cl  Cl549  1  0.60760316  0.01954251  0.25186410  1
  Cl  Cl550  1  0.61253535  0.35544810  0.25173799  1
  Cl  Cl551  1  0.60883305  0.68720294  0.25039070  1
