# generated using pymatgen
data_H8PbC4(N3Cl2)2
_symmetry_space_group_name_H-M   'P 1'
_cell_length_a   16.62176549
_cell_length_b   22.49903142
_cell_length_c   21.58821651
_cell_angle_alpha   89.99880906
_cell_angle_beta   90.01290560
_cell_angle_gamma   89.99986885
_symmetry_Int_Tables_number   1
_chemical_formula_structural   H8PbC4(N3Cl2)2
_chemical_formula_sum   'H192 Pb24 C96 N144 Cl96'
_cell_volume   8073.42335865
_cell_formula_units_Z   24
loop_
 _symmetry_equiv_pos_site_id
 _symmetry_equiv_pos_as_xyz
  1  'x, y, z'
loop_
 _atom_site_type_symbol
 _atom_site_label
 _atom_site_symmetry_multiplicity
 _atom_site_fract_x
 _atom_site_fract_y
 _atom_site_fract_z
 _atom_site_occupancy
  H  H0  1  -0.00027305  0.03389793  0.68169796  1
  H  H1  1  -0.00332262  0.36515848  0.68016878  1
  H  H2  1  -0.00154987  0.69982783  0.68169784  1
  H  H3  1  0.50390017  0.03261351  0.67907848  1
  H  H4  1  0.50407345  0.36659616  0.67926689  1
  H  H5  1  0.50321248  0.69837438  0.68074027  1
  H  H6  1  -0.00799732  0.29973325  0.18200368  1
  H  H7  1  0.00507821  0.63366720  0.18059109  1
  H  H8  1  0.00310069  0.96742085  0.18072446  1
  H  H9  1  0.50286104  0.30028315  0.18432934  1
  H  H10  1  0.49662558  0.63368596  0.18019768  1
  H  H11  1  0.49915331  0.96742964  0.17887760  1
  H  H12  1  0.00206118  0.03205675  0.81818814  1
  H  H13  1  0.00090163  0.36626752  0.81787831  1
  H  H14  1  -0.00611002  0.69910784  0.81763660  1
  H  H15  1  0.49990491  0.03245825  0.81649204  1
  H  H16  1  0.49708049  0.36672519  0.81811639  1
  H  H17  1  0.49871502  0.69831537  0.82039699  1
  H  H18  1  -0.00514095  0.30004220  0.32210797  1
  H  H19  1  0.00254833  0.63552396  0.31913395  1
  H  H20  1  -0.00337514  0.96657629  0.31785301  1
  H  H21  1  0.49832843  0.30120741  0.32047765  1
  H  H22  1  0.49611681  0.63300247  0.31939373  1
  H  H23  1  0.49543686  0.96661830  0.31880397  1
  H  H24  1  0.25626223  0.20025689  0.68004269  1
  H  H25  1  0.24655819  0.53272597  0.68216361  1
  H  H26  1  0.24932895  0.86486980  0.67954322  1
  H  H27  1  0.74617047  0.19872252  0.67949736  1
  H  H28  1  0.74443080  0.53281905  0.68050945  1
  H  H29  1  0.75378247  0.86543032  0.68094225  1
  H  H30  1  0.25305381  0.13444568  0.18284836  1
  H  H31  1  0.25656783  0.46789940  0.18335054  1
  H  H32  1  0.25123346  0.79940199  0.18126784  1
  H  H33  1  0.75044182  0.13415630  0.18315006  1
  H  H34  1  0.75076716  0.46820214  0.17981265  1
  H  H35  1  0.75253178  0.80047023  0.18162274  1
  H  H36  1  0.25530423  0.19978568  0.81709636  1
  H  H37  1  0.24976452  0.53396456  0.81869192  1
  H  H38  1  0.24372022  0.86572422  0.81801591  1
  H  H39  1  0.74640177  0.19925413  0.81693314  1
  H  H40  1  0.75113172  0.53205109  0.81975440  1
  H  H41  1  0.75640506  0.86620064  0.81834412  1
  H  H42  1  0.24703262  0.13293762  0.31949670  1
  H  H43  1  0.24910019  0.46770784  0.31795734  1
  H  H44  1  0.24603241  0.80141034  0.31944730  1
  H  H45  1  0.74790325  0.13571936  0.31974760  1
  H  H46  1  0.75375428  0.46773389  0.31957144  1
  H  H47  1  0.74576459  0.79992388  0.31968539  1
  H  H48  1  0.11800387  0.05360032  0.60736536  1
  H  H49  1  0.12928104  0.38285472  0.61652869  1
  H  H50  1  0.12305328  0.72176782  0.60908501  1
  H  H51  1  0.61467122  0.05822175  0.59784821  1
  H  H52  1  0.62427299  0.38877953  0.60479557  1
  H  H53  1  0.61969725  0.72258933  0.60283392  1
  H  H54  1  0.37628573  0.28052176  0.11685577  1
  H  H55  1  0.37248245  0.61386290  0.10844865  1
  H  H56  1  0.37452590  0.94679798  0.10796833  1
  H  H57  1  0.88319096  0.27815405  0.10024858  1
  H  H58  1  0.86976256  0.61381100  0.11955950  1
  H  H59  1  0.87261287  0.94713945  0.11501912  1
  H  H60  1  0.37607513  0.05470441  0.88954905  1
  H  H61  1  0.38037695  0.38916078  0.89415692  1
  H  H62  1  0.37972434  0.72063986  0.89760231  1
  H  H63  1  0.87810904  0.05337306  0.89014903  1
  H  H64  1  0.87632501  0.38780905  0.88986172  1
  H  H65  1  0.87941428  0.72331231  0.89741719  1
  H  H66  1  0.12880613  0.28044105  0.38398122  1
  H  H67  1  0.12091580  0.61159693  0.39538904  1
  H  H68  1  0.12889539  0.94683337  0.38386727  1
  H  H69  1  0.62907023  0.28085042  0.38486538  1
  H  H70  1  0.62325481  0.61353254  0.38948899  1
  H  H71  1  0.62582972  0.94650403  0.38565292  1
  H  H72  1  0.36491916  0.22390938  0.59876359  1
  H  H73  1  0.37868646  0.55201101  0.61617281  1
  H  H74  1  0.37361651  0.88762378  0.60920948  1
  H  H75  1  0.87164464  0.21995244  0.60850695  1
  H  H76  1  0.87615674  0.55329953  0.61532054  1
  H  H77  1  0.87161047  0.89034131  0.60451217  1
  H  H78  1  0.12462901  0.11377047  0.11413498  1
  H  H79  1  0.12230154  0.44733449  0.11998697  1
  H  H80  1  0.12611213  0.77995532  0.11269996  1
  H  H81  1  0.62486839  0.11331149  0.11473366  1
  H  H82  1  0.62151937  0.44758065  0.11328510  1
  H  H83  1  0.62012890  0.78144057  0.12007510  1
  H  H84  1  0.12041805  0.21762721  0.87532333  1
  H  H85  1  0.13213649  0.55483039  0.89330352  1
  H  H86  1  0.13102975  0.88913468  0.89796121  1
  H  H87  1  0.62522913  0.22090280  0.89006151  1
  H  H88  1  0.63087983  0.55578744  0.89461524  1
  H  H89  1  0.62639920  0.88647711  0.88644618  1
  H  H90  1  0.38147936  0.11398369  0.38200631  1
  H  H91  1  0.37188455  0.44565771  0.39194481  1
  H  H92  1  0.37640510  0.78067068  0.38628247  1
  H  H93  1  0.87953889  0.11498057  0.38491752  1
  H  H94  1  0.86916727  0.44257983  0.39908065  1
  H  H95  1  0.87886414  0.78022993  0.38178324  1
  H  H96  1  0.38003721  0.27749545  0.39685530  1
  H  H97  1  0.37419643  0.61177629  0.39262094  1
  H  H98  1  0.37723018  0.94374670  0.39439784  1
  H  H99  1  0.88129667  0.27539652  0.40023067  1
  H  H100  1  0.87164353  0.61557818  0.38333905  1
  H  H101  1  0.87986120  0.94464766  0.39575959  1
  H  H102  1  0.12653694  0.05452206  0.89040766  1
  H  H103  1  0.12577342  0.38744986  0.88929484  1
  H  H104  1  0.12717295  0.71817138  0.88187502  1
  H  H105  1  0.62446958  0.05422542  0.88929325  1
  H  H106  1  0.62935063  0.38540196  0.87991152  1
  H  H107  1  0.62830353  0.71992156  0.88607063  1
  H  H108  1  0.13060023  0.28235202  0.12594513  1
  H  H109  1  0.11829066  0.61148377  0.10166704  1
  H  H110  1  0.12067392  0.94330307  0.10277515  1
  H  H111  1  0.62616268  0.27996519  0.11308086  1
  H  H112  1  0.62184173  0.61344886  0.11239236  1
  H  H113  1  0.62266612  0.94333742  0.10867556  1
  H  H114  1  0.36720725  0.05085410  0.62088969  1
  H  H115  1  0.37539782  0.38683058  0.61196605  1
  H  H116  1  0.37064711  0.71855602  0.61804594  1
  H  H117  1  0.86902046  0.05359488  0.61676260  1
  H  H118  1  0.88170347  0.39089363  0.60238610  1
  H  H119  1  0.87430638  0.72092320  0.60779724  1
  H  H120  1  0.13300206  0.11183507  0.39833501  1
  H  H121  1  0.12357163  0.44440312  0.38986060  1
  H  H122  1  0.12785909  0.77827458  0.39501403  1
  H  H123  1  0.63148162  0.11115209  0.39845896  1
  H  H124  1  0.62141092  0.44787314  0.38409641  1
  H  H125  1  0.63029699  0.77636228  0.39859673  1
  H  H126  1  0.36797303  0.22199446  0.89625089  1
  H  H127  1  0.38119765  0.55317110  0.88305927  1
  H  H128  1  0.37876588  0.88402376  0.88038088  1
  H  H129  1  0.87541517  0.22018020  0.88511013  1
  H  H130  1  0.87940870  0.55302345  0.88631174  1
  H  H131  1  0.87431427  0.88941658  0.89663227  1
  H  H132  1  0.37360656  0.11180274  0.10917500  1
  H  H133  1  0.37074242  0.44620894  0.10429804  1
  H  H134  1  0.37529787  0.77916354  0.11059372  1
  H  H135  1  0.87441504  0.11313870  0.11299348  1
  H  H136  1  0.87016989  0.44389346  0.10447350  1
  H  H137  1  0.86926313  0.77919564  0.10497333  1
  H  H138  1  0.11788374  0.21704476  0.62435208  1
  H  H139  1  0.12965208  0.55545549  0.60498375  1
  H  H140  1  0.12467387  0.88782243  0.60842116  1
  H  H141  1  0.62264155  0.22254801  0.60842454  1
  H  H142  1  0.62756360  0.55502461  0.60341556  1
  H  H143  1  0.62218224  0.88574082  0.61769194  1
  H  H144  1  0.31957707  0.08514563  0.00029474  1
  H  H145  1  0.57931242  0.58480361  -0.00010078  1
  H  H146  1  0.30464581  0.24543566  1.00553465  1
  H  H147  1  0.19517411  0.08441144  0.50664885  1
  H  H148  1  0.06354197  0.07963933  0.49570360  1
  H  H149  1  0.80221161  0.41761963  0.50149156  1
  H  H150  1  0.81154873  0.75397045  -0.00495342  1
  H  H151  1  0.82985370  0.08398694  0.00264298  1
  H  H152  1  0.44121879  0.25158189  0.50157135  1
  H  H153  1  0.89884815  0.58552616  0.01169373  1
  H  H154  1  0.94679273  0.40419670  0.49813882  1
  H  H155  1  0.95191639  0.25314136  -0.00808529  1
  H  H156  1  0.41860866  0.41727153  0.50598770  1
  H  H157  1  0.64903947  0.75255127  0.00665371  1
  H  H158  1  0.94170751  0.91969596  0.50380103  1
  H  H159  1  0.29841046  0.25088912  0.49218504  1
  H  H160  1  0.07528677  0.08342807  0.99418582  1
  H  H161  1  0.40328169  0.74869550  0.50658617  1
  H  H162  1  0.43700802  0.41628071  1.00354883  1
  H  H163  1  0.05638833  0.91799250  -0.00051229  1
  H  H164  1  0.05546766  0.58541558  -0.00688597  1
  H  H165  1  0.09447521  0.41926216  0.51311111  1
  H  H166  1  0.57650891  0.25827428  -0.00047984  1
  H  H167  1  0.19163874  0.58226608  0.49679283  1
  H  H168  1  0.07708722  0.41364245  0.99866367  1
  H  H169  1  0.60010360  0.41446505  0.99321057  1
  H  H170  1  0.14240628  0.24681646  0.98962689  1
  H  H171  1  0.55768402  0.74234432  0.49787773  1
  H  H172  1  0.19659070  0.91428247  1.00469890  1
  H  H173  1  0.18774301  0.58121539  1.00482399  1
  H  H174  1  0.30701788  0.42152661  -0.00338569  1
  H  H175  1  0.06204438  0.59300937  0.50095457  1
  H  H176  1  0.90639445  0.58723200  0.49517404  1
  H  H177  1  0.66653014  0.08465947  0.00359303  1
  H  H178  1  0.69675760  0.08680070  0.50138782  1
  H  H179  1  0.35165035  0.08515937  0.49020263  1
  H  H180  1  0.54583498  0.08370647  0.49579682  1
  H  H181  1  0.83122794  0.24471123  0.99227321  1
  H  H182  1  0.57248896  0.92450212  0.00295813  1
  H  H183  1  0.69526840  0.74809148  0.50139702  1
  H  H184  1  0.41896750  0.25634717  0.00272065  1
  H  H185  1  0.09973674  0.25063366  0.49287080  1
  H  H186  1  0.16904862  0.75105788  0.00057986  1
  H  H187  1  0.42048738  0.91174109  0.00717529  1
  H  H188  1  0.65628847  0.91515395  0.50575666  1
  H  H189  1  0.94697847  0.75031139  0.99969080  1
  H  H190  1  0.81190820  0.91318719  0.49970869  1
  H  H191  1  0.68025057  0.24177303  1.00295782  1
  Pb  Pb192  1  0.24812576  0.04795368  0.74930969  1
  Pb  Pb193  1  0.25043593  0.38060891  0.75287136  1
  Pb  Pb194  1  0.25170269  0.71275404  0.75133946  1
  Pb  Pb195  1  0.74672057  0.04671332  0.74882400  1
  Pb  Pb196  1  0.75064509  0.38262385  0.74328947  1
  Pb  Pb197  1  0.75060856  0.71512437  0.74773728  1
  Pb  Pb198  1  0.25330029  0.28629709  0.25283661  1
  Pb  Pb199  1  0.24724011  0.62064827  0.25085007  1
  Pb  Pb200  1  0.24832581  0.95134170  0.24681849  1
  Pb  Pb201  1  0.75129896  0.28646550  0.24501566  1
  Pb  Pb202  1  0.74809629  0.62066336  0.25100102  1
  Pb  Pb203  1  0.75183485  0.95066971  0.25570782  1
  Pb  Pb204  1  -0.00457137  0.21416874  0.74727132  1
  Pb  Pb205  1  0.00201213  0.54831663  0.74967484  1
  Pb  Pb206  1  0.00295519  0.88157712  0.75213334  1
  Pb  Pb207  1  0.49902526  0.21582393  0.74790762  1
  Pb  Pb208  1  0.50230462  0.54716327  0.74942917  1
  Pb  Pb209  1  0.49813960  0.87950897  0.75423716  1
  Pb  Pb210  1  0.00164828  0.11917380  0.24936800  1
  Pb  Pb211  1  -0.00207240  0.45241045  0.25376329  1
  Pb  Pb212  1  -0.00049109  0.78552016  0.24526165  1
  Pb  Pb213  1  0.50219805  0.11718241  0.25266147  1
  Pb  Pb214  1  0.49905082  0.45480723  0.25089625  1
  Pb  Pb215  1  0.49885001  0.78595104  0.25832891  1
  C  C216  1  -0.00420346  0.04711142  0.63360377  1
  C  C217  1  0.00272219  0.37964041  0.63233658  1
  C  C218  1  -0.00157091  0.71395710  0.63366480  1
  C  C219  1  0.49549682  0.04712303  0.63160081  1
  C  C220  1  0.50092864  0.38083916  0.63146104  1
  C  C221  1  0.49808347  0.71268988  0.63280579  1
  C  C222  1  0.00170180  0.28664821  0.13423695  1
  C  C223  1  -0.00288554  0.61910473  0.13291126  1
  C  C224  1  -0.00077554  0.95284781  0.13297159  1
  C  C225  1  0.50183254  0.28614045  0.13623390  1
  C  C226  1  0.49745454  0.61991885  0.13216142  1
  C  C227  1  0.49868478  0.95269025  0.13100520  1
  C  C228  1  0.00259840  0.04676922  0.86600904  1
  C  C229  1  0.00101273  0.38086769  0.86572170  1
  C  C230  1  -0.00013051  0.71387407  0.86523373  1
  C  C231  1  0.50009224  0.04676397  0.86445941  1
  C  C232  1  0.50256915  0.38078056  0.86608857  1
  C  C233  1  0.50201072  0.71306588  0.86798281  1
  C  C234  1  0.00222939  0.28563198  0.36965256  1
  C  C235  1  -0.00144943  0.62048518  0.36688587  1
  C  C236  1  0.00198364  0.95257678  0.36576383  1
  C  C237  1  0.50217425  0.28678704  0.36818566  1
  C  C238  1  0.49807205  0.61919051  0.36730414  1
  C  C239  1  0.49994243  0.95245796  0.36650031  1
  C  C240  1  0.24646412  0.21383358  0.63246765  1
  C  C241  1  0.25188417  0.54698507  0.63438717  1
  C  C242  1  0.24895888  0.87999643  0.63206880  1
  C  C243  1  0.74702664  0.21362819  0.63193524  1
  C  C244  1  0.74975175  0.54714312  0.63293212  1
  C  C245  1  0.74945066  0.88017826  0.63305070  1
  C  C246  1  0.25016757  0.11980891  0.13502462  1
  C  C247  1  0.24958137  0.45344726  0.13568910  1
  C  C248  1  0.25036719  0.78588454  0.13314984  1
  C  C249  1  0.74985960  0.12005875  0.13502659  1
  C  C250  1  0.74769937  0.45314908  0.13234771  1
  C  C251  1  0.74700417  0.78647561  0.13364931  1
  C  C252  1  0.24748849  0.21359877  0.86491645  1
  C  C253  1  0.25408720  0.54729233  0.86676747  1
  C  C254  1  0.25160408  0.87984444  0.86570271  1
  C  C255  1  0.74944317  0.21377071  0.86490714  1
  C  C256  1  0.75372284  0.54679409  0.86732756  1
  C  C257  1  0.75245072  0.88043915  0.86627105  1
  C  C258  1  0.25460745  0.11882167  0.36734601  1
  C  C259  1  0.24792635  0.45306387  0.36581039  1
  C  C260  1  0.25051174  0.78689775  0.36700877  1
  C  C261  1  0.75273181  0.12057838  0.36729697  1
  C  C262  1  0.74843335  0.45330922  0.36730252  1
  C  C263  1  0.75134522  0.78594557  0.36737601  1
  C  C264  1  0.47220809  0.40581608  0.96250500  1
  C  C265  1  0.45822327  0.26397178  0.04223017  1
  C  C266  1  0.70371454  0.42644177  0.04085002  1
  C  C267  1  0.53870209  0.59485451  0.03789451  1
  C  C268  1  0.97484057  0.92889721  0.46142002  1
  C  C269  1  0.78982736  0.09481569  0.04082325  1
  C  C270  1  0.77703091  0.76239812  0.03693625  1
  C  C271  1  0.94643561  0.07016117  0.54206407  1
  C  C272  1  0.72066604  0.57500310  0.53848393  1
  C  C273  1  0.28626760  0.90801513  0.53975032  1
  C  C274  1  0.18546283  0.23712657  0.54492918  1
  C  C275  1  0.55286697  0.26007247  0.45930743  1
  C  C276  1  0.02386820  0.59388268  0.03642744  1
  C  C277  1  0.27253874  0.23736589  0.96244252  1
  C  C278  1  0.29094438  0.76121789  0.03938490  1
  C  C279  1  0.54006990  0.26423016  0.04087401  1
  C  C280  1  0.22459289  0.57231359  0.53909082  1
  C  C281  1  0.55409874  0.40476930  0.95741764  1
  C  C282  1  0.43709304  0.07145843  0.54296324  1
  C  C283  1  0.53799094  0.40801152  0.53658669  1
  C  C284  1  0.30445044  0.57069264  0.95814773  1
  C  C285  1  0.21993383  0.75908225  0.46123257  1
  C  C286  1  0.45712134  0.59548555  0.03813700  1
  C  C287  1  0.69498618  0.76251157  0.04237685  1
  C  C288  1  0.97398356  0.25647981  0.46566508  1
  C  C289  1  0.26598247  0.23988086  0.53446083  1
  C  C290  1  0.71056911  0.24206800  0.53940770  1
  C  C291  1  0.06249966  0.26354667  0.04668362  1
  C  C292  1  0.27441516  0.42996859  0.03955637  1
  C  C293  1  0.03786117  0.40444300  0.95942722  1
  C  C294  1  0.19118015  0.23680406  0.95483149  1
  C  C295  1  0.44668598  0.73919389  0.54303435  1
  C  C296  1  0.70760981  0.09497166  0.04131545  1
  C  C297  1  0.71311132  0.23780840  0.95968457  1
  C  C298  1  0.22868459  0.90441580  0.96188994  1
  C  C299  1  0.46907708  0.92545162  0.46100196  1
  C  C300  1  0.28257698  0.09487675  0.04063766  1
  C  C301  1  0.22311598  0.57144154  0.96363010  1
  C  C302  1  0.22698722  0.09396947  0.46369892  1
  C  C303  1  0.80529990  0.75932120  0.45753434  1
  C  C304  1  0.98216319  0.26219345  0.03565953  1
  C  C305  1  0.54700591  0.73980770  0.95938655  1
  C  C306  1  0.94904857  0.59542664  0.45786115  1
  C  C307  1  0.69915443  0.90617820  0.54273091  1
  C  C308  1  0.02764249  0.07058732  0.53679489  1
  C  C309  1  0.79740163  0.57270322  0.95931192  1
  C  C310  1  0.20940202  0.76120205  0.03865392  1
  C  C311  1  0.46355450  0.59240659  0.46072646  1
  N  N312  1  0.30604247  0.09466217  0.45666857  1
  N  N313  1  0.03696272  0.73857520  0.53949672  1
  N  N314  1  0.79234800  0.23938552  0.95610893  1
  N  N315  1  0.28509936  0.42800285  0.46036650  1
  N  N316  1  0.30363963  0.57182145  0.54299457  1
  N  N317  1  0.97620189  0.73857765  0.95969031  1
  N  N318  1  0.46204645  0.07218668  0.95867323  1
  N  N319  1  0.94472271  0.59433115  0.04407596  1
  N  N320  1  0.78346235  0.90514920  0.96221756  1
  N  N321  1  0.30765845  0.90281602  0.95623726  1
  N  N322  1  0.51556507  0.07408596  0.53611613  1
  N  N323  1  0.77288892  0.42591218  0.46068778  1
  N  N324  1  0.72699261  0.09387363  0.46071660  1
  N  N325  1  0.03838056  0.07045414  0.95845747  1
  N  N326  1  0.72663800  0.75894727  0.46211600  1
  N  N327  1  0.20895016  0.90833943  0.53822510  1
  N  N328  1  0.78798373  0.24105854  0.53798123  1
  N  N329  1  0.69518932  0.42743390  0.45695162  1
  N  N330  1  0.02872780  0.59294271  0.46097596  1
  N  N331  1  0.54666398  0.92691687  0.45964165  1
  N  N332  1  0.05393198  0.73682966  0.95525511  1
  N  N333  1  0.20801341  0.42811365  0.45981629  1
  N  N334  1  0.80479400  0.09527689  0.45755637  1
  N  N335  1  0.71963004  0.57435609  0.96307373  1
  N  N336  1  0.78115681  0.42472769  0.03680117  1
  N  N337  1  0.05237678  0.25951591  0.45898428  1
  N  N338  1  0.02594915  0.92785494  0.03932132  1
  N  N339  1  0.52619659  0.74109028  0.53878463  1
  N  N340  1  0.47392099  0.25951329  0.46219039  1
  N  N341  1  0.95995210  0.07089387  0.95966133  1
  N  N342  1  0.20307172  0.09525288  0.04193978  1
  N  N343  1  0.97481840  0.41139619  0.53989702  1
  N  N344  1  0.45905431  0.93250887  0.03769043  1
  N  N345  1  0.94803015  0.92912741  0.04192247  1
  N  N346  1  0.96073122  0.73858183  0.53923419  1
  N  N347  1  0.29738082  0.75978191  0.45939596  1
  N  N348  1  0.77873071  0.90862924  0.53947710  1
  N  N349  1  0.70682954  0.90453275  0.95886862  1
  N  N350  1  0.05312403  0.39965377  0.54221319  1
  N  N351  1  0.53714148  0.91929109  0.04154083  1
  N  N352  1  0.45910712  0.40691955  0.53987202  1
  N  N353  1  0.05383233  0.92936695  0.45749694  1
  N  N354  1  0.46962248  0.74016164  0.96418339  1
  N  N355  1  0.95860662  0.40503013  0.96009771  1
  N  N356  1  0.53898140  0.07163850  0.95860585  1
  N  N357  1  0.54091707  0.59317894  0.46120271  1
  N  N358  1  0.19542450  0.42989901  0.04493962  1
  N  N359  1  0.79821751  0.57415664  0.54092892  1
  N  N360  1  0.05747323  0.05624174  0.59522411  1
  N  N361  1  0.07043483  0.38972668  0.60197856  1
  N  N362  1  0.06192806  0.72376556  0.59805089  1
  N  N363  1  0.55237071  0.05830399  0.59071341  1
  N  N364  1  0.56423788  0.39169105  0.59300505  1
  N  N365  1  0.55780472  0.72135741  0.59337713  1
  N  N366  1  0.43574795  0.27746352  0.10173505  1
  N  N367  1  0.43242587  0.61058961  0.09511898  1
  N  N368  1  0.43461473  0.94201555  0.09637409  1
  N  N369  1  0.94491818  0.27682354  0.09182118  1
  N  N370  1  0.92876723  0.60961509  0.10353473  1
  N  N371  1  0.93188328  0.94424507  0.10067672  1
  N  N372  1  0.43695407  0.05691311  0.90040695  1
  N  N373  1  0.44140566  0.39086097  0.90523863  1
  N  N374  1  0.44138917  0.72307337  0.90606074  1
  N  N375  1  0.93854870  0.05548645  0.90195960  1
  N  N376  1  0.93741450  0.39059647  0.90135065  1
  N  N377  1  0.94143229  0.72506666  0.90510348  1
  N  N378  1  0.07025291  0.27763658  0.39993869  1
  N  N379  1  0.05913020  0.61128870  0.40537111  1
  N  N380  1  0.06896223  0.94384708  0.39785858  1
  N  N381  1  0.57051819  0.27653601  0.40102769  1
  N  N382  1  0.56265711  0.60970213  0.40152603  1
  N  N383  1  0.56607406  0.94399882  0.39918960  1
  N  N384  1  0.30309916  0.22499455  0.59042164  1
  N  N385  1  0.31878464  0.55619361  0.60240295  1
  N  N386  1  0.31373428  0.89112368  0.59627841  1
  N  N387  1  0.81081063  0.22302909  0.59693564  1
  N  N388  1  0.81653158  0.55666511  0.60137764  1
  N  N389  1  0.80979789  0.89012167  0.59451367  1
  N  N390  1  0.18497870  0.11076124  0.10121975  1
  N  N391  1  0.18182906  0.44442707  0.10499659  1
  N  N392  1  0.18526855  0.77678261  0.09824084  1
  N  N393  1  0.68432445  0.11066726  0.10018670  1
  N  N394  1  0.68060838  0.44349376  0.09878174  1
  N  N395  1  0.67825154  0.77733520  0.10278425  1
  N  N396  1  0.17746149  0.22200710  0.89406425  1
  N  N397  1  0.19263322  0.55662471  0.90539377  1
  N  N398  1  0.19288018  0.89065576  0.90669873  1
  N  N399  1  0.68568625  0.22305335  0.90274503  1
  N  N400  1  0.69249125  0.55778445  0.90437524  1
  N  N401  1  0.68659673  0.88918211  0.89944677  1
  N  N402  1  0.32269258  0.10952731  0.39726702  1
  N  N403  1  0.31066531  0.44347574  0.40242444  1
  N  N404  1  0.31664180  0.77749527  0.39933723  1
  N  N405  1  0.82031747  0.11071848  0.39880636  1
  N  N406  1  0.80738883  0.44283555  0.40704376  1
  N  N407  1  0.82085504  0.77609062  0.39897200  1
  N  N408  1  0.44155616  0.27686819  0.40645570  1
  N  N409  1  0.43431615  0.60839014  0.40442172  1
  N  N410  1  0.43813468  0.94093344  0.40530322  1
  N  N411  1  0.94237508  0.27303469  0.41056892  1
  N  N412  1  0.93041334  0.61041269  0.39907220  1
  N  N413  1  0.94126313  0.94293416  0.40543518  1
  N  N414  1  0.06574619  0.05719773  0.90156217  1
  N  N415  1  0.06556426  0.38994058  0.90170533  1
  N  N416  1  0.06792606  0.72182000  0.89645622  1
  N  N417  1  0.56359065  0.05596165  0.90037050  1
  N  N418  1  0.57121194  0.38928868  0.89719143  1
  N  N419  1  0.56940835  0.72350879  0.90098479  1
  N  N420  1  0.07389616  0.27816851  0.10625256  1
  N  N421  1  0.05680762  0.60903956  0.09161660  1
  N  N422  1  0.05905723  0.94244381  0.09421707  1
  N  N423  1  0.56620725  0.27773835  0.09976709  1
  N  N424  1  0.56255733  0.61013998  0.09754592  1
  N  N425  1  0.56240584  0.94373838  0.09547055  1
  N  N426  1  0.42432144  0.05543378  0.60236563  1
  N  N427  1  0.43535118  0.39026905  0.59848485  1
  N  N428  1  0.42919742  0.72317540  0.60169613  1
  N  N429  1  0.92752446  0.05628139  0.60049450  1
  N  N430  1  0.94325933  0.38846894  0.59261851  1
  N  N431  1  0.93522618  0.72318889  0.59749534  1
  N  N432  1  0.19448948  0.10897365  0.40830407  1
  N  N433  1  0.18408460  0.44328397  0.40107396  1
  N  N434  1  0.18865520  0.77538207  0.40583528  1
  N  N435  1  0.69338618  0.11049605  0.40669564  1
  N  N436  1  0.68047849  0.44382718  0.39840053  1
  N  N437  1  0.69215113  0.77590567  0.40687558  1
  N  N438  1  0.30665849  0.22318120  0.90598842  1
  N  N439  1  0.32262489  0.55630077  0.89965919  1
  N  N440  1  0.31993031  0.88770215  0.89599267  1
  N  N441  1  0.81482266  0.22324034  0.89815676  1
  N  N442  1  0.82035304  0.55627641  0.90109356  1
  N  N443  1  0.81292096  0.89041081  0.90501961  1
  N  N444  1  0.31283140  0.10961587  0.09737471  1
  N  N445  1  0.30918783  0.44397191  0.09498752  1
  N  N446  1  0.31541132  0.77598799  0.09632067  1
  N  N447  1  0.81454095  0.11050951  0.09934131  1
  N  N448  1  0.80869266  0.44165366  0.09513901  1
  N  N449  1  0.80806951  0.77713468  0.09418999  1
  N  N450  1  0.17438233  0.22145020  0.60439675  1
  N  N451  1  0.19106358  0.55735054  0.59491126  1
  N  N452  1  0.18537494  0.89045692  0.59699158  1
  N  N453  1  0.68253145  0.22548471  0.59595726  1
  N  N454  1  0.68858370  0.55866515  0.59344401  1
  N  N455  1  0.68084643  0.88986395  0.60120216  1
  Cl  Cl456  1  0.24295242  0.05480188  0.61384582  1
  Cl  Cl457  1  0.25221051  0.38347125  0.62049765  1
  Cl  Cl458  1  0.24581635  0.71882843  0.61979209  1
  Cl  Cl459  1  0.73670941  0.05657052  0.60872699  1
  Cl  Cl460  1  0.75907119  0.39135243  0.60583836  1
  Cl  Cl461  1  0.74297157  0.72418108  0.60586597  1
  Cl  Cl462  1  0.25563084  0.28115972  0.12141472  1
  Cl  Cl463  1  0.24362525  0.61426880  0.11784853  1
  Cl  Cl464  1  0.24559973  0.94420718  0.11004706  1
  Cl  Cl465  1  0.75525747  0.27653137  0.10850289  1
  Cl  Cl466  1  0.74808656  0.61481119  0.12066569  1
  Cl  Cl467  1  0.74552437  0.94697144  0.12454989  1
  Cl  Cl468  1  0.25064061  0.05358024  0.88315347  1
  Cl  Cl469  1  0.25460092  0.38907046  0.88606790  1
  Cl  Cl470  1  0.25246283  0.71837764  0.88509168  1
  Cl  Cl471  1  0.75019279  0.05609506  0.88302942  1
  Cl  Cl472  1  0.75381507  0.38176181  0.87392260  1
  Cl  Cl473  1  0.75726034  0.72008322  0.88204645  1
  Cl  Cl474  1  0.25658576  0.27783074  0.38771219  1
  Cl  Cl475  1  0.24366231  0.61373198  0.38634099  1
  Cl  Cl476  1  0.25397851  0.95019871  0.37768217  1
  Cl  Cl477  1  0.75492636  0.28217692  0.37668920  1
  Cl  Cl478  1  0.74713870  0.61853588  0.38327470  1
  Cl  Cl479  1  0.75551257  0.94192662  0.39464969  1
  Cl  Cl480  1  -0.00575190  0.22121115  0.61500795  1
  Cl  Cl481  1  0.00535212  0.55515844  0.60908603  1
  Cl  Cl482  1  -0.00561533  0.89020460  0.61754967  1
  Cl  Cl483  1  0.49157202  0.22234645  0.60798304  1
  Cl  Cl484  1  0.50371943  0.54835600  0.61844392  1
  Cl  Cl485  1  0.49782191  0.88387924  0.62356313  1
  Cl  Cl486  1  0.00122328  0.11294592  0.11594442  1
  Cl  Cl487  1  -0.00319985  0.44849295  0.12136427  1
  Cl  Cl488  1  -0.00713265  0.77730220  0.10797405  1
  Cl  Cl489  1  0.49775351  0.11377859  0.12505478  1
  Cl  Cl490  1  0.49501439  0.44709241  0.11804880  1
  Cl  Cl491  1  0.49696855  0.78522816  0.12820819  1
  Cl  Cl492  1  -0.00574763  0.21799359  0.88178314  1
  Cl  Cl493  1  0.00509418  0.55702030  0.88515032  1
  Cl  Cl494  1  0.00605424  0.88942142  0.89150149  1
  Cl  Cl495  1  0.49726374  0.22227308  0.88160059  1
  Cl  Cl496  1  0.50721966  0.55383940  0.88222061  1
  Cl  Cl497  1  0.50416845  0.88918747  0.89178256  1
  Cl  Cl498  1  0.00828198  0.11633147  0.38339647  1
  Cl  Cl499  1  -0.00604715  0.44012237  0.39756697  1
  Cl  Cl500  1  0.00312350  0.78186392  0.37437264  1
  Cl  Cl501  1  0.51010829  0.11102896  0.39647221  1
  Cl  Cl502  1  0.49443245  0.44486705  0.38707189  1
  Cl  Cl503  1  0.50715111  0.77515482  0.39662948  1
  Cl  Cl504  1  0.36086745  0.14304543  0.74928354  1
  Cl  Cl505  1  0.36390421  0.47631559  0.75038145  1
  Cl  Cl506  1  0.36367529  0.81016338  0.75172342  1
  Cl  Cl507  1  0.86259074  0.14368841  0.74922878  1
  Cl  Cl508  1  0.86384011  0.47615120  0.74715719  1
  Cl  Cl509  1  0.85848665  0.80900420  0.74980156  1
  Cl  Cl510  1  0.13870184  0.19018514  0.24888254  1
  Cl  Cl511  1  0.13505460  0.52331776  0.25092084  1
  Cl  Cl512  1  0.13805393  0.85784225  0.24882936  1
  Cl  Cl513  1  0.63769742  0.19083908  0.24912074  1
  Cl  Cl514  1  0.63789037  0.52232818  0.25212522  1
  Cl  Cl515  1  0.63714790  0.85788206  0.25089834  1
  Cl  Cl516  1  0.13693279  0.14302520  0.74989359  1
  Cl  Cl517  1  0.13743144  0.47623250  0.74872702  1
  Cl  Cl518  1  0.13678674  0.81075962  0.75110578  1
  Cl  Cl519  1  0.63738893  0.14353536  0.75002745  1
  Cl  Cl520  1  0.63864779  0.47486257  0.75102015  1
  Cl  Cl521  1  0.63802543  0.80917258  0.74900158  1
  Cl  Cl522  1  0.36303794  0.19033235  0.25409133  1
  Cl  Cl523  1  0.36144256  0.52287900  0.25024507  1
  Cl  Cl524  1  0.36416179  0.85680870  0.25077589  1
  Cl  Cl525  1  0.86275763  0.18913119  0.25071811  1
  Cl  Cl526  1  0.86407425  0.52368671  0.25043255  1
  Cl  Cl527  1  0.86112079  0.85740749  0.25142413  1
  Cl  Cl528  1  0.11331821  0.30952665  0.74721587  1
  Cl  Cl529  1  0.11154424  0.64345714  0.75254414  1
  Cl  Cl530  1  0.11188254  0.97596938  0.75202480  1
  Cl  Cl531  1  0.61174529  0.30931500  0.75020054  1
  Cl  Cl532  1  0.61135109  0.64344697  0.74972428  1
  Cl  Cl533  1  0.61300755  0.97658222  0.74996796  1
  Cl  Cl534  1  0.39007808  0.02478713  0.25074543  1
  Cl  Cl535  1  0.38754180  0.35610051  0.25066826  1
  Cl  Cl536  1  0.38755991  0.69065141  0.25025131  1
  Cl  Cl537  1  0.88930993  0.02374120  0.24799359  1
  Cl  Cl538  1  0.89044418  0.35585358  0.25191414  1
  Cl  Cl539  1  0.88593550  0.68987495  0.24907894  1
  Cl  Cl540  1  0.38786270  0.30984174  0.74863895  1
  Cl  Cl541  1  0.38695841  0.64222365  0.74853650  1
  Cl  Cl542  1  0.38719308  0.97601847  0.75019349  1
  Cl  Cl543  1  0.89086249  0.30950376  0.75064423  1
  Cl  Cl544  1  0.88838535  0.64256131  0.74852471  1
  Cl  Cl545  1  0.88625231  0.97864166  0.74921671  1
  Cl  Cl546  1  0.11357024  0.02398450  0.25066470  1
  Cl  Cl547  1  0.11377959  0.35688335  0.25023020  1
  Cl  Cl548  1  0.10904775  0.68878843  0.24859988  1
  Cl  Cl549  1  0.60995112  0.02418877  0.25205448  1
  Cl  Cl550  1  0.61258809  0.35636302  0.25203722  1
  Cl  Cl551  1  0.61363309  0.69018835  0.25102982  1
