# generated using pymatgen
data_H8PbC4(N3Cl2)2
_symmetry_space_group_name_H-M   'P 1'
_cell_length_a   16.62051319
_cell_length_b   22.50264426
_cell_length_c   21.58916454
_cell_angle_alpha   89.99911176
_cell_angle_beta   90.00274642
_cell_angle_gamma   89.99841739
_symmetry_Int_Tables_number   1
_chemical_formula_structural   H8PbC4(N3Cl2)2
_chemical_formula_sum   'H192 Pb24 C96 N144 Cl96'
_cell_volume   8074.46617712
_cell_formula_units_Z   24
loop_
 _symmetry_equiv_pos_site_id
 _symmetry_equiv_pos_as_xyz
  1  'x, y, z'
loop_
 _atom_site_type_symbol
 _atom_site_label
 _atom_site_symmetry_multiplicity
 _atom_site_fract_x
 _atom_site_fract_y
 _atom_site_fract_z
 _atom_site_occupancy
  H  H0  1  0.00568338  0.03279794  0.68075530  1
  H  H1  1  -0.00375251  0.36513335  0.67878549  1
  H  H2  1  -0.01107700  0.69984872  0.68046693  1
  H  H3  1  0.49846044  0.03251326  0.67823430  1
  H  H4  1  0.49574460  0.36411858  0.68185856  1
  H  H5  1  0.51003198  0.70041403  0.67998681  1
  H  H6  1  -0.00058367  0.30250524  0.18247338  1
  H  H7  1  -0.00064870  0.63599258  0.18075458  1
  H  H8  1  -0.00244779  0.96987997  0.18013327  1
  H  H9  1  0.49742630  0.30253647  0.17951478  1
  H  H10  1  0.49749077  0.63568075  0.18211871  1
  H  H11  1  0.49829702  0.96897575  0.17783065  1
  H  H12  1  0.00194390  0.03242563  0.82107514  1
  H  H13  1  -0.00026029  0.36464813  0.81750019  1
  H  H14  1  -0.00718374  0.69713108  0.82019411  1
  H  H15  1  0.49686976  0.03176280  0.82283889  1
  H  H16  1  0.49183109  0.36593954  0.82007053  1
  H  H17  1  0.50177430  0.69780628  0.82000443  1
  H  H18  1  -0.00867887  0.30226886  0.31693284  1
  H  H19  1  0.00063048  0.62496140  0.31674499  1
  H  H20  1  0.00344878  0.96729503  0.32090609  1
  H  H21  1  0.49908968  0.30128335  0.31986861  1
  H  H22  1  0.49842484  0.63487736  0.31668806  1
  H  H23  1  0.49662545  0.96810264  0.31826667  1
  H  H24  1  0.25096351  0.20006350  0.68022414  1
  H  H25  1  0.25051320  0.53187232  0.68479828  1
  H  H26  1  0.25819675  0.86502741  0.67965664  1
  H  H27  1  0.75874219  0.19820700  0.68256697  1
  H  H28  1  0.74976212  0.53195518  0.68450488  1
  H  H29  1  0.74256682  0.86641468  0.67888168  1
  H  H30  1  0.24520857  0.13476107  0.17969112  1
  H  H31  1  0.25110676  0.46888094  0.17953750  1
  H  H32  1  0.24491101  0.80064204  0.17993505  1
  H  H33  1  0.76185180  0.13211926  0.17514839  1
  H  H34  1  0.74930957  0.46810097  0.18181633  1
  H  H35  1  0.75209666  0.80142272  0.18013444  1
  H  H36  1  0.24956494  0.19812063  0.81792436  1
  H  H37  1  0.25122798  0.52965137  0.81958592  1
  H  H38  1  0.24850225  0.86514380  0.82074413  1
  H  H39  1  0.75077832  0.19732302  0.82022736  1
  H  H40  1  0.75139496  0.53146561  0.81800819  1
  H  H41  1  0.74823783  0.86400543  0.82001059  1
  H  H42  1  0.24356668  0.13499658  0.31870131  1
  H  H43  1  0.25625983  0.46597200  0.32253918  1
  H  H44  1  0.24744844  0.80093174  0.32304076  1
  H  H45  1  0.75203533  0.13424461  0.32017090  1
  H  H46  1  0.75237826  0.46606747  0.31950894  1
  H  H47  1  0.74966645  0.80308375  0.31831609  1
  H  H48  1  0.11733819  0.05658721  0.60084572  1
  H  H49  1  0.12981979  0.38543100  0.61790686  1
  H  H50  1  0.12751703  0.71951500  0.62403885  1
  H  H51  1  0.62223634  0.05633123  0.60801782  1
  H  H52  1  0.62587119  0.38666113  0.61343413  1
  H  H53  1  0.61452398  0.72563087  0.59655313  1
  H  H54  1  0.37737122  0.27865103  0.10593631  1
  H  H55  1  0.37332885  0.61276713  0.11144518  1
  H  H56  1  0.37603883  0.94368145  0.10594106  1
  H  H57  1  0.87613496  0.27755804  0.10919845  1
  H  H58  1  0.87600842  0.61250005  0.10815189  1
  H  H59  1  0.87909806  0.94698751  0.10445943  1
  H  H60  1  0.37964422  0.05674423  0.89786138  1
  H  H61  1  0.37719358  0.39039731  0.89849085  1
  H  H62  1  0.37119060  0.71940244  0.88598470  1
  H  H63  1  0.87560515  0.05370872  0.89135721  1
  H  H64  1  0.87733851  0.38721024  0.89200182  1
  H  H65  1  0.87581941  0.72296188  0.89629361  1
  H  H66  1  0.12613640  0.28232399  0.37956620  1
  H  H67  1  0.12406464  0.61347347  0.39085432  1
  H  H68  1  0.12340231  0.94308199  0.39445633  1
  H  H69  1  0.62393023  0.28063675  0.38797874  1
  H  H70  1  0.62513470  0.61117391  0.38600817  1
  H  H71  1  0.62849601  0.94809594  0.38370818  1
  H  H72  1  0.37572985  0.22048740  0.60972237  1
  H  H73  1  0.37484628  0.55355185  0.61480347  1
  H  H74  1  0.37025303  0.89062505  0.59894183  1
  H  H75  1  0.87189560  0.22255885  0.60311921  1
  H  H76  1  0.87548767  0.55178766  0.61544925  1
  H  H77  1  0.87689937  0.88717122  0.61942400  1
  H  H78  1  0.12592190  0.11083220  0.10384344  1
  H  H79  1  0.12406505  0.44623728  0.10976953  1
  H  H80  1  0.13023570  0.77794139  0.10332592  1
  H  H81  1  0.62095774  0.11664111  0.12463498  1
  H  H82  1  0.62369067  0.44646763  0.11329558  1
  H  H83  1  0.62633811  0.77969598  0.10874941  1
  H  H84  1  0.12582952  0.21870530  0.88845381  1
  H  H85  1  0.12626759  0.55498334  0.88969895  1
  H  H86  1  0.12299858  0.88732176  0.88984603  1
  H  H87  1  0.62304214  0.21913595  0.88859672  1
  H  H88  1  0.62573090  0.55275263  0.88815320  1
  H  H89  1  0.62131835  0.88848314  0.88911938  1
  H  H90  1  0.37962658  0.11671302  0.37975522  1
  H  H91  1  0.36996249  0.44208893  0.40088991  1
  H  H92  1  0.37517207  0.77878934  0.39010742  1
  H  H93  1  0.88038554  0.11182476  0.38638626  1
  H  H94  1  0.87507005  0.44669805  0.39240407  1
  H  H95  1  0.87411928  0.77767592  0.38902659  1
  H  H96  1  0.37462430  0.28067854  0.39061488  1
  H  H97  1  0.37548154  0.61331173  0.38818085  1
  H  H98  1  0.37971014  0.94338902  0.39508582  1
  H  H99  1  0.87786736  0.27924925  0.39625350  1
  H  H100  1  0.87509551  0.61155502  0.38853431  1
  H  H101  1  0.87402426  0.94668368  0.38755766  1
  H  H102  1  0.12468520  0.05630556  0.89270409  1
  H  H103  1  0.12596540  0.38779459  0.88823449  1
  H  H104  1  0.12450516  0.71874482  0.88498649  1
  H  H105  1  0.62800946  0.05285094  0.88727174  1
  H  H106  1  0.62531582  0.38600197  0.88326481  1
  H  H107  1  0.61898609  0.72378495  0.89630555  1
  H  H108  1  0.12471156  0.27967005  0.11057021  1
  H  H109  1  0.12543098  0.61374703  0.11129576  1
  H  H110  1  0.12845420  0.94657303  0.11573882  1
  H  H111  1  0.62584988  0.27832925  0.11268456  1
  H  H112  1  0.62252786  0.61269241  0.11114600  1
  H  H113  1  0.62546520  0.94662713  0.11027552  1
  H  H114  1  0.37384120  0.05193691  0.60687719  1
  H  H115  1  0.37732661  0.38701016  0.60424727  1
  H  H116  1  0.36947736  0.71682829  0.62794870  1
  H  H117  1  0.86917681  0.05142430  0.62071930  1
  H  H118  1  0.88246354  0.39066946  0.59886753  1
  H  H119  1  0.88023617  0.72547713  0.59846560  1
  H  H120  1  0.13245501  0.10971839  0.39909003  1
  H  H121  1  0.12215507  0.44821728  0.38447240  1
  H  H122  1  0.12647720  0.77720752  0.39592300  1
  H  H123  1  0.63183780  0.11135760  0.39537473  1
  H  H124  1  0.62571183  0.44605012  0.38598413  1
  H  H125  1  0.62429822  0.78164858  0.38788781  1
  H  H126  1  0.37545069  0.21961950  0.88592788  1
  H  H127  1  0.37526131  0.55318523  0.88927363  1
  H  H128  1  0.37175291  0.88882844  0.89299970  1
  H  H129  1  0.87276144  0.21806547  0.89302646  1
  H  H130  1  0.87497954  0.55548737  0.89021310  1
  H  H131  1  0.86956145  0.88752685  0.89395977  1
  H  H132  1  0.37476700  0.11237316  0.11258800  1
  H  H133  1  0.37298181  0.44500814  0.10613500  1
  H  H134  1  0.37853379  0.78313357  0.11845871  1
  H  H135  1  0.86496734  0.10778663  0.09136977  1
  H  H136  1  0.87338662  0.44697142  0.11173672  1
  H  H137  1  0.87532962  0.77953517  0.10737790  1
  H  H138  1  0.12641229  0.22071283  0.61164918  1
  H  H139  1  0.12487999  0.55249153  0.61608390  1
  H  H140  1  0.12263574  0.88568444  0.62128594  1
  H  H141  1  0.62359319  0.21750735  0.62008050  1
  H  H142  1  0.62550146  0.55328304  0.61455252  1
  H  H143  1  0.63001032  0.89085587  0.59771360  1
  H  H144  1  0.66473023  0.41852045  0.00262752  1
  H  H145  1  0.93908462  0.57057727  0.48584577  1
  H  H146  1  0.44111651  0.91622103  0.50263631  1
  H  H147  1  0.42132554  0.58317056  0.00256661  1
  H  H148  1  0.67358656  0.56670491  0.49920533  1
  H  H149  1  0.82370295  0.75920030  0.49659685  1
  H  H150  1  0.30115872  0.91534062  0.49637655  1
  H  H151  1  0.10471547  0.74594677  0.51544933  1
  H  H152  1  0.18685139  0.74860693  -0.00454864  1
  H  H153  1  0.67333955  0.58074369  0.99756798  1
  H  H154  1  0.07390948  0.91556843  0.50333709  1
  H  H155  1  0.32704885  0.57254377  0.50040035  1
  H  H156  1  0.17250672  0.41898102  0.00457991  1
  H  H157  1  0.33759401  0.74959330  0.49720830  1
  H  H158  1  0.57111895  0.07022291  0.50215019  1
  H  H159  1  0.17019333  0.57594515  0.50229504  1
  H  H160  1  0.06189908  0.57798105  0.49062092  1
  H  H161  1  0.59607260  0.08394964  0.99448315  1
  H  H162  1  0.67792588  0.75023387  0.00452631  1
  H  H163  1  0.42722196  0.59348948  0.50171164  1
  H  H164  1  0.93388395  0.91815449  -0.00354235  1
  H  H165  1  0.67096725  0.75801854  0.50054871  1
  H  H166  1  0.33091063  0.08584607  0.00643810  1
  H  H167  1  0.66572136  0.41658346  0.49867248  1
  H  H168  1  0.83025957  0.57570106  0.50206903  1
  H  H169  1  0.09250367  0.91947224  0.00906256  1
  H  H170  1  0.89548514  0.07913652  0.51234221  1
  H  H171  1  0.57464582  0.60145529  0.49526174  1
  H  H172  1  0.54209707  0.75135284  0.49074941  1
  H  H173  1  0.66501782  0.24595352  0.99426315  1
  H  H174  1  0.40682149  0.74868595  0.99159499  1
  H  H175  1  0.66671699  0.91559553  0.99394596  1
  H  H176  1  0.16994688  0.25050665  0.49971675  1
  H  H177  1  0.58101249  0.25197843  0.50045470  1
  H  H178  1  0.91228743  0.91893579  0.49438591  1
  H  H179  1  0.42153985  0.09206814  0.50818858  1
  H  H180  1  0.05289817  0.08440127  0.49386198  1
  H  H181  1  0.42811826  0.91472059  0.00188239  1
  H  H182  1  0.15237115  0.41763297  0.49241646  1
  H  H183  1  0.17015262  0.24703748  0.99857896  1
  H  H184  1  0.07834052  0.58576926  0.00173863  1
  H  H185  1  0.19979097  0.08482475  0.50545285  1
  H  H186  1  0.95002453  0.74832185  0.49147486  1
  H  H187  1  0.94310766  0.25429889  0.50361859  1
  H  H188  1  0.82941530  0.41930565  0.00123863  1
  H  H189  1  0.80589176  0.25128328  0.49702901  1
  H  H190  1  0.33570615  0.24897268  0.99644430  1
  H  H191  1  0.82313063  0.24666746  1.00258945  1
  Pb  Pb192  1  0.24688255  0.04843198  0.74985462  1
  Pb  Pb193  1  0.24825841  0.37985612  0.75063319  1
  Pb  Pb194  1  0.24860055  0.71264616  0.75102495  1
  Pb  Pb195  1  0.74800086  0.04458151  0.75065317  1
  Pb  Pb196  1  0.75117722  0.37901638  0.74855129  1
  Pb  Pb197  1  0.74505300  0.71590266  0.74676583  1
  Pb  Pb198  1  0.25058512  0.28767257  0.24778637  1
  Pb  Pb199  1  0.25181876  0.62018467  0.25209539  1
  Pb  Pb200  1  0.25286452  0.95179191  0.25583093  1
  Pb  Pb201  1  0.75490027  0.28455798  0.24911971  1
  Pb  Pb202  1  0.74713850  0.61821397  0.25025330  1
  Pb  Pb203  1  0.75153930  0.95576136  0.24594530  1
  Pb  Pb204  1  -0.00261769  0.21205333  0.74775597  1
  Pb  Pb205  1  -0.00272070  0.54848083  0.74540072  1
  Pb  Pb206  1  -0.00132620  0.87982478  0.75401948  1
  Pb  Pb207  1  0.50106600  0.21345287  0.75118132  1
  Pb  Pb208  1  0.49965298  0.54592714  0.74846976  1
  Pb  Pb209  1  0.49445461  0.88248844  0.74742629  1
  Pb  Pb210  1  0.00529645  0.11859786  0.25094407  1
  Pb  Pb211  1  0.00107603  0.45526180  0.25022194  1
  Pb  Pb212  1  -0.00142168  0.78495674  0.25089180  1
  Pb  Pb213  1  0.50093762  0.12117419  0.25317137  1
  Pb  Pb214  1  0.49961206  0.45085915  0.24992963  1
  Pb  Pb215  1  0.50229570  0.78847122  0.24964462  1
  C  C216  1  -0.00334280  0.04731081  0.63314413  1
  C  C217  1  0.00272304  0.38021179  0.63145619  1
  C  C218  1  -0.00049325  0.71469515  0.63319251  1
  C  C219  1  0.49815679  0.04734223  0.63028128  1
  C  C220  1  0.49987721  0.37887452  0.63408448  1
  C  C221  1  0.49801719  0.71392403  0.63264666  1
  C  C222  1  0.00002280  0.28741614  0.13479396  1
  C  C223  1  0.00018433  0.62072591  0.13317677  1
  C  C224  1  0.00209327  0.95426920  0.13257946  1
  C  C225  1  0.50056431  0.28685657  0.13233065  1
  C  C226  1  0.49788682  0.62056607  0.13447876  1
  C  C227  1  0.49948500  0.95316135  0.13044564  1
  C  C228  1  0.00055221  0.04732238  0.86863415  1
  C  C229  1  0.00099676  0.37921225  0.86531335  1
  C  C230  1  -0.00201884  0.71270005  0.86739827  1
  C  C231  1  0.50197700  0.04713174  0.87023468  1
  C  C232  1  0.49846260  0.38043159  0.86753749  1
  C  C233  1  0.49694726  0.71350142  0.86738999  1
  C  C234  1  -0.00119734  0.28763952  0.36449292  1
  C  C235  1  -0.00002761  0.61556579  0.36600645  1
  C  C236  1  -0.00013277  0.95216191  0.36874479  1
  C  C237  1  0.49976393  0.28713864  0.36776566  1
  C  C238  1  0.50039714  0.62014608  0.36463494  1
  C  C239  1  0.50174350  0.95329853  0.36589877  1
  C  C240  1  0.25053184  0.21406099  0.63225566  1
  C  C241  1  0.25008678  0.54638456  0.63681813  1
  C  C242  1  0.25060574  0.87946135  0.63211674  1
  C  C243  1  0.75113497  0.21301318  0.63508389  1
  C  C244  1  0.75024320  0.54624707  0.63645502  1
  C  C245  1  0.74965803  0.88097432  0.63146114  1
  C  C246  1  0.24897280  0.11954326  0.13208009  1
  C  C247  1  0.24902375  0.45339742  0.13198666  1
  C  C248  1  0.25102533  0.78691870  0.13207494  1
  C  C249  1  0.74885846  0.11866058  0.12799350  1
  C  C250  1  0.74879325  0.45341721  0.13390847  1
  C  C251  1  0.75082008  0.78648140  0.13243039  1
  C  C252  1  0.25025084  0.21300268  0.86576045  1
  C  C253  1  0.25065409  0.54554333  0.86668986  1
  C  C254  1  0.24796335  0.88013180  0.86828139  1
  C  C255  1  0.74851252  0.21227848  0.86808666  1
  C  C256  1  0.75075004  0.54665635  0.86560363  1
  C  C257  1  0.74607457  0.87959701  0.86752292  1
  C  C258  1  0.25233220  0.12057903  0.36622322  1
  C  C259  1  0.24898034  0.45148530  0.37008676  1
  C  C260  1  0.25011656  0.78566497  0.37067746  1
  C  C261  1  0.75463659  0.11930943  0.36771186  1
  C  C262  1  0.75050004  0.45225328  0.36753568  1
  C  C263  1  0.74985865  0.78772801  0.36610464  1
  C  C264  1  0.23098270  0.09553871  0.46249623  1
  C  C265  1  0.03596403  0.07601751  0.96125280  1
  C  C266  1  0.21026472  0.23992816  0.53789318  1
  C  C267  1  0.70657106  0.42840558  0.04011762  1
  C  C268  1  0.97859285  0.74043935  0.53605026  1
  C  C269  1  0.03515225  0.92589675  0.46336208  1
  C  C270  1  0.02160620  0.07337302  0.53667309  1
  C  C271  1  0.29189107  0.23955308  0.53883595  1
  C  C272  1  0.21322965  0.75793946  0.46554864  1
  C  C273  1  0.43245114  0.73653157  0.54648691  1
  C  C274  1  0.05356380  0.40646433  0.54177023  1
  C  C275  1  0.20808836  0.56797017  0.54241361  1
  C  C276  1  0.70800414  0.76327036  0.45939566  1
  C  C277  1  0.71013129  0.56600692  0.54093697  1
  C  C278  1  0.45881137  0.26159896  0.46131556  1
  C  C279  1  0.29008201  0.56756591  0.54165974  1
  C  C280  1  0.80146023  0.90713505  0.54219877  1
  C  C281  1  0.30519540  0.76246824  0.04198399  1
  C  C282  1  0.22358760  0.76014899  0.03538642  1
  C  C283  1  0.77441100  0.23997200  0.53970428  1
  C  C284  1  0.29303603  0.23876107  0.95919048  1
  C  C285  1  0.47458373  0.92688106  0.46074859  1
  C  C286  1  0.03867125  0.59525909  0.04055917  1
  C  C287  1  0.78878821  0.42868843  0.03946206  1
  C  C288  1  0.76380315  0.09235291  0.03155047  1
  C  C289  1  0.96934506  0.74250798  0.96117305  1
  C  C290  1  0.54530146  0.92454451  0.03837372  1
  C  C291  1  0.70742800  0.42701159  0.46134174  1
  C  C292  1  0.54045394  0.26163496  0.46216832  1
  C  C293  1  0.79219031  0.56709243  0.54186371  1
  C  C294  1  0.46099746  0.59548192  0.45855775  1
  C  C295  1  0.96933049  0.92775933  0.03755685  1
  C  C296  1  0.78897782  0.42757080  0.46182967  1
  C  C297  1  0.97498354  0.26290170  0.46039213  1
  C  C298  1  0.20782124  0.90741160  0.96085210  1
  C  C299  1  0.68433326  0.09565821  0.04258902  1
  C  C300  1  0.27735995  0.42341012  0.46652393  1
  C  C301  1  0.46112395  0.59389855  0.04159207  1
  C  C302  1  0.71275541  0.57168520  0.95850622  1
  C  C303  1  0.46732325  0.25801737  0.03869011  1
  C  C304  1  0.79832711  0.09227217  0.45948974  1
  C  C305  1  0.47221284  0.40790463  0.96256659  1
  C  C306  1  0.21076627  0.23801114  0.96023960  1
  C  C307  1  0.78572816  0.23751248  0.96245749  1
  C  C308  1  0.51265973  0.73995016  0.53417231  1
  C  C309  1  0.28890674  0.57468394  0.95888831  1
  C  C310  1  0.19267614  0.90653949  0.54363857  1
  C  C311  1  0.46954259  0.07698410  0.96544296  1
  N  N312  1  0.54834984  0.07495253  0.96028134  1
  N  N313  1  0.54446427  0.40466314  0.54170646  1
  N  N314  1  0.46590326  0.92400926  0.03792650  1
  N  N315  1  0.79201895  0.57294653  0.95964764  1
  N  N316  1  0.30981230  0.09826722  0.45634065  1
  N  N317  1  0.28844652  0.42658651  0.03833330  1
  N  N318  1  0.21323949  0.09359107  0.03726265  1
  N  N319  1  0.79209933  0.76187936  0.03864198  1
  N  N320  1  0.54085090  0.59312674  0.45663466  1
  N  N321  1  0.19876113  0.42594698  0.45960871  1
  N  N322  1  0.04679376  0.74166275  0.95874706  1
  N  N323  1  0.45174576  0.73922390  0.95710937  1
  N  N324  1  0.04889004  0.92674445  0.04279260  1
  N  N325  1  0.46836759  0.40481877  0.53861864  1
  N  N326  1  0.96499438  0.40550184  0.95962538  1
  N  N327  1  0.28571125  0.90801212  0.96306611  1
  N  N328  1  0.95534948  0.92720475  0.45999284  1
  N  N329  1  0.70661062  0.90630097  0.95821915  1
  N  N330  1  0.53715292  0.08005942  0.54044853  1
  N  N331  1  0.05717380  0.73951965  0.54644162  1
  N  N332  1  0.70605031  0.23914220  0.95924691  1
  N  N333  1  0.94253504  0.07092602  0.54453830  1
  N  N334  1  0.29121698  0.09412254  0.04188881  1
  N  N335  1  0.54533360  0.25782515  0.03996561  1
  N  N336  1  0.21030938  0.42701632  0.04116473  1
  N  N337  1  0.72053385  0.09168329  0.46348475  1
  N  N338  1  0.21096426  0.57521724  0.96029415  1
  N  N339  1  0.54952751  0.40683044  0.95891913  1
  N  N340  1  0.55366935  0.92810491  0.45707703  1
  N  N341  1  0.45814444  0.06725054  0.53684075  1
  N  N342  1  0.95939323  0.59431833  0.03899952  1
  N  N343  1  0.69550859  0.23844492  0.54536729  1
  N  N344  1  0.72443221  0.90813599  0.53396282  1
  N  N345  1  0.53017708  0.74110238  0.96201740  1
  N  N346  1  0.29245090  0.75900713  0.46230134  1
  N  N347  1  0.96303770  0.26049704  0.04085662  1
  N  N348  1  0.04207180  0.40562244  0.95836436  1
  N  N349  1  0.71400895  0.76296461  0.04041768  1
  N  N350  1  0.54062024  0.59400674  0.04084296  1
  N  N351  1  0.78489864  0.90587228  0.96150151  1
  N  N352  1  0.04020824  0.61168839  0.46286803  1
  N  N353  1  0.95865557  0.07484431  0.96228360  1
  N  N354  1  0.97622474  0.40847586  0.53457893  1
  N  N355  1  0.05390910  0.26239468  0.45435838  1
  N  N356  1  0.27143150  0.90768756  0.53726676  1
  N  N357  1  0.03991197  0.26104771  0.04145307  1
  N  N358  1  0.95636527  0.60825545  0.46204344  1
  N  N359  1  0.78758375  0.75985937  0.45822336  1
  N  N360  1  0.05570612  0.05865389  0.59163659  1
  N  N361  1  0.07188731  0.38970746  0.60093277  1
  N  N362  1  0.06950552  0.72313660  0.60594569  1
  N  N363  1  0.56189195  0.05600809  0.59484913  1
  N  N364  1  0.56543445  0.38906392  0.60099954  1
  N  N365  1  0.55282390  0.72549471  0.58915529  1
  N  N366  1  0.43790531  0.27536088  0.09451551  1
  N  N367  1  0.43362576  0.61016566  0.09866396  1
  N  N368  1  0.43700691  0.94215709  0.09458070  1
  N  N369  1  0.93725209  0.27688185  0.09862407  1
  N  N370  1  0.93701264  0.61034546  0.09717871  1
  N  N371  1  0.94002603  0.94420803  0.09351732  1
  N  N372  1  0.44048599  0.05954183  0.90956304  1
  N  N373  1  0.43834849  0.39211119  0.90789158  1
  N  N374  1  0.43077367  0.72290013  0.89977154  1
  N  N375  1  0.93631144  0.05669668  0.90326719  1
  N  N376  1  0.93864096  0.38923786  0.90208670  1
  N  N377  1  0.93662089  0.72519538  0.90646623  1
  N  N378  1  0.06686078  0.27782561  0.39454932  1
  N  N379  1  0.06337712  0.60977072  0.40246145  1
  N  N380  1  0.06289132  0.94126549  0.40641338  1
  N  N381  1  0.56472317  0.27749299  0.40266121  1
  N  N382  1  0.56488601  0.61300160  0.39951421  1
  N  N383  1  0.56871517  0.94429277  0.39783141  1
  N  N384  1  0.31581207  0.22399481  0.59581119  1
  N  N385  1  0.31504447  0.55466252  0.60074142  1
  N  N386  1  0.30815888  0.88905135  0.59110681  1
  N  N387  1  0.81001033  0.22461251  0.59443031  1
  N  N388  1  0.81588127  0.55493502  0.60138870  1
  N  N389  1  0.81931086  0.89095286  0.60157121  1
  N  N390  1  0.18734323  0.10910305  0.09403599  1
  N  N391  1  0.18464384  0.44377729  0.09747049  1
  N  N392  1  0.19119487  0.77568851  0.09270667  1
  N  N393  1  0.67571772  0.11141366  0.10238537  1
  N  N394  1  0.68330589  0.44357151  0.09914866  1
  N  N395  1  0.68707205  0.77619263  0.09750015  1
  N  N396  1  0.18574431  0.22222916  0.90176265  1
  N  N397  1  0.18716427  0.55668463  0.90148697  1
  N  N398  1  0.18258102  0.89062768  0.90342787  1
  N  N399  1  0.68343870  0.22295459  0.90137228  1
  N  N400  1  0.68575641  0.55608971  0.90100807  1
  N  N401  1  0.68160583  0.89005301  0.90166017  1
  N  N402  1  0.32113733  0.11356555  0.39601728  1
  N  N403  1  0.30876722  0.43950768  0.41121569  1
  N  N404  1  0.31528600  0.77607620  0.40396529  1
  N  N405  1  0.82135069  0.10884309  0.40115553  1
  N  N406  1  0.81474201  0.44263321  0.40524545  1
  N  N407  1  0.81339681  0.77792956  0.40140040  1
  N  N408  1  0.43456869  0.27689369  0.40436186  1
  N  N409  1  0.43562338  0.60989609  0.40115914  1
  N  N410  1  0.44098658  0.94213319  0.40511766  1
  N  N411  1  0.93967074  0.27776206  0.40547307  1
  N  N412  1  0.93547306  0.60893004  0.40105944  1
  N  N413  1  0.93407300  0.94330753  0.40171937  1
  N  N414  1  0.06468797  0.05912648  0.90505043  1
  N  N415  1  0.06526581  0.38923921  0.90005286  1
  N  N416  1  0.06472807  0.72292349  0.89874740  1
  N  N417  1  0.56855522  0.05661871  0.90180997  1
  N  N418  1  0.56605094  0.38942046  0.89820892  1
  N  N419  1  0.55747348  0.72510855  0.90592564  1
  N  N420  1  0.06387553  0.27762489  0.09952417  1
  N  N421  1  0.06532863  0.61098727  0.09808234  1
  N  N422  1  0.06868296  0.94364929  0.10114590  1
  N  N423  1  0.56579616  0.27611705  0.09941281  1
  N  N424  1  0.56167438  0.61066298  0.09922386  1
  N  N425  1  0.56600724  0.94244551  0.09567887  1
  N  N426  1  0.43394551  0.05865347  0.59594755  1
  N  N427  1  0.43908262  0.38860627  0.59553069  1
  N  N428  1  0.42482685  0.72111212  0.60634950  1
  N  N429  1  0.92773631  0.05504407  0.60396907  1
  N  N430  1  0.94450814  0.39165846  0.59159990  1
  N  N431  1  0.94218630  0.72570058  0.59011796  1
  N  N432  1  0.19427238  0.10889333  0.40757761  1
  N  N433  1  0.18085794  0.44279577  0.40003765  1
  N  N434  1  0.18679203  0.77438872  0.40852418  1
  N  N435  1  0.69341569  0.10916699  0.40504001  1
  N  N436  1  0.68464789  0.44257251  0.40138413  1
  N  N437  1  0.68419410  0.77850138  0.40175995  1
  N  N438  1  0.31584569  0.22340406  0.90003707  1
  N  N439  1  0.31533392  0.55686795  0.90243117  1
  N  N440  1  0.31064770  0.89059632  0.90409575  1
  N  N441  1  0.81230911  0.22167480  0.90553730  1
  N  N442  1  0.81399762  0.55728678  0.90138452  1
  N  N443  1  0.80872879  0.88957863  0.90454511  1
  N  N444  1  0.31450689  0.11010226  0.09893229  1
  N  N445  1  0.31187126  0.44249327  0.09547318  1
  N  N446  1  0.32069822  0.77852026  0.10076238  1
  N  N447  1  0.80346709  0.10640947  0.08339563  1
  N  N448  1  0.81352154  0.44402283  0.09820559  1
  N  N449  1  0.81450788  0.77734382  0.09615709  1
  N  N450  1  0.18570582  0.22389328  0.59725651  1
  N  N451  1  0.18443200  0.55506053  0.60173335  1
  N  N452  1  0.17985607  0.88981119  0.60264130  1
  N  N453  1  0.68286406  0.22183490  0.60496857  1
  N  N454  1  0.68530846  0.55389872  0.60036247  1
  N  N455  1  0.69189208  0.89136838  0.59083415  1
  Cl  Cl456  1  0.24500350  0.05182187  0.61272802  1
  Cl  Cl457  1  0.25455985  0.38723272  0.61505504  1
  Cl  Cl458  1  0.24684083  0.72277039  0.61680276  1
  Cl  Cl459  1  0.74511285  0.05201252  0.61870593  1
  Cl  Cl460  1  0.75364678  0.38801204  0.61517400  1
  Cl  Cl461  1  0.75239590  0.72829435  0.60542754  1
  Cl  Cl462  1  0.25028258  0.27884971  0.11279886  1
  Cl  Cl463  1  0.24961617  0.61382183  0.12188166  1
  Cl  Cl464  1  0.25227491  0.94732421  0.12318004  1
  Cl  Cl465  1  0.75165229  0.27448908  0.11208506  1
  Cl  Cl466  1  0.74770988  0.61360046  0.11790134  1
  Cl  Cl467  1  0.74977548  0.94561017  0.11197512  1
  Cl  Cl468  1  0.25487950  0.05385139  0.88288687  1
  Cl  Cl469  1  0.24987907  0.39018028  0.88436023  1
  Cl  Cl470  1  0.24929352  0.71831203  0.88308730  1
  Cl  Cl471  1  0.75151624  0.05207359  0.88348444  1
  Cl  Cl472  1  0.75329446  0.38577593  0.88358928  1
  Cl  Cl473  1  0.74345499  0.72361725  0.88263897  1
  Cl  Cl474  1  0.25071826  0.28406513  0.38025905  1
  Cl  Cl475  1  0.24815312  0.61390141  0.38792387  1
  Cl  Cl476  1  0.25386677  0.94050594  0.39449605  1
  Cl  Cl477  1  0.75572575  0.27938239  0.38233737  1
  Cl  Cl478  1  0.75084352  0.61190694  0.38666914  1
  Cl  Cl479  1  0.75282009  0.94961895  0.37729916  1
  Cl  Cl480  1  -0.00530992  0.21949887  0.61191048  1
  Cl  Cl481  1  0.00041087  0.55690095  0.60254746  1
  Cl  Cl482  1  -0.00050325  0.88720187  0.61702037  1
  Cl  Cl483  1  0.49914335  0.21588042  0.61826744  1
  Cl  Cl484  1  0.50069753  0.55972062  0.61244201  1
  Cl  Cl485  1  0.49466384  0.89087623  0.61250378  1
  Cl  Cl486  1  0.00111284  0.11070596  0.11978160  1
  Cl  Cl487  1  0.00149204  0.44858589  0.11968586  1
  Cl  Cl488  1  -0.00019614  0.78261652  0.11987392  1
  Cl  Cl489  1  0.49284483  0.11212650  0.12006990  1
  Cl  Cl490  1  0.49579525  0.44745116  0.11752103  1
  Cl  Cl491  1  0.50407339  0.78330585  0.11665846  1
  Cl  Cl492  1  -0.00187042  0.21476492  0.87625216  1
  Cl  Cl493  1  0.00231081  0.55552218  0.87758376  1
  Cl  Cl494  1  -0.00358956  0.88902467  0.88870101  1
  Cl  Cl495  1  0.50011402  0.21541448  0.88269796  1
  Cl  Cl496  1  0.49860524  0.55254597  0.88073726  1
  Cl  Cl497  1  0.49665876  0.89028367  0.88831696  1
  Cl  Cl498  1  0.00711633  0.10868929  0.38949360  1
  Cl  Cl499  1  -0.00124082  0.45531171  0.38314332  1
  Cl  Cl500  1  -0.00052827  0.77710950  0.39069154  1
  Cl  Cl501  1  0.50708530  0.11105039  0.38967982  1
  Cl  Cl502  1  0.49495606  0.44982794  0.38037454  1
  Cl  Cl503  1  0.49935371  0.77937669  0.38438063  1
  Cl  Cl504  1  0.36244878  0.14339748  0.74875517  1
  Cl  Cl505  1  0.36382711  0.47799432  0.74870667  1
  Cl  Cl506  1  0.36100492  0.81147731  0.75039532  1
  Cl  Cl507  1  0.86066600  0.14442652  0.74835575  1
  Cl  Cl508  1  0.86273919  0.47963243  0.74927600  1
  Cl  Cl509  1  0.86374693  0.81202356  0.74910206  1
  Cl  Cl510  1  0.14105579  0.18646900  0.25091129  1
  Cl  Cl511  1  0.13754694  0.52192910  0.25440895  1
  Cl  Cl512  1  0.13809891  0.85522629  0.25371072  1
  Cl  Cl513  1  0.63687508  0.18784066  0.24727366  1
  Cl  Cl514  1  0.63768754  0.52419625  0.25193812  1
  Cl  Cl515  1  0.63883415  0.85548322  0.24998924  1
  Cl  Cl516  1  0.13879924  0.14288922  0.74793430  1
  Cl  Cl517  1  0.14022958  0.47712418  0.74805078  1
  Cl  Cl518  1  0.13598230  0.81166640  0.74679368  1
  Cl  Cl519  1  0.63673115  0.14445957  0.74907159  1
  Cl  Cl520  1  0.63725144  0.47836481  0.74989363  1
  Cl  Cl521  1  0.64129345  0.81069487  0.75034715  1
  Cl  Cl522  1  0.36417301  0.18837563  0.25220626  1
  Cl  Cl523  1  0.35942243  0.52231386  0.25174984  1
  Cl  Cl524  1  0.36119081  0.85469205  0.24952153  1
  Cl  Cl525  1  0.85981773  0.18971046  0.24896688  1
  Cl  Cl526  1  0.86305230  0.52240284  0.25187457  1
  Cl  Cl527  1  0.86166173  0.85441540  0.25305026  1
  Cl  Cl528  1  0.11344753  0.31036320  0.74791227  1
  Cl  Cl529  1  0.11417089  0.64440539  0.74515804  1
  Cl  Cl530  1  0.11096853  0.97820178  0.74779994  1
  Cl  Cl531  1  0.61344866  0.30986996  0.75189348  1
  Cl  Cl532  1  0.60981818  0.64759166  0.74845710  1
  Cl  Cl533  1  0.61104251  0.97801650  0.75171052  1
  Cl  Cl534  1  0.38693837  0.02191245  0.25111442  1
  Cl  Cl535  1  0.38663172  0.35644404  0.25022969  1
  Cl  Cl536  1  0.38796450  0.68897361  0.25061452  1
  Cl  Cl537  1  0.88992195  0.02056528  0.25416683  1
  Cl  Cl538  1  0.88761186  0.35579582  0.24981127  1
  Cl  Cl539  1  0.89034881  0.68941951  0.25485764  1
  Cl  Cl540  1  0.38876235  0.31048355  0.75069603  1
  Cl  Cl541  1  0.38558233  0.64520988  0.74640943  1
  Cl  Cl542  1  0.39101753  0.97698951  0.75045184  1
  Cl  Cl543  1  0.88744757  0.31139667  0.74854295  1
  Cl  Cl544  1  0.89271774  0.64447532  0.74681129  1
  Cl  Cl545  1  0.88775592  0.97831848  0.74783644  1
  Cl  Cl546  1  0.11094030  0.02107982  0.25195703  1
  Cl  Cl547  1  0.11372453  0.35540542  0.25364243  1
  Cl  Cl548  1  0.11106367  0.68816188  0.25506642  1
  Cl  Cl549  1  0.61099817  0.02031286  0.24955633  1
  Cl  Cl550  1  0.60932981  0.35728099  0.24832601  1
  Cl  Cl551  1  0.61245555  0.68856500  0.25163607  1
