# generated using pymatgen
data_H8PbC4(N3Cl2)2
_symmetry_space_group_name_H-M   'P 1'
_cell_length_a   16.62153190
_cell_length_b   22.50140372
_cell_length_c   21.58935382
_cell_angle_alpha   90.00097856
_cell_angle_beta   90.00711822
_cell_angle_gamma   90.00157194
_symmetry_Int_Tables_number   1
_chemical_formula_structural   H8PbC4(N3Cl2)2
_chemical_formula_sum   'H192 Pb24 C96 N144 Cl96'
_cell_volume   8074.58665304
_cell_formula_units_Z   24
loop_
 _symmetry_equiv_pos_site_id
 _symmetry_equiv_pos_as_xyz
  1  'x, y, z'
loop_
 _atom_site_type_symbol
 _atom_site_label
 _atom_site_symmetry_multiplicity
 _atom_site_fract_x
 _atom_site_fract_y
 _atom_site_fract_z
 _atom_site_occupancy
  H  H0  1  0.00275553  0.03216738  0.68166012  1
  H  H1  1  0.00044910  0.36346282  0.68208462  1
  H  H2  1  -0.00049386  0.69866644  0.68059315  1
  H  H3  1  0.50161921  0.03225179  0.68057075  1
  H  H4  1  0.49412358  0.36526843  0.68022281  1
  H  H5  1  0.49932071  0.69862054  0.68235150  1
  H  H6  1  0.00509406  0.30058547  0.18066057  1
  H  H7  1  -0.00491496  0.63653728  0.18158257  1
  H  H8  1  0.00095425  0.96654028  0.18112927  1
  H  H9  1  0.50030516  0.30165769  0.18080347  1
  H  H10  1  0.50491932  0.63576071  0.18216283  1
  H  H11  1  0.49829054  0.96859828  0.18033187  1
  H  H12  1  -0.00153284  0.03206678  0.81846795  1
  H  H13  1  -0.00454290  0.36403738  0.82004826  1
  H  H14  1  0.00995579  0.70001929  0.82082631  1
  H  H15  1  0.50076076  0.03166543  0.81965717  1
  H  H16  1  0.49905699  0.36526454  0.82074502  1
  H  H17  1  0.49738688  0.70126727  0.81839783  1
  H  H18  1  0.00477276  0.29956606  0.31905248  1
  H  H19  1  0.00149425  0.63553417  0.31864968  1
  H  H20  1  0.00498529  0.96801541  0.31820281  1
  H  H21  1  0.49754902  0.30150643  0.31759426  1
  H  H22  1  0.49695229  0.63505621  0.32034112  1
  H  H23  1  0.49563661  0.96759401  0.31808108  1
  H  H24  1  0.24254829  0.19946259  0.68224036  1
  H  H25  1  0.25720832  0.53240708  0.68158414  1
  H  H26  1  0.24280811  0.86540073  0.68034027  1
  H  H27  1  0.75796225  0.19914124  0.68073131  1
  H  H28  1  0.74863164  0.53461794  0.67758055  1
  H  H29  1  0.75116571  0.86517783  0.68137156  1
  H  H30  1  0.24712858  0.13496057  0.17839652  1
  H  H31  1  0.25864372  0.46533660  0.17771928  1
  H  H32  1  0.25273258  0.79921714  0.18118485  1
  H  H33  1  0.74572599  0.13524341  0.18304009  1
  H  H34  1  0.75657793  0.46653535  0.18199047  1
  H  H35  1  0.74628195  0.80277096  0.17855116  1
  H  H36  1  0.25293667  0.19781653  0.81716964  1
  H  H37  1  0.26045950  0.53015604  0.81917869  1
  H  H38  1  0.24187216  0.86464796  0.81988324  1
  H  H39  1  0.74562463  0.19883247  0.82142694  1
  H  H40  1  0.74647423  0.53229693  0.81703062  1
  H  H41  1  0.75880800  0.86465965  0.82036725  1
  H  H42  1  0.25044241  0.13360430  0.31962509  1
  H  H43  1  0.24132390  0.46743723  0.31911874  1
  H  H44  1  0.25082162  0.80214031  0.31861424  1
  H  H45  1  0.75375609  0.13537425  0.31681726  1
  H  H46  1  0.75727230  0.46915512  0.32158053  1
  H  H47  1  0.75083201  0.80084841  0.31905743  1
  H  H48  1  0.12362804  0.05239328  0.60971049  1
  H  H49  1  0.12542392  0.38662155  0.61296964  1
  H  H50  1  0.12206549  0.72238429  0.60750536  1
  H  H51  1  0.62093860  0.05577859  0.60632140  1
  H  H52  1  0.62675390  0.38700705  0.61467567  1
  H  H53  1  0.62425335  0.71902015  0.61104212  1
  H  H54  1  0.37311846  0.28189020  0.11242929  1
  H  H55  1  0.37597502  0.61093962  0.11525039  1
  H  H56  1  0.37250542  0.94575033  0.10964020  1
  H  H57  1  0.87145385  0.28088121  0.11957554  1
  H  H58  1  0.88036086  0.61007141  0.10312425  1
  H  H59  1  0.86927793  0.94733068  0.11713498  1
  H  H60  1  0.37298747  0.05421313  0.88618721  1
  H  H61  1  0.37861876  0.38813071  0.89542288  1
  H  H62  1  0.37961249  0.72140203  0.89327679  1
  H  H63  1  0.87556753  0.05274751  0.88979248  1
  H  H64  1  0.88239213  0.38986788  0.90008284  1
  H  H65  1  0.87617830  0.71987050  0.88290317  1
  H  H66  1  0.12032003  0.27635413  0.39872952  1
  H  H67  1  0.12559846  0.61256195  0.39013995  1
  H  H68  1  0.12474454  0.94575124  0.39488458  1
  H  H69  1  0.62313596  0.28088715  0.38677838  1
  H  H70  1  0.62971723  0.61409602  0.38365432  1
  H  H71  1  0.62400056  0.94615454  0.38636412  1
  H  H72  1  0.38000876  0.21666975  0.62482085  1
  H  H73  1  0.36919361  0.55712842  0.59951568  1
  H  H74  1  0.37458775  0.88628366  0.61605437  1
  H  H75  1  0.87752635  0.22159864  0.60549135  1
  H  H76  1  0.87317779  0.55432371  0.60899653  1
  H  H77  1  0.87409740  0.88772039  0.60985224  1
  H  H78  1  0.12642273  0.11054923  0.10565840  1
  H  H79  1  0.12148763  0.44882801  0.12179357  1
  H  H80  1  0.12061323  0.78125785  0.11752815  1
  H  H81  1  0.62428681  0.11285631  0.10985961  1
  H  H82  1  0.62002166  0.44766900  0.12118501  1
  H  H83  1  0.62711513  0.77810873  0.10319282  1
  H  H84  1  0.12694883  0.22038266  0.88781364  1
  H  H85  1  0.12394537  0.55137200  0.87710044  1
  H  H86  1  0.13160571  0.88957714  0.90272618  1
  H  H87  1  0.62913265  0.22242874  0.89762048  1
  H  H88  1  0.62353226  0.55771254  0.88951017  1
  H  H89  1  0.62760060  0.88544723  0.88592899  1
  H  H90  1  0.37870021  0.11412007  0.38714151  1
  H  H91  1  0.37590213  0.44767233  0.38074933  1
  H  H92  1  0.37419094  0.77867395  0.39133756  1
  H  H93  1  0.87703221  0.11356927  0.38898631  1
  H  H94  1  0.86785277  0.44247307  0.40262347  1
  H  H95  1  0.87794570  0.77923125  0.38918111  1
  H  H96  1  0.37401380  0.28102016  0.38706887  1
  H  H97  1  0.38196523  0.60918985  0.39989529  1
  H  H98  1  0.37518822  0.94484079  0.39189278  1
  H  H99  1  0.87213194  0.28117978  0.38399532  1
  H  H100  1  0.87642313  0.61247191  0.38969802  1
  H  H101  1  0.87598720  0.94656171  0.38788538  1
  H  H102  1  0.12505244  0.05313741  0.88600968  1
  H  H103  1  0.13047234  0.38435768  0.87927867  1
  H  H104  1  0.12404519  0.72405738  0.89978214  1
  H  H105  1  0.62173081  0.05475494  0.89437548  1
  H  H106  1  0.62699791  0.38649934  0.88994084  1
  H  H107  1  0.62875690  0.71966350  0.88258791  1
  H  H108  1  0.11996706  0.27896118  0.10380741  1
  H  H109  1  0.12844428  0.61469709  0.12055692  1
  H  H110  1  0.11848623  0.94490514  0.10639332  1
  H  H111  1  0.62274350  0.27915682  0.11075193  1
  H  H112  1  0.62589259  0.61418327  0.10845510  1
  H  H113  1  0.62221782  0.94645337  0.11010285  1
  H  H114  1  0.37146511  0.05263381  0.61431648  1
  H  H115  1  0.37924279  0.38902114  0.59966423  1
  H  H116  1  0.37479961  0.72165570  0.61055288  1
  H  H117  1  0.87406714  0.05316868  0.61480535  1
  H  H118  1  0.87569146  0.38882543  0.61129959  1
  H  H119  1  0.87320398  0.71910464  0.61201329  1
  H  H120  1  0.13005188  0.11168266  0.39496107  1
  H  H121  1  0.12915058  0.44171369  0.40071352  1
  H  H122  1  0.12491849  0.78051240  0.38852580  1
  H  H123  1  0.62798800  0.11427249  0.38857760  1
  H  H124  1  0.62131728  0.45050847  0.38089925  1
  H  H125  1  0.62917131  0.77760107  0.39258962  1
  H  H126  1  0.37602084  0.22082247  0.88941381  1
  H  H127  1  0.36900405  0.55597562  0.90328153  1
  H  H128  1  0.37769737  0.88506068  0.87913243  1
  H  H129  1  0.87740409  0.22007548  0.88490443  1
  H  H130  1  0.87290127  0.55417571  0.88497982  1
  H  H131  1  0.87618886  0.88955788  0.89648221  1
  H  H132  1  0.37552162  0.11360861  0.11145586  1
  H  H133  1  0.36767992  0.44238117  0.09681389  1
  H  H134  1  0.36961932  0.77893960  0.10571832  1
  H  H135  1  0.87336558  0.11312645  0.11335008  1
  H  H136  1  0.86788368  0.44187303  0.10156537  1
  H  H137  1  0.87547041  0.78108114  0.11063486  1
  H  H138  1  0.13228676  0.22074608  0.60173416  1
  H  H139  1  0.12247985  0.55209965  0.62078825  1
  H  H140  1  0.12605970  0.88907003  0.60342138  1
  H  H141  1  0.62846528  0.21817757  0.61683917  1
  H  H142  1  0.62424406  0.55438686  0.60840125  1
  H  H143  1  0.62422480  0.88774509  0.61235915  1
  H  H144  1  0.07594287  0.58631286  0.49931502  1
  H  H145  1  0.67699891  0.08313237  0.00196780  1
  H  H146  1  0.31226414  0.75343100  -0.00573873  1
  H  H147  1  0.57665390  0.91746049  -0.00000280  1
  H  H148  1  0.42836278  0.91584052  0.49953741  1
  H  H149  1  0.32639229  0.25148640  0.99716593  1
  H  H150  1  0.19970318  0.41965494  0.50299546  1
  H  H151  1  0.07912496  0.41291420  0.50114908  1
  H  H152  1  0.06280897  0.24955240  -0.00423066  1
  H  H153  1  0.57638875  0.24932929  -0.00018881  1
  H  H154  1  0.92692185  0.40489855  0.50332939  1
  H  H155  1  0.57533104  0.74543306  0.50164179  1
  H  H156  1  0.05372201  0.24677589  0.49985727  1
  H  H157  1  0.19762803  0.24640245  0.49328961  1
  H  H158  1  0.79602810  0.43305602  0.50537589  1
  H  H159  1  0.41812774  0.91748064  0.00522414  1
  H  H160  1  0.58125041  0.41334372  0.99581349  1
  H  H161  1  0.56786066  0.08490529  0.49779830  1
  H  H162  1  0.82630981  0.91701035  0.50055091  1
  H  H163  1  0.08643376  0.08103018  0.99739012  1
  H  H164  1  0.20375090  0.91320341  1.00365227  1
  H  H165  1  0.09800469  0.58560580  0.00830464  1
  H  H166  1  0.29344841  0.57535714  1.00495577  1
  H  H167  1  0.94860703  0.41073651  1.00351509  1
  H  H168  1  0.43581099  0.74741301  1.00485339  1
  H  H169  1  0.64999688  0.41597935  0.48611122  1
  H  H170  1  0.17197266  0.75286627  0.49792293  1
  H  H171  1  0.94404075  0.59392612  -0.00197863  1
  H  H172  1  0.66249584  0.24793450  0.50364919  1
  H  H173  1  0.42050611  0.59130656  0.00688494  1
  H  H174  1  0.66792107  0.91430734  0.50674975  1
  H  H175  1  0.06269872  0.91669507  -0.00422524  1
  H  H176  1  0.83212193  0.75439514  0.00514674  1
  H  H177  1  0.29867656  0.57985367  0.49780775  1
  H  H178  1  0.10678904  0.41529707  0.99196767  1
  H  H179  1  0.80027805  0.41463861  -0.00426858  1
  H  H180  1  0.07435170  0.08018411  0.49861210  1
  H  H181  1  0.82832892  0.08581376  0.49785526  1
  H  H182  1  0.40860806  0.08239204  0.50848121  1
  H  H183  1  0.82839137  0.57749292  0.99852596  1
  H  H184  1  0.67774660  0.57141352  0.99771786  1
  H  H185  1  0.44929362  0.58542289  0.50250449  1
  H  H186  1  0.56983534  0.59814794  -0.00481106  1
  H  H187  1  0.41557445  0.25185844  0.49871435  1
  H  H188  1  0.84379213  0.24852149  0.99266551  1
  H  H189  1  0.33461640  0.08553298  0.00510940  1
  H  H190  1  0.83193375  0.74964895  0.49320792  1
  H  H191  1  0.92119137  0.08020588  0.99990369  1
  Pb  Pb192  1  0.25066808  0.04500248  0.75216338  1
  Pb  Pb193  1  0.25051692  0.37808178  0.74413520  1
  Pb  Pb194  1  0.24540293  0.71543416  0.75016314  1
  Pb  Pb195  1  0.74850136  0.04548714  0.75119962  1
  Pb  Pb196  1  0.74832264  0.38127033  0.74989568  1
  Pb  Pb197  1  0.75007122  0.71201590  0.74755708  1
  Pb  Pb198  1  0.24827681  0.28664727  0.25020142  1
  Pb  Pb199  1  0.25144423  0.61961470  0.25367144  1
  Pb  Pb200  1  0.24515343  0.95183721  0.24748738  1
  Pb  Pb201  1  0.74616860  0.28541813  0.24786784  1
  Pb  Pb202  1  0.74856286  0.62009553  0.24297918  1
  Pb  Pb203  1  0.74920297  0.95551612  0.25478510  1
  Pb  Pb204  1  0.00004485  0.21175990  0.74561565  1
  Pb  Pb205  1  -0.00139904  0.54628772  0.75359814  1
  Pb  Pb206  1  -0.00292819  0.87965478  0.75265368  1
  Pb  Pb207  1  0.50182278  0.21187202  0.75445326  1
  Pb  Pb208  1  0.49387066  0.54919591  0.75011728  1
  Pb  Pb209  1  0.50111617  0.87816737  0.75132293  1
  Pb  Pb210  1  0.00106478  0.12091820  0.24893497  1
  Pb  Pb211  1  -0.00349305  0.45133638  0.25254259  1
  Pb  Pb212  1  -0.00315280  0.78625921  0.25115777  1
  Pb  Pb213  1  0.49547241  0.11885370  0.25236905  1
  Pb  Pb214  1  0.49805149  0.45356765  0.24493183  1
  Pb  Pb215  1  0.50012958  0.78810981  0.24970256  1
  C  C216  1  0.00056039  0.04626767  0.63376415  1
  C  C217  1  -0.00010673  0.37878505  0.63433622  1
  C  C218  1  -0.00153444  0.71345352  0.63303617  1
  C  C219  1  0.49762912  0.04720006  0.63275163  1
  C  C220  1  0.50004655  0.37971170  0.63242939  1
  C  C221  1  0.49938654  0.71340514  0.63460299  1
  C  C222  1  -0.00095298  0.28658005  0.13284067  1
  C  C223  1  0.00105958  0.62130692  0.13398105  1
  C  C224  1  -0.00349676  0.95267858  0.13323521  1
  C  C225  1  0.49920325  0.28737255  0.13294046  1
  C  C226  1  0.50178770  0.62032759  0.13445482  1
  C  C227  1  0.49721264  0.95332248  0.13255085  1
  C  C228  1  -0.00022525  0.04662242  0.86643055  1
  C  C229  1  0.00243681  0.37914055  0.86761855  1
  C  C230  1  0.00304083  0.71447527  0.86824642  1
  C  C231  1  0.49867496  0.04678329  0.86710487  1
  C  C232  1  0.50206133  0.38018570  0.86849442  1
  C  C233  1  0.50172091  0.71427450  0.86655153  1
  C  C234  1  -0.00067108  0.28522554  0.36685908  1
  C  C235  1  0.00122690  0.62010739  0.36617970  1
  C  C236  1  0.00167302  0.95381901  0.36616588  1
  C  C237  1  0.49772095  0.28743566  0.36554149  1
  C  C238  1  0.50241606  0.62026612  0.36796617  1
  C  C239  1  0.49855386  0.95290995  0.36587982  1
  C  C240  1  0.25147408  0.21256287  0.63445679  1
  C  C241  1  0.25000924  0.54648015  0.63385390  1
  C  C242  1  0.24814311  0.88014271  0.63289250  1
  C  C243  1  0.75408979  0.21339225  0.63293754  1
  C  C244  1  0.74863266  0.54794221  0.62913142  1
  C  C245  1  0.74941007  0.88016898  0.63353911  1
  C  C246  1  0.25010662  0.11974996  0.13083109  1
  C  C247  1  0.24894817  0.45227087  0.13014871  1
  C  C248  1  0.24790825  0.78622889  0.13305113  1
  C  C249  1  0.74804380  0.12049884  0.13524969  1
  C  C250  1  0.74771857  0.45236666  0.13437311  1
  C  C251  1  0.74996123  0.78720220  0.13105545  1
  C  C252  1  0.25181700  0.21269030  0.86494301  1
  C  C253  1  0.25146657  0.54472624  0.86660066  1
  C  C254  1  0.25017607  0.87931786  0.86734566  1
  C  C255  1  0.75120632  0.21361124  0.86900517  1
  C  C256  1  0.74695568  0.54698890  0.86505576  1
  C  C257  1  0.75392124  0.87962424  0.86775791  1
  C  C258  1  0.25290329  0.11981146  0.36751541  1
  C  C259  1  0.24824515  0.45316419  0.36678343  1
  C  C260  1  0.25008401  0.78693911  0.36620470  1
  C  C261  1  0.75266341  0.12098445  0.36475482  1
  C  C262  1  0.74880586  0.45454419  0.36917175  1
  C  C263  1  0.75302297  0.78609176  0.36685286  1
  C  C264  1  0.78866949  0.23963355  0.53806381  1
  C  C265  1  0.02858569  0.74292283  0.96328545  1
  C  C266  1  0.19644650  0.76303529  0.04197764  1
  C  C267  1  0.05836924  0.40534236  0.95615069  1
  C  C268  1  0.04342273  0.07115343  0.96006446  1
  C  C269  1  0.21989382  0.90874564  0.53868901  1
  C  C270  1  0.53819587  0.59731858  0.03933710  1
  C  C271  1  0.78881317  0.57091097  0.53649025  1
  C  C272  1  0.70709327  0.23855068  0.54028379  1
  C  C273  1  0.19046922  0.42947712  0.04205664  1
  C  C274  1  0.70856962  0.57081624  0.53638966  1
  C  C275  1  0.53756299  0.92740832  0.03906076  1
  C  C276  1  0.79097287  0.57228499  0.95749264  1
  C  C277  1  0.02730051  0.92719827  0.03673184  1
  C  C278  1  0.03729985  0.59518697  0.45976685  1
  C  C279  1  0.45832431  0.26213598  0.46041102  1
  C  C280  1  0.04176328  0.40545224  0.54178687  1
  C  C281  1  0.53159444  0.07365572  0.53800935  1
  C  C282  1  0.76906411  0.42621667  0.03844887  1
  C  C283  1  0.27771129  0.76232488  0.03604000  1
  C  C284  1  0.02645079  0.26059611  0.03599354  1
  C  C285  1  0.21170436  0.76198799  0.45905396  1
  C  C286  1  0.45550350  0.07493795  0.95847915  1
  C  C287  1  0.47088975  0.73780557  0.96351454  1
  C  C288  1  0.94490587  0.26188352  0.04279282  1
  C  C289  1  0.53638277  0.73711017  0.54112498  1
  C  C290  1  0.96117518  0.07092195  0.96131314  1
  C  C291  1  0.31055789  0.23575595  0.54601410  1
  C  C292  1  0.78872719  0.09607026  0.45842118  1
  C  C293  1  0.78795301  0.90663603  0.53985484  1
  C  C294  1  0.71442625  0.09430222  0.04156679  1
  C  C295  1  0.94597085  0.92836141  0.04220870  1
  C  C296  1  0.46607360  0.92669000  0.45986508  1
  C  C297  1  0.71945274  0.24197121  0.96479014  1
  C  C298  1  0.54002625  0.26226297  0.45872839  1
  C  C299  1  0.21295354  0.09127195  0.03626509  1
  C  C300  1  0.78341295  0.90909855  0.96159988  1
  C  C301  1  0.95456533  0.07123951  0.54165476  1
  C  C302  1  0.53652561  0.26043720  0.03835664  1
  C  C303  1  0.28721142  0.23990502  0.95796081  1
  C  C304  1  0.22958447  0.23686139  0.53627988  1
  C  C305  1  0.45493414  0.26189431  0.04034580  1
  C  C306  1  0.03599082  0.07104633  0.53819177  1
  C  C307  1  0.55223183  0.73673853  0.95812017  1
  C  C308  1  0.05410562  0.59531429  0.04445434  1
  C  C309  1  0.29634571  0.09501920  0.45995437  1
  C  C310  1  0.95718590  0.74019831  0.54070670  1
  C  C311  1  0.27020772  0.42711111  0.03365880  1
  N  N312  1  0.27058196  0.57225384  0.53938741  1
  N  N313  1  0.94633885  0.26362399  0.45766512  1
  N  N314  1  0.71116884  0.57464803  0.95799153  1
  N  N315  1  0.97466846  0.59348293  0.03931850  1
  N  N316  1  0.70930292  0.09649890  0.45879404  1
  N  N317  1  0.26857195  0.57207100  0.96139683  1
  N  N318  1  0.45781525  0.92693069  0.04038614  1
  N  N319  1  0.69346119  0.43388808  0.45728626  1
  N  N320  1  0.23116682  0.90703962  0.96159336  1
  N  N321  1  0.21868729  0.09417129  0.46384028  1
  N  N322  1  0.96195542  0.40672090  0.54227552  1
  N  N323  1  0.30470438  0.42957438  0.45595106  1
  N  N324  1  0.55627591  0.59433109  0.45737204  1
  N  N325  1  0.95817536  0.92902954  0.45907832  1
  N  N326  1  0.20787211  0.23932589  0.95816748  1
  N  N327  1  0.54561343  0.92750442  0.45881780  1
  N  N328  1  0.79226773  0.76040829  0.45789586  1
  N  N329  1  0.71379157  0.76008778  0.03667560  1
  N  N330  1  0.95804261  0.59399609  0.45979180  1
  N  N331  1  0.95098666  0.74137762  0.95934260  1
  N  N332  1  0.19285833  0.56998606  0.54489653  1
  N  N333  1  0.79197495  0.76102131  0.04087676  1
  N  N334  1  0.29218998  0.09290186  0.03945434  1
  N  N335  1  0.03463727  0.92875495  0.46154439  1
  N  N336  1  0.45709362  0.73836064  0.54042385  1
  N  N337  1  0.30880202  0.90423925  0.95524831  1
  N  N338  1  0.71386179  0.75938172  0.46063298  1
  N  N339  1  0.19123862  0.57015509  0.95350359  1
  N  N340  1  0.70825189  0.90663693  0.54188411  1
  N  N341  1  0.53325840  0.07517561  0.96249712  1
  N  N342  1  0.03504564  0.74161058  0.53797589  1
  N  N343  1  0.54237287  0.40414555  0.95980651  1
  N  N344  1  0.97900519  0.40786092  0.96219695  1
  N  N345  1  0.02404808  0.26203443  0.46149327  1
  N  N346  1  0.47856490  0.59246276  0.46138523  1
  N  N347  1  0.79377195  0.09489030  0.04231198  1
  N  N348  1  0.45191369  0.07236600  0.54190346  1
  N  N349  1  0.29746449  0.90794989  0.54128318  1
  N  N350  1  0.47250398  0.40436492  0.53583249  1
  N  N351  1  0.45896728  0.59258467  0.04377157  1
  N  N352  1  0.70583912  0.90744622  0.95968743  1
  N  N353  1  0.54863705  0.40352356  0.54071715  1
  N  N354  1  0.69013923  0.42830661  0.04480562  1
  N  N355  1  0.46434738  0.40513188  0.96304253  1
  N  N356  1  0.29097659  0.76076151  0.46043830  1
  N  N357  1  0.77177249  0.42313630  0.46276059  1
  N  N358  1  0.79830812  0.24017067  0.95912506  1
  N  N359  1  0.22715960  0.42730854  0.46122003  1
  N  N360  1  0.06352086  0.05563205  0.59675855  1
  N  N361  1  0.06550688  0.38986685  0.59922772  1
  N  N362  1  0.06076757  0.72467462  0.59702536  1
  N  N363  1  0.56022308  0.05795403  0.59444072  1
  N  N364  1  0.56706713  0.38828604  0.60064193  1
  N  N365  1  0.56400429  0.72220410  0.59862184  1
  N  N366  1  0.43266849  0.27811910  0.09757082  1
  N  N367  1  0.43646670  0.60993136  0.10152137  1
  N  N368  1  0.43315398  0.94295874  0.09794823  1
  N  N369  1  0.92936177  0.27732831  0.10170412  1
  N  N370  1  0.94195120  0.61279800  0.09393052  1
  N  N371  1  0.92792055  0.94360375  0.10047345  1
  N  N372  1  0.43223865  0.05784619  0.90079570  1
  N  N373  1  0.43978396  0.39030849  0.90591428  1
  N  N374  1  0.44019747  0.72362410  0.90518845  1
  N  N375  1  0.93554175  0.05591962  0.90286078  1
  N  N376  1  0.94445762  0.38930257  0.90825798  1
  N  N377  1  0.93523309  0.72360895  0.89849392  1
  N  N378  1  0.05820330  0.27365098  0.40625768  1
  N  N379  1  0.06547972  0.61048947  0.40235885  1
  N  N380  1  0.06305443  0.94393447  0.40410864  1
  N  N381  1  0.56346528  0.27740444  0.40141447  1
  N  N382  1  0.57062893  0.61026946  0.39860568  1
  N  N383  1  0.56390231  0.94382764  0.39954182  1
  N  N384  1  0.32295841  0.22113360  0.60540769  1
  N  N385  1  0.30700955  0.55593480  0.59241304  1
  N  N386  1  0.31504280  0.88977847  0.60155748  1
  N  N387  1  0.81685544  0.22446585  0.59407258  1
  N  N388  1  0.81413915  0.55735800  0.59313758  1
  N  N389  1  0.81370371  0.89074941  0.59695450  1
  N  N390  1  0.18683678  0.10779591  0.09292772  1
  N  N391  1  0.17749184  0.44473688  0.10156403  1
  N  N392  1  0.17903204  0.77731343  0.10061733  1
  N  N393  1  0.68488847  0.11005268  0.09819052  1
  N  N394  1  0.67879339  0.44427742  0.10503593  1
  N  N395  1  0.68823170  0.77576430  0.09342928  1
  N  N396  1  0.18766332  0.22233195  0.89991751  1
  N  N397  1  0.18139011  0.55484191  0.89428232  1
  N  N398  1  0.19394400  0.88920286  0.90936820  1
  N  N399  1  0.69000037  0.22551170  0.90881386  1
  N  N400  1  0.68403652  0.55509237  0.90156761  1
  N  N401  1  0.68744509  0.88862853  0.89978960  1
  N  N402  1  0.31945308  0.11065203  0.40161722  1
  N  N403  1  0.31723553  0.44403658  0.39656879  1
  N  N404  1  0.31321610  0.77641088  0.40218683  1
  N  N405  1  0.81666352  0.11077073  0.40101146  1
  N  N406  1  0.80622170  0.44632860  0.41090241  1
  N  N407  1  0.81737356  0.77654464  0.40137296  1
  N  N408  1  0.43340469  0.27789896  0.40100930  1
  N  N409  1  0.44378510  0.61020882  0.40802409  1
  N  N410  1  0.43590049  0.94220731  0.40333944  1
  N  N411  1  0.93139475  0.27825254  0.39876047  1
  N  N412  1  0.93740274  0.60959398  0.40130562  1
  N  N413  1  0.93657653  0.94463695  0.39999210  1
  N  N414  1  0.06568459  0.05608267  0.90063640  1
  N  N415  1  0.07266506  0.38891923  0.89706273  1
  N  N416  1  0.06271078  0.72647896  0.90888383  1
  N  N417  1  0.56023613  0.05720066  0.90415193  1
  N  N418  1  0.56697702  0.38949862  0.90255454  1
  N  N419  1  0.57027184  0.72286525  0.89953696  1
  N  N420  1  0.05894658  0.27630445  0.09325981  1
  N  N421  1  0.07038930  0.61081474  0.10350192  1
  N  N422  1  0.05785353  0.94250140  0.09473191  1
  N  N423  1  0.56281922  0.27643510  0.09714406  1
  N  N424  1  0.56547218  0.61215695  0.09624859  1
  N  N425  1  0.56207890  0.94348780  0.09640606  1
  N  N426  1  0.43146997  0.05649354  0.60035402  1
  N  N427  1  0.44097748  0.38980296  0.59244777  1
  N  N428  1  0.43568316  0.72371125  0.59912239  1
  N  N429  1  0.93342362  0.05635158  0.59954867  1
  N  N430  1  0.93634795  0.38668745  0.59855882  1
  N  N431  1  0.93269461  0.72306463  0.59805801  1
  N  N432  1  0.19153741  0.10988285  0.40483765  1
  N  N433  1  0.19071243  0.44355734  0.40796118  1
  N  N434  1  0.18498743  0.77738446  0.40144190  1
  N  N435  1  0.68877620  0.11207448  0.40016998  1
  N  N436  1  0.67958297  0.44405730  0.39726201  1
  N  N437  1  0.69018616  0.77554307  0.40354319  1
  N  N438  1  0.31558074  0.22360329  0.90114162  1
  N  N439  1  0.30680181  0.55402409  0.90945993  1
  N  N440  1  0.31972283  0.88909558  0.89597056  1
  N  N441  1  0.81825335  0.22252108  0.90033161  1
  N  N442  1  0.81334656  0.55689384  0.89968945  1
  N  N443  1  0.81546504  0.89226420  0.90653043  1
  N  N444  1  0.31556400  0.11078171  0.09767471  1
  N  N445  1  0.30620800  0.44085208  0.08744293  1
  N  N446  1  0.30899939  0.77673831  0.09408869  1
  N  N447  1  0.81290316  0.11105422  0.10096774  1
  N  N448  1  0.80570569  0.44112640  0.09287584  1
  N  N449  1  0.81524651  0.77803428  0.09757103  1
  N  N450  1  0.19389316  0.22232988  0.59266370  1
  N  N451  1  0.18087345  0.55556569  0.60438482  1
  N  N452  1  0.18705995  0.89197850  0.59345695  1
  N  N453  1  0.68699186  0.22230197  0.60047784  1
  N  N454  1  0.68312408  0.55708897  0.59294708  1
  N  N455  1  0.68469648  0.88936306  0.59933339  1
  Cl  Cl456  1  0.24953792  0.05051692  0.62152808  1
  Cl  Cl457  1  0.24957693  0.39039898  0.60653048  1
  Cl  Cl458  1  0.24664883  0.71912701  0.61697172  1
  Cl  Cl459  1  0.74802703  0.05256393  0.61817532  1
  Cl  Cl460  1  0.75326144  0.39379492  0.60769277  1
  Cl  Cl461  1  0.75009498  0.72038255  0.61452141  1
  Cl  Cl462  1  0.24829445  0.28049775  0.11872397  1
  Cl  Cl463  1  0.25574877  0.60831229  0.11108547  1
  Cl  Cl464  1  0.24517849  0.94487492  0.10720932  1
  Cl  Cl465  1  0.74775561  0.27985783  0.11451911  1
  Cl  Cl466  1  0.75334497  0.60783572  0.10424142  1
  Cl  Cl467  1  0.74507504  0.94844189  0.12469267  1
  Cl  Cl468  1  0.25076528  0.05332933  0.88789239  1
  Cl  Cl469  1  0.25667845  0.38531305  0.87610141  1
  Cl  Cl470  1  0.25131447  0.71987355  0.88473900  1
  Cl  Cl471  1  0.74648693  0.05305099  0.88414499  1
  Cl  Cl472  1  0.75620850  0.38693928  0.88669066  1
  Cl  Cl473  1  0.75337791  0.71791412  0.88057488  1
  Cl  Cl474  1  0.24093140  0.28004612  0.38605636  1
  Cl  Cl475  1  0.25887856  0.60683124  0.39192394  1
  Cl  Cl476  1  0.24812675  0.94865709  0.37911938  1
  Cl  Cl477  1  0.74779172  0.28408011  0.38044932  1
  Cl  Cl478  1  0.75350034  0.61566049  0.37475561  1
  Cl  Cl479  1  0.75090165  0.94304109  0.39116330  1
  Cl  Cl480  1  0.00654587  0.22272313  0.60881270  1
  Cl  Cl481  1  -0.00066272  0.55007613  0.62231676  1
  Cl  Cl482  1  -0.00053288  0.88416125  0.62186892  1
  Cl  Cl483  1  0.50382577  0.21555672  0.62255410  1
  Cl  Cl484  1  0.48923357  0.55873618  0.61088330  1
  Cl  Cl485  1  0.50070932  0.88773990  0.61915465  1
  Cl  Cl486  1  0.00162942  0.11185665  0.11579614  1
  Cl  Cl487  1  -0.01228799  0.44256784  0.11214540  1
  Cl  Cl488  1  -0.00412066  0.78167892  0.11847208  1
  Cl  Cl489  1  0.49866485  0.11446898  0.12129043  1
  Cl  Cl490  1  0.49515141  0.44698501  0.11203140  1
  Cl  Cl491  1  0.49958220  0.77998579  0.11507878  1
  Cl  Cl492  1  0.00156400  0.22241372  0.87915394  1
  Cl  Cl493  1  -0.00423355  0.55748144  0.89165583  1
  Cl  Cl494  1  0.00853539  0.88746701  0.88846834  1
  Cl  Cl495  1  0.50344825  0.22044000  0.88754770  1
  Cl  Cl496  1  0.49342449  0.55986219  0.89530934  1
  Cl  Cl497  1  0.50196961  0.88796501  0.88723089  1
  Cl  Cl498  1  0.00466769  0.11553276  0.38297099  1
  Cl  Cl499  1  -0.00388038  0.43728134  0.39633201  1
  Cl  Cl500  1  -0.00081126  0.77966859  0.38276568  1
  Cl  Cl501  1  0.50240000  0.11195696  0.38850158  1
  Cl  Cl502  1  0.49965969  0.45041432  0.37692458  1
  Cl  Cl503  1  0.50426805  0.77886030  0.38263207  1
  Cl  Cl504  1  0.36447341  0.14411822  0.74745825  1
  Cl  Cl505  1  0.36155291  0.47993474  0.75086749  1
  Cl  Cl506  1  0.36447156  0.81172880  0.75145458  1
  Cl  Cl507  1  0.86349412  0.14489771  0.75103137  1
  Cl  Cl508  1  0.86271191  0.47816744  0.74972360  1
  Cl  Cl509  1  0.86226316  0.81111096  0.75066464  1
  Cl  Cl510  1  0.13733872  0.18852229  0.24987975  1
  Cl  Cl511  1  0.13561955  0.52134383  0.24677838  1
  Cl  Cl512  1  0.13926343  0.85667462  0.24634813  1
  Cl  Cl513  1  0.64056473  0.19040206  0.25411567  1
  Cl  Cl514  1  0.63672218  0.52228870  0.24784785  1
  Cl  Cl515  1  0.63799976  0.85432181  0.25259401  1
  Cl  Cl516  1  0.13830260  0.14525639  0.75372159  1
  Cl  Cl517  1  0.13619984  0.47820406  0.75035497  1
  Cl  Cl518  1  0.14105173  0.81017077  0.75042926  1
  Cl  Cl519  1  0.63853473  0.14490154  0.75028825  1
  Cl  Cl520  1  0.64120774  0.47722188  0.75050207  1
  Cl  Cl521  1  0.63766270  0.81095400  0.75240172  1
  Cl  Cl522  1  0.36225543  0.18913904  0.24907007  1
  Cl  Cl523  1  0.36041533  0.52237226  0.24987637  1
  Cl  Cl524  1  0.36374796  0.85600607  0.25006956  1
  Cl  Cl525  1  0.86334903  0.19089157  0.24717984  1
  Cl  Cl526  1  0.86120148  0.52005008  0.25056666  1
  Cl  Cl527  1  0.86250722  0.85512827  0.24964445  1
  Cl  Cl528  1  0.11293308  0.31265047  0.75107794  1
  Cl  Cl529  1  0.11276132  0.64351011  0.75034351  1
  Cl  Cl530  1  0.11378888  0.97771639  0.75311467  1
  Cl  Cl531  1  0.61395086  0.31196561  0.75171345  1
  Cl  Cl532  1  0.61378991  0.64415556  0.75526590  1
  Cl  Cl533  1  0.61268644  0.97810756  0.74952375  1
  Cl  Cl534  1  0.39047674  0.02437901  0.24775446  1
  Cl  Cl535  1  0.38689216  0.35561614  0.25010669  1
  Cl  Cl536  1  0.38602090  0.68808692  0.24780888  1
  Cl  Cl537  1  0.88509323  0.02260016  0.24933509  1
  Cl  Cl538  1  0.88842196  0.35641782  0.25125961  1
  Cl  Cl539  1  0.88937621  0.68844281  0.24923532  1
  Cl  Cl540  1  0.38942507  0.31160759  0.74913944  1
  Cl  Cl541  1  0.39115422  0.64250757  0.74988673  1
  Cl  Cl542  1  0.38715444  0.97744327  0.75150471  1
  Cl  Cl543  1  0.88781901  0.31159086  0.74825416  1
  Cl  Cl544  1  0.88708634  0.64423771  0.75435418  1
  Cl  Cl545  1  0.88798863  0.97730465  0.74896335  1
  Cl  Cl546  1  0.11274309  0.02224621  0.24867461  1
  Cl  Cl547  1  0.10967848  0.35573203  0.25025475  1
  Cl  Cl548  1  0.11376612  0.68859828  0.24646366  1
  Cl  Cl549  1  0.61196305  0.02147603  0.25352874  1
  Cl  Cl550  1  0.61349851  0.35713023  0.25037948  1
  Cl  Cl551  1  0.61251393  0.68707284  0.25039729  1
