# generated using pymatgen
data_H8PbC4(N3Cl2)2
_symmetry_space_group_name_H-M   'P 1'
_cell_length_a   16.63131740
_cell_length_b   22.52876677
_cell_length_c   21.60234315
_cell_angle_alpha   89.99890288
_cell_angle_beta   90.03790772
_cell_angle_gamma   90.00160281
_symmetry_Int_Tables_number   1
_chemical_formula_structural   H8PbC4(N3Cl2)2
_chemical_formula_sum   'H192 Pb24 C96 N144 Cl96'
_cell_volume   8094.03049346
_cell_formula_units_Z   24
loop_
 _symmetry_equiv_pos_site_id
 _symmetry_equiv_pos_as_xyz
  1  'x, y, z'
loop_
 _atom_site_type_symbol
 _atom_site_label
 _atom_site_symmetry_multiplicity
 _atom_site_fract_x
 _atom_site_fract_y
 _atom_site_fract_z
 _atom_site_occupancy
  H  H0  1  0.00760002  0.03092893  0.67973892  1
  H  H1  1  -0.00690386  0.36136490  0.67105822  1
  H  H2  1  0.00916101  0.69743812  0.67794106  1
  H  H3  1  0.50601012  0.02748615  0.67588989  1
  H  H4  1  0.50691567  0.35920085  0.67836840  1
  H  H5  1  0.48549641  0.68990052  0.67673845  1
  H  H6  1  0.00304182  0.30153127  0.17761271  1
  H  H7  1  0.00431328  0.63646028  0.17456964  1
  H  H8  1  -0.01827662  0.96971131  0.18104811  1
  H  H9  1  0.50813872  0.30554006  0.17410589  1
  H  H10  1  0.49309794  0.63866013  0.17668785  1
  H  H11  1  0.50332557  0.97171941  0.18001005  1
  H  H12  1  -0.00936304  0.03003607  0.82631184  1
  H  H13  1  0.02044054  0.36324934  0.82771430  1
  H  H14  1  -0.01362289  0.69080076  0.82335844  1
  H  H15  1  0.49882670  0.02870977  0.82378073  1
  H  H16  1  0.47976990  0.36689079  0.81799639  1
  H  H17  1  0.50686575  0.69756240  0.81679041  1
  H  H18  1  -0.01052989  0.30556165  0.31872956  1
  H  H19  1  -0.00952008  0.64081234  0.32289169  1
  H  H20  1  0.00914069  0.97104516  0.31869287  1
  H  H21  1  0.50123648  0.30681098  0.31770837  1
  H  H22  1  0.48776315  0.62951772  0.35177349  1
  H  H23  1  0.49696959  0.97383606  0.32535946  1
  H  H24  1  0.26039321  0.18956286  0.67605456  1
  H  H25  1  0.26355596  0.53085560  0.65658006  1
  H  H26  1  0.24295610  0.86504853  0.68358923  1
  H  H27  1  0.75637199  0.19220901  0.68346012  1
  H  H28  1  0.77119064  0.52514732  0.67873353  1
  H  H29  1  0.76814800  0.85661621  0.67507996  1
  H  H30  1  0.25776992  0.13796342  0.17552162  1
  H  H31  1  0.25954598  0.47139664  0.18243243  1
  H  H32  1  0.24329285  0.80466927  0.17963154  1
  H  H33  1  0.73016625  0.13165772  0.17961519  1
  H  H34  1  0.75692789  0.47663286  0.17315131  1
  H  H35  1  0.74380764  0.80352599  0.18093036  1
  H  H36  1  0.25835094  0.19282765  0.82032908  1
  H  H37  1  0.24809655  0.53071655  0.82222767  1
  H  H38  1  0.24661494  0.86217172  0.82206676  1
  H  H39  1  0.73862121  0.19171213  0.82690426  1
  H  H40  1  0.74473830  0.53112378  0.82824191  1
  H  H41  1  0.73645681  0.86455996  0.82197746  1
  H  H42  1  0.25342556  0.13805394  0.32160982  1
  H  H43  1  0.24048561  0.46837891  0.32333543  1
  H  H44  1  0.23592267  0.81104242  0.32679775  1
  H  H45  1  0.74488172  0.13669900  0.32422994  1
  H  H46  1  0.75551253  0.47458679  0.32168458  1
  H  H47  1  0.77684685  0.80593124  0.32729328  1
  H  H48  1  0.11339918  0.05620370  0.59703523  1
  H  H49  1  0.12225877  0.38779987  0.61082514  1
  H  H50  1  0.11200223  0.72686062  0.59103280  1
  H  H51  1  0.61244844  0.05730412  0.59278104  1
  H  H52  1  0.61659385  0.38982573  0.59701645  1
  H  H53  1  0.61467043  0.71709199  0.61186657  1
  H  H54  1  0.36553429  0.28831667  0.12345968  1
  H  H55  1  0.36789074  0.61143494  0.10688225  1
  H  H56  1  0.36541430  0.94993233  0.12338314  1
  H  H57  1  0.87030612  0.27463684  0.11708457  1
  H  H58  1  0.86235206  0.61734156  0.12654195  1
  H  H59  1  0.86739486  0.94393322  0.10220393  1
  H  H60  1  0.37968232  0.06019160  0.89517350  1
  H  H61  1  0.37523832  0.39011682  0.90309851  1
  H  H62  1  0.36816392  0.71471330  0.86903934  1
  H  H63  1  0.88201285  0.05575759  0.90872793  1
  H  H64  1  0.87388305  0.38348770  0.86973731  1
  H  H65  1  0.86217434  0.71899666  0.89379598  1
  H  H66  1  0.12761558  0.28971956  0.37330103  1
  H  H67  1  0.11604445  0.60660221  0.38431220  1
  H  H68  1  0.11840699  0.94475303  0.39840409  1
  H  H69  1  0.63474514  0.28372598  0.37650449  1
  H  H70  1  0.58784717  0.59939474  0.43704187  1
  H  H71  1  0.62406430  0.94926215  0.39167863  1
  H  H72  1  0.36682409  0.22509049  0.59561945  1
  H  H73  1  0.40467458  0.55107120  0.60513358  1
  H  H74  1  0.37901771  0.88521989  0.62271573  1
  H  H75  1  0.86671026  0.22237510  0.60400006  1
  H  H76  1  0.87673858  0.55181050  0.59368545  1
  H  H77  1  0.87492808  0.88923316  0.59411384  1
  H  H78  1  0.11848353  0.11740036  0.12284679  1
  H  H79  1  0.13378658  0.44210666  0.11588911  1
  H  H80  1  0.12854813  0.77572903  0.10360673  1
  H  H81  1  0.61596681  0.10847443  0.09777940  1
  H  H82  1  0.63325209  0.44752980  0.10388699  1
  H  H83  1  0.63840893  0.77447878  0.09732759  1
  H  H84  1  0.13969130  0.22124051  0.89612614  1
  H  H85  1  0.13252097  0.55891016  0.89788715  1
  H  H86  1  0.13138365  0.89006362  0.89817011  1
  H  H87  1  0.64152833  0.22610769  0.91363108  1
  H  H88  1  0.63598422  0.55791007  0.90912347  1
  H  H89  1  0.63720957  0.89524522  0.90984238  1
  H  H90  1  0.38698918  0.11170290  0.38246630  1
  H  H91  1  0.37656014  0.45266264  0.37940039  1
  H  H92  1  0.38083319  0.78838587  0.37047185  1
  H  H93  1  0.88034601  0.11516123  0.37882140  1
  H  H94  1  0.87849088  0.44692125  0.39422124  1
  H  H95  1  0.87733343  0.77447448  0.41325663  1
  H  H96  1  0.38666219  0.28084996  0.39490141  1
  H  H97  1  0.34584331  0.61162766  0.39728179  1
  H  H98  1  0.37494811  0.94723563  0.39380898  1
  H  H99  1  0.88196836  0.27820142  0.39954397  1
  H  H100  1  0.86920658  0.61951212  0.39881524  1
  H  H101  1  0.87138778  0.95287155  0.37477259  1
  H  H102  1  0.12785442  0.05358507  0.88200660  1
  H  H103  1  0.11232750  0.39906671  0.91801099  1
  H  H104  1  0.11049447  0.72014470  0.89219354  1
  H  H105  1  0.62843253  0.05365445  0.88911873  1
  H  H106  1  0.62022036  0.38318626  0.86925792  1
  H  H107  1  0.61320557  0.71975749  0.90094679  1
  H  H108  1  0.11772429  0.27598781  0.10120620  1
  H  H109  1  0.10683292  0.60899220  0.09004778  1
  H  H110  1  0.11509186  0.94633366  0.11921560  1
  H  H111  1  0.60857069  0.26985076  0.08988593  1
  H  H112  1  0.61633117  0.61111331  0.10765302  1
  H  H113  1  0.61218869  0.94527200  0.09837863  1
  H  H114  1  0.36662836  0.04753253  0.62160286  1
  H  H115  1  0.36977461  0.38406397  0.62301736  1
  H  H116  1  0.36644739  0.71926855  0.60297858  1
  H  H117  1  0.86710445  0.04555657  0.62530682  1
  H  H118  1  0.87385283  0.38821174  0.59974389  1
  H  H119  1  0.86815214  0.71648373  0.62471656  1
  H  H120  1  0.13955070  0.10889729  0.39999491  1
  H  H121  1  0.13040414  0.44212009  0.40377632  1
  H  H122  1  0.13921863  0.77347246  0.41307918  1
  H  H123  1  0.63443274  0.10744076  0.40257294  1
  H  H124  1  0.62973615  0.44803638  0.39121748  1
  H  H125  1  0.63510873  0.78678033  0.37299336  1
  H  H126  1  0.38789282  0.21818751  0.88793387  1
  H  H127  1  0.38067894  0.55549671  0.88374980  1
  H  H128  1  0.37921493  0.88778035  0.88418053  1
  H  H129  1  0.88244034  0.21346953  0.87086611  1
  H  H130  1  0.88156278  0.55121096  0.88135518  1
  H  H131  1  0.87920198  0.88427095  0.87173408  1
  H  H132  1  0.36338730  0.10544579  0.09239844  1
  H  H133  1  0.38063522  0.45383462  0.10759872  1
  H  H134  1  0.37647088  0.78053346  0.11707283  1
  H  H135  1  0.86348474  0.11324852  0.11523290  1
  H  H136  1  0.88080948  0.44633461  0.10361824  1
  H  H137  1  0.88403416  0.78128098  0.12767487  1
  H  H138  1  0.12265272  0.21815816  0.62312251  1
  H  H139  1  0.15837174  0.56216053  0.57567201  1
  H  H140  1  0.13248545  0.89103510  0.60023667  1
  H  H141  1  0.61970151  0.21549958  0.62480307  1
  H  H142  1  0.63120122  0.54768283  0.62521296  1
  H  H143  1  0.62890348  0.88171712  0.62261081  1
  H  H144  1  0.95025977  0.25375374  0.50676923  1
  H  H145  1  0.93020870  0.91438811  -0.00244512  1
  H  H146  1  0.29006613  0.25284729  0.49614177  1
  H  H147  1  0.31637384  0.44878920  0.00304175  1
  H  H148  1  0.22418576  0.59278626  0.47158429  1
  H  H149  1  0.72499791  0.24984199  1.01084834  1
  H  H150  1  0.35450213  0.08369775  0.49095849  1
  H  H151  1  0.22427573  0.74741793  0.50896966  1
  H  H152  1  0.52696980  0.24951447  -0.00869069  1
  H  H153  1  0.41917200  0.74911695  0.49652579  1
  H  H154  1  0.35631208  0.42116959  0.49418450  1
  H  H155  1  0.80754936  0.92454337  0.49316067  1
  H  H156  1  0.93992172  0.61130504  0.50213120  1
  H  H157  1  0.60609966  0.41576677  0.98229097  1
  H  H158  1  0.95479037  0.09508466  1.00281666  1
  H  H159  1  0.64412288  0.75037304  0.48637916  1
  H  H160  1  0.79814859  0.25164060  0.49939735  1
  H  H161  1  0.03136288  0.58212049  -0.01397031  1
  H  H162  1  0.19243967  0.92210017  1.00374852  1
  H  H163  1  0.03136420  0.75191407  0.49342790  1
  H  H164  1  0.86488659  0.58436815  1.00077716  1
  H  H165  1  0.19076972  0.74469388  -0.00249233  1
  H  H166  1  0.10442973  0.07704275  0.99272085  1
  H  H167  1  0.71243963  0.73909319  -0.00241468  1
  H  H168  1  0.05707859  0.24332791  -0.00578341  1
  H  H169  1  0.54463311  0.91847671  -0.00696581  1
  H  H170  1  0.38202358  0.24693510  0.01858820  1
  H  H171  1  0.44648496  0.25444219  0.50315247  1
  H  H172  1  0.05697105  0.54493118  0.47048492  1
  H  H173  1  0.91140421  0.74809712  0.99706937  1
  H  H174  1  0.54360282  0.74616589  1.00604564  1
  H  H175  1  0.19695111  0.58705404  1.00201534  1
  H  H176  1  0.42057396  0.91544703  0.50342544  1
  H  H177  1  0.39007146  0.92542991  0.01416139  1
  H  H178  1  0.83122182  0.41960680  -0.00076752  1
  H  H179  1  0.10907033  0.26205578  0.48790051  1
  H  H180  1  0.02137348  0.42462114  1.01084213  1
  H  H181  1  0.38449826  0.74082017  -0.01542948  1
  H  H182  1  0.19200345  0.38760783  0.02636022  1
  H  H183  1  0.44777526  0.41495993  1.00795293  1
  H  H184  1  0.05219588  0.91654972  0.50544487  1
  H  H185  1  0.72066095  0.92014792  1.00642392  1
  H  H186  1  0.60733592  0.25514441  0.48956906  1
  H  H187  1  0.89971727  0.25150506  0.00622420  1
  H  H188  1  0.64876483  0.91557119  0.51574299  1
  H  H189  1  0.04239928  0.08364056  0.49126220  1
  H  H190  1  0.79995264  0.58105482  0.49195499  1
  H  H191  1  0.86034434  0.08179790  0.49336753  1
  Pb  Pb192  1  0.24715292  0.04672207  0.74652220  1
  Pb  Pb193  1  0.24221741  0.38725921  0.76568999  1
  Pb  Pb194  1  0.24631671  0.71467995  0.74537888  1
  Pb  Pb195  1  0.74701845  0.04930254  0.75036924  1
  Pb  Pb196  1  0.74975325  0.38165804  0.74404405  1
  Pb  Pb197  1  0.74493754  0.71407963  0.75624712  1
  Pb  Pb198  1  0.25052440  0.28493773  0.25511599  1
  Pb  Pb199  1  0.24300038  0.61672976  0.23486141  1
  Pb  Pb200  1  0.24787158  0.95119119  0.25074484  1
  Pb  Pb201  1  0.74568084  0.28263208  0.24566423  1
  Pb  Pb202  1  0.74367250  0.61887038  0.26009847  1
  Pb  Pb203  1  0.74369263  0.94733667  0.24398279  1
  Pb  Pb204  1  0.00131934  0.21557289  0.75082692  1
  Pb  Pb205  1  -0.00115580  0.54893185  0.73676213  1
  Pb  Pb206  1  0.00041710  0.88192377  0.74471932  1
  Pb  Pb207  1  0.49584570  0.21777911  0.75320675  1
  Pb  Pb208  1  0.50338167  0.54777334  0.76462409  1
  Pb  Pb209  1  0.50173248  0.88150271  0.75807987  1
  Pb  Pb210  1  -0.00058475  0.11776499  0.24872706  1
  Pb  Pb211  1  -0.00466135  0.45049095  0.24989797  1
  Pb  Pb212  1  0.00158304  0.78355594  0.25966620  1
  Pb  Pb213  1  0.49796471  0.11679679  0.24219025  1
  Pb  Pb214  1  0.50163583  0.45379039  0.24565347  1
  Pb  Pb215  1  0.49836172  0.78022420  0.24364969  1
  C  C216  1  -0.00387784  0.04407856  0.63224905  1
  C  C217  1  -0.00336299  0.37945308  0.62450163  1
  C  C218  1  -0.00318091  0.71225610  0.63117844  1
  C  C219  1  0.49500554  0.04356721  0.62945538  1
  C  C220  1  0.49804574  0.37691855  0.63238289  1
  C  C221  1  0.48896582  0.70786606  0.63023828  1
  C  C222  1  -0.00412316  0.28572147  0.13033580  1
  C  C223  1  -0.00909872  0.62125262  0.12799383  1
  C  C224  1  -0.01179162  0.95386640  0.13393884  1
  C  C225  1  0.49373654  0.28833531  0.12838389  1
  C  C226  1  0.49196133  0.62083319  0.13019085  1
  C  C227  1  0.49288625  0.95727227  0.13268628  1
  C  C228  1  0.00035387  0.04633721  0.87316193  1
  C  C229  1  0.00243524  0.38104852  0.87233638  1
  C  C230  1  -0.01413726  0.70929330  0.86973856  1
  C  C231  1  0.50258559  0.04715041  0.86987057  1
  C  C232  1  0.49225867  0.38061973  0.86526795  1
  C  C233  1  0.49543715  0.71060568  0.86444581  1
  C  C234  1  0.00028712  0.29193831  0.36631473  1
  C  C235  1  -0.00844700  0.62244194  0.36937111  1
  C  C236  1  -0.00032417  0.95648600  0.36595978  1
  C  C237  1  0.50791341  0.29165849  0.36520347  1
  C  C238  1  0.47299419  0.61323626  0.39760888  1
  C  C239  1  0.49822480  0.95725726  0.37239421  1
  C  C240  1  0.25005424  0.20909985  0.63087310  1
  C  C241  1  0.27566859  0.54810196  0.61047657  1
  C  C242  1  0.25131685  0.87969973  0.63615282  1
  C  C243  1  0.74718347  0.20864174  0.63671500  1
  C  C244  1  0.75967526  0.54123353  0.63222226  1
  C  C245  1  0.75662990  0.87523833  0.62941654  1
  C  C246  1  0.24659164  0.12050984  0.12969667  1
  C  C247  1  0.25786165  0.45629295  0.13471009  1
  C  C248  1  0.24977558  0.78747458  0.13294149  1
  C  C249  1  0.73645935  0.11776321  0.13175890  1
  C  C250  1  0.75752881  0.45748231  0.12709781  1
  C  C251  1  0.75586180  0.78755082  0.13443278  1
  C  C252  1  0.26214471  0.20944039  0.86744719  1
  C  C253  1  0.25367573  0.54656100  0.86920160  1
  C  C254  1  0.25282240  0.87950057  0.86872118  1
  C  C255  1  0.75424788  0.20862574  0.87234222  1
  C  C256  1  0.75476152  0.54655204  0.87520421  1
  C  C257  1  0.75078785  0.88007873  0.86820834  1
  C  C258  1  0.26049943  0.12078619  0.36817446  1
  C  C259  1  0.24995431  0.45379451  0.37064569  1
  C  C260  1  0.25162991  0.79270985  0.37158714  1
  C  C261  1  0.75396387  0.12043575  0.37092915  1
  C  C262  1  0.75475345  0.45696925  0.36842912  1
  C  C263  1  0.76204202  0.78915814  0.37288911  1
  C  C264  1  0.30618794  0.58020393  0.95697127  1
  C  C265  1  0.94027665  0.93179422  0.45341337  1
  C  C266  1  0.96325435  0.41270442  0.53343760  1
  C  C267  1  0.73016502  0.08991121  0.46595045  1
  C  C268  1  0.02069078  0.92833297  0.46300645  1
  C  C269  1  0.44341793  0.40766841  0.54618093  1
  C  C270  1  0.32337768  0.76051146  0.45122557  1
  C  C271  1  0.46127420  0.92712403  0.46603515  1
  C  C272  1  0.69534710  0.75990974  0.45665744  1
  C  C273  1  0.52856895  0.58617387  0.03997053  1
  C  C274  1  0.30725044  0.42918911  0.46028278  1
  C  C275  1  0.81368174  0.57360901  0.96287860  1
  C  C276  1  0.98013707  0.26569408  0.46379465  1
  C  C277  1  0.51388185  0.73510120  0.96261342  1
  C  C278  1  0.47578298  0.40602251  0.96352253  1
  C  C279  1  0.73268242  0.57577794  0.97092522  1
  C  C280  1  0.76767711  0.23889942  0.54205405  1
  C  C281  1  0.48771028  0.58208751  0.49551933  1
  C  C282  1  0.96355981  0.92536495  0.03923614  1
  C  C283  1  0.74096228  0.75475469  0.04007925  1
  C  C284  1  0.77515595  0.75617361  0.46876616  1
  C  C285  1  0.45795244  0.73793245  0.53686789  1
  C  C286  1  0.93258297  0.06692533  0.54562509  1
  C  C287  1  0.92382943  0.59636192  0.04344410  1
  C  C288  1  0.77601493  0.91002217  0.53513189  1
  C  C289  1  0.81092733  0.09214848  0.45935093  1
  C  C290  1  0.01263436  0.07128442  0.53428404  1
  C  C291  1  0.48032720  0.26490592  0.46150741  1
  C  C292  1  0.56192795  0.26571444  0.45484894  1
  C  C293  1  0.18805590  0.09000240  0.04488569  1
  C  C294  1  0.77338821  0.57082146  0.53668589  1
  C  C295  1  0.22387743  0.75661492  0.03924696  1
  C  C296  1  0.51482450  0.92964777  0.03640062  1
  C  C297  1  0.22635774  0.91039312  0.96233828  1
  C  C298  1  0.25595400  0.57944429  0.51342444  1
  C  C299  1  0.06109991  0.26982768  0.45437733  1
  C  C300  1  0.22638517  0.42528328  0.46670912  1
  C  C301  1  0.47158090  0.08339865  0.96039108  1
  C  C302  1  0.33799282  0.57497420  0.52363135  1
  C  C303  1  0.43754154  0.07105283  0.54320630  1
  C  C304  1  0.40551688  0.58620286  0.48281531  1
  C  C305  1  0.02457147  0.25617216  0.03583579  1
  C  C306  1  0.04351395  0.41248479  0.53703589  1
  C  C307  1  0.54300452  0.92875534  0.46399558  1
  C  C308  1  0.00386025  0.59344418  0.03028287  1
  C  C309  1  0.55644559  0.40551250  0.95113982  1
  C  C310  1  0.43301213  0.73280279  0.95173988  1
  C  C311  1  0.82491445  0.23866754  0.95339300  1
  N  N312  1  0.71059542  0.09159024  0.03558010  1
  N  N313  1  0.53717433  0.73764411  0.53943942  1
  N  N314  1  0.81890804  0.90814477  0.95068168  1
  N  N315  1  0.03784681  0.58629804  0.45649416  1
  N  N316  1  0.94530679  0.25818569  0.04176722  1
  N  N317  1  0.45134286  0.58576029  0.03882513  1
  N  N318  1  0.00804832  0.74287711  0.53738190  1
  N  N319  1  0.42946673  0.26426473  0.04521696  1
  N  N320  1  0.81913069  0.75849844  0.04937849  1
  N  N321  1  0.69563812  0.57149273  0.54762334  1
  N  N322  1  0.78664042  0.09259502  0.04116905  1
  N  N323  1  0.43631855  0.93151354  0.04598868  1
  N  N324  1  0.21391152  0.42666028  0.04444417  1
  N  N325  1  0.04258038  0.92551206  0.04463523  1
  N  N326  1  0.29651313  0.42798741  0.04257274  1
  N  N327  1  0.50565462  0.24995778  0.03687706  1
  N  N328  1  0.22762819  0.57962533  0.96135797  1
  N  N329  1  0.79093575  0.42206852  0.45948125  1
  N  N330  1  0.30506190  0.90557149  0.54693557  1
  N  N331  1  0.92775522  0.41093109  0.95043070  1
  N  N332  1  0.18908544  0.24433372  0.54836236  1
  N  N333  1  0.95577232  0.59097983  0.46122465  1
  N  N334  1  0.68920113  0.23655479  0.54906182  1
  N  N335  1  0.02800937  0.74061781  0.96101507  1
  N  N336  1  0.94962791  0.74069605  0.95966712  1
  N  N337  1  0.00327652  0.41696344  0.96495205  1
  N  N338  1  0.79350055  0.42584935  0.03703165  1
  N  N339  1  0.22945393  0.90758400  0.53976597  1
  N  N340  1  0.74770997  0.24298233  0.96622217  1
  N  N341  1  0.98027654  0.06829251  0.96962801  1
  N  N342  1  0.23162987  0.09111625  0.46282940  1
  N  N343  1  0.71524700  0.42648591  0.03583016  1
  N  N344  1  0.74242602  0.91239343  0.96183859  1
  N  N345  1  0.30283183  0.75717351  0.04430714  1
  N  N346  1  0.05761890  0.07621232  0.95767642  1
  N  N347  1  0.93132999  0.73892284  0.54703782  1
  N  N348  1  0.54891062  0.08146930  0.95967393  1
  N  N349  1  0.23021217  0.23727121  0.96190705  1
  N  N350  1  0.26610863  0.24657616  0.53999672  1
  N  N351  1  0.51404167  0.07533790  0.53295492  1
  N  N352  1  0.30538384  0.91037749  0.95755101  1
  N  N353  1  0.24646468  0.75558990  0.46456053  1
  N  N354  1  0.71476425  0.42249992  0.45869915  1
  N  N355  1  0.69760001  0.90731892  0.54572199  1
  N  N356  1  0.51984118  0.41011927  0.53649043  1
  N  N357  1  0.26432482  0.08526608  0.03424577  1
  N  N358  1  0.30923630  0.09218141  0.45566924  1
  N  N359  1  0.30660151  0.23427505  0.95947169  1
  N  N360  1  0.05137745  0.05654662  0.58957092  1
  N  N361  1  0.06449747  0.39261234  0.59276610  1
  N  N362  1  0.04960136  0.72437126  0.58714656  1
  N  N363  1  0.54976183  0.05745250  0.58776643  1
  N  N364  1  0.55425155  0.39026385  0.59154017  1
  N  N365  1  0.55472094  0.71882135  0.59777133  1
  N  N366  1  0.42140830  0.27883724  0.10489295  1
  N  N367  1  0.42817445  0.60776704  0.09641839  1
  N  N368  1  0.42300315  0.95024557  0.10467897  1
  N  N369  1  0.92786130  0.27834604  0.09957955  1
  N  N370  1  0.91696247  0.61316013  0.10356805  1
  N  N371  1  0.92867555  0.94259461  0.09366003  1
  N  N372  1  0.44021506  0.06285393  0.90646603  1
  N  N373  1  0.43699273  0.39054869  0.90954677  1
  N  N374  1  0.42318258  0.71787669  0.89082617  1
  N  N375  1  0.94409158  0.06025941  0.91406219  1
  N  N376  1  0.92805775  0.39107680  0.89189779  1
  N  N377  1  0.92282146  0.72039495  0.90507540  1
  N  N378  1  0.07208679  0.28593953  0.39386677  1
  N  N379  1  0.05581603  0.60058209  0.39717241  1
  N  N380  1  0.05685711  0.94388622  0.40737496  1
  N  N381  1  0.57745454  0.28213341  0.39507249  1
  N  N382  1  0.52658005  0.59858282  0.44394854  1
  N  N383  1  0.56475697  0.94677451  0.40716737  1
  N  N384  1  0.30470181  0.22253925  0.58876824  1
  N  N385  1  0.34746346  0.55579889  0.58459000  1
  N  N386  1  0.32007145  0.88821382  0.60662006  1
  N  N387  1  0.80479922  0.22187726  0.59553602  1
  N  N388  1  0.81462097  0.55284263  0.58833922  1
  N  N389  1  0.81298514  0.89064115  0.58740756  1
  N  N390  1  0.17445257  0.11110581  0.10332718  1
  N  N391  1  0.19408532  0.43722939  0.10423410  1
  N  N392  1  0.18992112  0.77478993  0.09340028  1
  N  N393  1  0.67805209  0.10725429  0.09141479  1
  N  N394  1  0.69365163  0.44461027  0.09242065  1
  N  N395  1  0.70082391  0.77294495  0.09161428  1
  N  N396  1  0.20155394  0.22216830  0.90501155  1
  N  N397  1  0.19399880  0.55653745  0.90834741  1
  N  N398  1  0.19280211  0.89191043  0.90812073  1
  N  N399  1  0.70361252  0.22123458  0.91738868  1
  N  N400  1  0.69758981  0.55941362  0.91784609  1
  N  N401  1  0.69954520  0.89225411  0.91327145  1
  N  N402  1  0.32809106  0.11107699  0.39868136  1
  N  N403  1  0.32038872  0.44698133  0.39911609  1
  N  N404  1  0.32654804  0.78158068  0.39295224  1
  N  N405  1  0.82431094  0.11116408  0.39877937  1
  N  N406  1  0.81735766  0.44333179  0.40365003  1
  N  N407  1  0.81553104  0.77389570  0.41838610  1
  N  N408  1  0.44803443  0.28118748  0.40518021  1
  N  N409  1  0.39983246  0.60511815  0.42072822  1
  N  N410  1  0.43473075  0.94497858  0.40772986  1
  N  N411  1  0.94364005  0.27970944  0.40861595  1
  N  N412  1  0.93104290  0.61914511  0.40887145  1
  N  N413  1  0.92798740  0.94844933  0.39461010  1
  N  N414  1  0.07044800  0.05408543  0.90101748  1
  N  N415  1  0.04998447  0.39572176  0.91901139  1
  N  N416  1  0.04974249  0.72243989  0.90433138  1
  N  N417  1  0.56844438  0.05867911  0.90192598  1
  N  N418  1  0.56486496  0.38985304  0.89025168  1
  N  N419  1  0.55134595  0.72117556  0.90787801  1
  N  N420  1  0.05638655  0.27275102  0.09084962  1
  N  N421  1  0.04469908  0.60909978  0.08400338  1
  N  N422  1  0.05589519  0.94304889  0.10373770  1
  N  N423  1  0.54628807  0.27445198  0.08443788  1
  N  N424  1  0.55629157  0.60737510  0.09472411  1
  N  N425  1  0.55025522  0.94501357  0.09035981  1
  N  N426  1  0.42326888  0.05236149  0.60235819  1
  N  N427  1  0.42727698  0.38830195  0.60454306  1
  N  N428  1  0.42716665  0.72015942  0.59260193  1
  N  N429  1  0.92300701  0.05069142  0.60501150  1
  N  N430  1  0.93388732  0.39266481  0.58683869  1
  N  N431  1  0.92489337  0.72119414  0.60591649  1
  N  N432  1  0.20165510  0.10814751  0.40792733  1
  N  N433  1  0.19191798  0.43992871  0.41278057  1
  N  N434  1  0.20136604  0.77871264  0.41664765  1
  N  N435  1  0.69563579  0.10676015  0.41279246  1
  N  N436  1  0.69066211  0.44436066  0.40240089  1
  N  N437  1  0.68889830  0.78031533  0.39608171  1
  N  N438  1  0.32791567  0.21719952  0.90104424  1
  N  N439  1  0.32263335  0.56021401  0.89971811  1
  N  N440  1  0.32031826  0.89094168  0.89882697  1
  N  N441  1  0.82917835  0.21922323  0.89430883  1
  N  N442  1  0.82595328  0.55555034  0.90240145  1
  N  N443  1  0.82333293  0.88997035  0.89168165  1
  N  N444  1  0.30076296  0.10470648  0.08829102  1
  N  N445  1  0.31966927  0.45417600  0.09631768  1
  N  N446  1  0.31738233  0.77635229  0.10288397  1
  N  N447  1  0.80406071  0.10823523  0.10097158  1
  N  N448  1  0.82046808  0.44596755  0.09183818  1
  N  N449  1  0.82674857  0.77889364  0.10841219  1
  N  N450  1  0.17965516  0.22283156  0.60556586  1
  N  N451  1  0.21961905  0.56270442  0.56808874  1
  N  N452  1  0.19463519  0.89162034  0.59476514  1
  N  N453  1  0.67795282  0.21783528  0.60819976  1
  N  N454  1  0.68887358  0.55306101  0.60693947  1
  N  N455  1  0.68612828  0.88544266  0.60345542  1
  Cl  Cl456  1  0.23874225  0.05633850  0.61456796  1
  Cl  Cl457  1  0.24716554  0.38410011  0.63406942  1
  Cl  Cl458  1  0.23440892  0.72657600  0.60098281  1
  Cl  Cl459  1  0.73488579  0.05373872  0.61556354  1
  Cl  Cl460  1  0.74451732  0.38622668  0.61503802  1
  Cl  Cl461  1  0.74062605  0.72212489  0.62545432  1
  Cl  Cl462  1  0.23843538  0.28805084  0.12204983  1
  Cl  Cl463  1  0.23215437  0.60625784  0.09877631  1
  Cl  Cl464  1  0.24067424  0.94095872  0.11516341  1
  Cl  Cl465  1  0.73042284  0.27035850  0.10325151  1
  Cl  Cl466  1  0.73629553  0.61506586  0.12843153  1
  Cl  Cl467  1  0.73575987  0.93760225  0.10231115  1
  Cl  Cl468  1  0.25279688  0.05682037  0.87732106  1
  Cl  Cl469  1  0.23981734  0.39640993  0.90478806  1
  Cl  Cl470  1  0.23172079  0.71857541  0.87847002  1
  Cl  Cl471  1  0.75928283  0.05171692  0.88249924  1
  Cl  Cl472  1  0.74734720  0.38012689  0.87831895  1
  Cl  Cl473  1  0.73837982  0.72168705  0.89289032  1
  Cl  Cl474  1  0.26460663  0.27092374  0.39363491  1
  Cl  Cl475  1  0.23132031  0.62167148  0.36958615  1
  Cl  Cl476  1  0.24523219  0.94426943  0.38034965  1
  Cl  Cl477  1  0.76279188  0.27163469  0.37893593  1
  Cl  Cl478  1  0.74636761  0.61077856  0.39555088  1
  Cl  Cl479  1  0.74608533  0.94497186  0.37780760  1
  Cl  Cl480  1  -0.01000562  0.22646896  0.61846125  1
  Cl  Cl481  1  0.00890558  0.55966977  0.60041117  1
  Cl  Cl482  1  0.00494125  0.88846042  0.60846700  1
  Cl  Cl483  1  0.48622327  0.22667479  0.61974998  1
  Cl  Cl484  1  0.51217789  0.54648268  0.63105515  1
  Cl  Cl485  1  0.50349890  0.88358423  0.62663112  1
  Cl  Cl486  1  -0.01142919  0.11358336  0.11042412  1
  Cl  Cl487  1  0.01037670  0.43990019  0.10517815  1
  Cl  Cl488  1  0.00846397  0.77587020  0.12784402  1
  Cl  Cl489  1  0.48941909  0.10972498  0.10726795  1
  Cl  Cl490  1  0.50469855  0.44433800  0.10932905  1
  Cl  Cl491  1  0.51335556  0.77949605  0.10870419  1
  Cl  Cl492  1  0.01691659  0.22075434  0.88768224  1
  Cl  Cl493  1  0.01341928  0.55871495  0.87342195  1
  Cl  Cl494  1  0.00777579  0.88765687  0.87769792  1
  Cl  Cl495  1  0.51722496  0.23034359  0.89684544  1
  Cl  Cl496  1  0.51059349  0.55668513  0.89193520  1
  Cl  Cl497  1  0.51428608  0.89497662  0.89383385  1
  Cl  Cl498  1  0.01753106  0.11024754  0.38109115  1
  Cl  Cl499  1  0.00511601  0.45149284  0.38434493  1
  Cl  Cl500  1  0.01531551  0.76959184  0.40160514  1
  Cl  Cl501  1  0.50974100  0.10791632  0.37380120  1
  Cl  Cl502  1  0.50733199  0.45208457  0.37408425  1
  Cl  Cl503  1  0.50428211  0.78513389  0.37361988  1
  Cl  Cl504  1  0.36508114  0.14411756  0.74750721  1
  Cl  Cl505  1  0.37308116  0.47474477  0.76029150  1
  Cl  Cl506  1  0.36818935  0.80820853  0.76174016  1
  Cl  Cl507  1  0.86788607  0.14471792  0.75756654  1
  Cl  Cl508  1  0.86686448  0.47945441  0.76036376  1
  Cl  Cl509  1  0.86538425  0.81019220  0.75800409  1
  Cl  Cl510  1  0.13874533  0.18449132  0.24727457  1
  Cl  Cl511  1  0.14731454  0.51566447  0.24702565  1
  Cl  Cl512  1  0.14243096  0.84680286  0.25162022  1
  Cl  Cl513  1  0.64672983  0.18507561  0.25513260  1
  Cl  Cl514  1  0.64817135  0.51015458  0.24585996  1
  Cl  Cl515  1  0.64921193  0.84710102  0.25339082  1
  Cl  Cl516  1  0.14177653  0.15204241  0.74585324  1
  Cl  Cl517  1  0.15547434  0.48929684  0.74406573  1
  Cl  Cl518  1  0.14454319  0.82032639  0.74872073  1
  Cl  Cl519  1  0.64248449  0.15399352  0.75237430  1
  Cl  Cl520  1  0.64555547  0.48653562  0.75465065  1
  Cl  Cl521  1  0.64518138  0.82100121  0.74847385  1
  Cl  Cl522  1  0.36166714  0.18478494  0.24463004  1
  Cl  Cl523  1  0.36351720  0.52204585  0.25342345  1
  Cl  Cl524  1  0.36657640  0.85407645  0.24280373  1
  Cl  Cl525  1  0.87052448  0.19165788  0.23055256  1
  Cl  Cl526  1  0.86653292  0.52376629  0.24285552  1
  Cl  Cl527  1  0.87042903  0.85648183  0.24934128  1
  Cl  Cl528  1  0.10545943  0.32072550  0.74977275  1
  Cl  Cl529  1  0.10641972  0.65304754  0.74573543  1
  Cl  Cl530  1  0.10233276  0.98811840  0.75628449  1
  Cl  Cl531  1  0.60726025  0.31871804  0.74950205  1
  Cl  Cl532  1  0.60196076  0.65455243  0.74572563  1
  Cl  Cl533  1  0.60494427  0.98651473  0.75228086  1
  Cl  Cl534  1  0.38627597  0.01953592  0.25200315  1
  Cl  Cl535  1  0.38517723  0.35482270  0.24352667  1
  Cl  Cl536  1  0.38865595  0.68860656  0.24772251  1
  Cl  Cl537  1  0.88389001  0.02323591  0.25699660  1
  Cl  Cl538  1  0.89188839  0.35580469  0.23888740  1
  Cl  Cl539  1  0.88303381  0.68919720  0.24528752  1
  Cl  Cl540  1  0.38248968  0.30853032  0.75901214  1
  Cl  Cl541  1  0.37915688  0.64118729  0.75244922  1
  Cl  Cl542  1  0.38359466  0.97695467  0.74544612  1
  Cl  Cl543  1  0.88606526  0.31337339  0.75654041  1
  Cl  Cl544  1  0.88786037  0.64355544  0.74465204  1
  Cl  Cl545  1  0.88187250  0.97824051  0.74461875  1
  Cl  Cl546  1  0.10587489  0.01463644  0.23850605  1
  Cl  Cl547  1  0.11311199  0.35277756  0.25504492  1
  Cl  Cl548  1  0.10210296  0.67719891  0.25080315  1
  Cl  Cl549  1  0.60852291  0.01456815  0.24484862  1
  Cl  Cl550  1  0.60779440  0.34801056  0.24405944  1
  Cl  Cl551  1  0.60140955  0.67613738  0.26402734  1
