# generated using pymatgen
data_H8PbC4(N3Cl2)2
_symmetry_space_group_name_H-M   'P 1'
_cell_length_a   16.62863562
_cell_length_b   22.51492516
_cell_length_c   21.59455239
_cell_angle_alpha   90.00176858
_cell_angle_beta   90.00227918
_cell_angle_gamma   90.00262574
_symmetry_Int_Tables_number   1
_chemical_formula_structural   H8PbC4(N3Cl2)2
_chemical_formula_sum   'H192 Pb24 C96 N144 Cl96'
_cell_volume   8084.83814408
_cell_formula_units_Z   24
loop_
 _symmetry_equiv_pos_site_id
 _symmetry_equiv_pos_as_xyz
  1  'x, y, z'
loop_
 _atom_site_type_symbol
 _atom_site_label
 _atom_site_symmetry_multiplicity
 _atom_site_fract_x
 _atom_site_fract_y
 _atom_site_fract_z
 _atom_site_occupancy
  H  H0  1  0.00573115  0.02505821  0.67772608  1
  H  H1  1  0.00145611  0.36192840  0.67781541  1
  H  H2  1  0.00890992  0.69788938  0.68239548  1
  H  H3  1  0.49499248  0.02808101  0.68009435  1
  H  H4  1  0.49296262  0.36625309  0.67904339  1
  H  H5  1  0.50244175  0.69566181  0.68249143  1
  H  H6  1  0.00637320  0.30457816  0.18045106  1
  H  H7  1  -0.01512128  0.63740811  0.17589153  1
  H  H8  1  -0.00643561  0.96899495  0.18038472  1
  H  H9  1  0.50246394  0.30568098  0.17606411  1
  H  H10  1  0.51862650  0.63907305  0.17470285  1
  H  H11  1  0.51153877  0.96848959  0.17996622  1
  H  H12  1  -0.01553660  0.02892953  0.82120911  1
  H  H13  1  0.00734988  0.36297530  0.82197186  1
  H  H14  1  0.01378694  0.69856240  0.82311330  1
  H  H15  1  0.51510760  0.03049837  0.82600753  1
  H  H16  1  0.48822325  0.36425432  0.82576961  1
  H  H17  1  0.50349530  0.69847562  0.82574158  1
  H  H18  1  0.01046477  0.30286043  0.31868545  1
  H  H19  1  0.00105687  0.63580890  0.32171553  1
  H  H20  1  0.01245042  0.97181227  0.32341321  1
  H  H21  1  0.49079409  0.31494168  0.32456168  1
  H  H22  1  0.50252779  0.63782916  0.32294432  1
  H  H23  1  0.49063874  0.96939166  0.31743693  1
  H  H24  1  0.26212111  0.19880373  0.68081345  1
  H  H25  1  0.25550847  0.53035459  0.67952628  1
  H  H26  1  0.24700875  0.86317708  0.67721031  1
  H  H27  1  0.73459984  0.19407957  0.67616436  1
  H  H28  1  0.76079656  0.53076707  0.67504003  1
  H  H29  1  0.75866164  0.86334624  0.67846778  1
  H  H30  1  0.24095209  0.13702508  0.17641894  1
  H  H31  1  0.24025286  0.47055274  0.18017855  1
  H  H32  1  0.23970451  0.80258126  0.17258678  1
  H  H33  1  0.75912350  0.13841608  0.17845922  1
  H  H34  1  0.76373434  0.46741728  0.17933924  1
  H  H35  1  0.74441988  0.80340868  0.18203902  1
  H  H36  1  0.24861569  0.19509700  0.82004822  1
  H  H37  1  0.25306032  0.53085627  0.82731109  1
  H  H38  1  0.25466744  0.85964431  0.82004954  1
  H  H39  1  0.73839117  0.19701137  0.82097554  1
  H  H40  1  0.74926254  0.53182156  0.81458711  1
  H  H41  1  0.74097738  0.86124565  0.81702122  1
  H  H42  1  0.25296098  0.13509261  0.31853998  1
  H  H43  1  0.24623622  0.46752541  0.31956907  1
  H  H44  1  0.24210639  0.80186438  0.31678542  1
  H  H45  1  0.75537836  0.13616051  0.32172771  1
  H  H46  1  0.75551074  0.47285701  0.32408827  1
  H  H47  1  0.75451576  0.80816622  0.31923238  1
  H  H48  1  0.12660745  0.05236067  0.60323845  1
  H  H49  1  0.12917549  0.38548007  0.60929698  1
  H  H50  1  0.12003562  0.72239623  0.60273953  1
  H  H51  1  0.63309107  0.05082187  0.62409741  1
  H  H52  1  0.63137662  0.38435991  0.62147279  1
  H  H53  1  0.62316999  0.71996295  0.60932478  1
  H  H54  1  0.36730599  0.28188289  0.11930024  1
  H  H55  1  0.37452190  0.62269980  0.12700996  1
  H  H56  1  0.36781274  0.95163063  0.13164733  1
  H  H57  1  0.87053245  0.28229372  0.12445206  1
  H  H58  1  0.89017077  0.60818403  0.08786555  1
  H  H59  1  0.87171409  0.94638072  0.10872682  1
  H  H60  1  0.37609643  0.05060049  0.88094848  1
  H  H61  1  0.37648801  0.39352796  0.90452192  1
  H  H62  1  0.36609447  0.71655940  0.87939888  1
  H  H63  1  0.88206063  0.05956800  0.90805286  1
  H  H64  1  0.87201126  0.38460525  0.88050818  1
  H  H65  1  0.87498214  0.71491158  0.87456165  1
  H  H66  1  0.12036316  0.28199958  0.40100306  1
  H  H67  1  0.12813547  0.61044601  0.39116085  1
  H  H68  1  0.12891364  0.94603099  0.39981611  1
  H  H69  1  0.62047207  0.28037832  0.38359671  1
  H  H70  1  0.63243126  0.61208623  0.38797034  1
  H  H71  1  0.62678258  0.94780899  0.37828264  1
  H  H72  1  0.37648054  0.22616405  0.60280640  1
  H  H73  1  0.36874924  0.55675363  0.59909229  1
  H  H74  1  0.36872120  0.88991043  0.60628353  1
  H  H75  1  0.87670000  0.21646300  0.62838585  1
  H  H76  1  0.86607228  0.55764746  0.59049715  1
  H  H77  1  0.87057781  0.89001031  0.59970474  1
  H  H78  1  0.12709144  0.10888168  0.09881731  1
  H  H79  1  0.12891424  0.44382586  0.09950574  1
  H  H80  1  0.13804127  0.77304517  0.08811417  1
  H  H81  1  0.62107723  0.11528287  0.12396734  1
  H  H82  1  0.62581152  0.44805871  0.12045188  1
  H  H83  1  0.63032962  0.77703321  0.10137508  1
  H  H84  1  0.13582701  0.22353751  0.89866376  1
  H  H85  1  0.12422821  0.55521266  0.89157666  1
  H  H86  1  0.13369186  0.88526865  0.89474894  1
  H  H87  1  0.63454522  0.22601715  0.90606481  1
  H  H88  1  0.62546685  0.55330992  0.88496357  1
  H  H89  1  0.63194372  0.88774985  0.89888005  1
  H  H90  1  0.36552481  0.10745084  0.39750064  1
  H  H91  1  0.36350291  0.44584337  0.39443666  1
  H  H92  1  0.37706488  0.78307220  0.37514972  1
  H  H93  1  0.86836101  0.10776247  0.40126783  1
  H  H94  1  0.86789901  0.44298201  0.40170815  1
  H  H95  1  0.87833232  0.78191375  0.39149582  1
  H  H96  1  0.37248766  0.27854817  0.39516960  1
  H  H97  1  0.38453473  0.60973263  0.39831882  1
  H  H98  1  0.37955246  0.94382281  0.40076859  1
  H  H99  1  0.87393418  0.28282951  0.37368185  1
  H  H100  1  0.87988781  0.60983324  0.39407324  1
  H  H101  1  0.88068199  0.95070828  0.38347974  1
  H  H102  1  0.12532461  0.04963794  0.87330878  1
  H  H103  1  0.11958410  0.39305544  0.90077048  1
  H  H104  1  0.11955639  0.72380063  0.90672499  1
  H  H105  1  0.62139510  0.06127755  0.90857085  1
  H  H106  1  0.62364565  0.38411617  0.88504511  1
  H  H107  1  0.61236295  0.72465459  0.90655445  1
  H  H108  1  0.11720247  0.27475916  0.09998415  1
  H  H109  1  0.13119821  0.62407042  0.13216902  1
  H  H110  1  0.12097405  0.94567936  0.11504470  1
  H  H111  1  0.61405420  0.27419122  0.09724317  1
  H  H112  1  0.61603543  0.60631180  0.08766176  1
  H  H113  1  0.61205538  0.94360417  0.09341329  1
  H  H114  1  0.38579568  0.05386793  0.59851320  1
  H  H115  1  0.38402722  0.39151425  0.59811466  1
  H  H116  1  0.37399143  0.72015920  0.61484831  1
  H  H117  1  0.87839550  0.05253634  0.61029871  1
  H  H118  1  0.88033416  0.38899725  0.60597148  1
  H  H119  1  0.87246748  0.71475508  0.62518180  1
  H  H120  1  0.11769483  0.11350586  0.37966328  1
  H  H121  1  0.11461946  0.44708599  0.38273930  1
  H  H122  1  0.12935955  0.78186372  0.39667133  1
  H  H123  1  0.62166684  0.11203209  0.38343786  1
  H  H124  1  0.62079120  0.44861780  0.38343388  1
  H  H125  1  0.62974973  0.78014654  0.38928872  1
  H  H126  1  0.38339345  0.21978632  0.88044233  1
  H  H127  1  0.37267307  0.55733186  0.90073924  1
  H  H128  1  0.38242042  0.88366772  0.88670862  1
  H  H129  1  0.87864363  0.22003790  0.87129857  1
  H  H130  1  0.87492928  0.55122056  0.88332619  1
  H  H131  1  0.87878434  0.88187294  0.87535755  1
  H  H132  1  0.37509185  0.11436778  0.11595195  1
  H  H133  1  0.37627749  0.44758106  0.12068556  1
  H  H134  1  0.38106610  0.78603852  0.12458494  1
  H  H135  1  0.86740058  0.10844024  0.09650364  1
  H  H136  1  0.87139995  0.44133588  0.09408885  1
  H  H137  1  0.87834971  0.77971902  0.11846365  1
  H  H138  1  0.12963585  0.21559199  0.61783347  1
  H  H139  1  0.12206414  0.54831395  0.61693750  1
  H  H140  1  0.11981329  0.88719018  0.60808799  1
  H  H141  1  0.63335996  0.22669785  0.59013411  1
  H  H142  1  0.62103241  0.55098574  0.62146884  1
  H  H143  1  0.62374158  0.88189804  0.62198231  1
  H  H144  1  0.97328140  0.58196192  -0.01348999  1
  H  H145  1  0.91912782  0.91398498  0.00011151  1
  H  H146  1  0.04835090  0.25336371  -0.00253957  1
  H  H147  1  0.59313230  0.41652577  0.99233760  1
  H  H148  1  0.89547727  0.74621130  0.51252721  1
  H  H149  1  0.17550200  0.21345626  0.50798900  1
  H  H150  1  0.19766241  0.41555750  -0.00537906  1
  H  H151  1  0.35191015  0.75733714  0.48928391  1
  H  H152  1  0.34394805  0.08576282  0.00851710  1
  H  H153  1  0.30057626  0.58483670  0.49846359  1
  H  H154  1  0.08076339  0.57949076  0.49438195  1
  H  H155  1  0.15900965  0.58766148  0.99942598  1
  H  H156  1  0.89375431  0.25354648  0.01043840  1
  H  H157  1  0.30751822  0.42011259  0.50575354  1
  H  H158  1  0.05375093  0.26121927  0.50879926  1
  H  H159  1  0.59151574  0.58546859  0.49425983  1
  H  H160  1  0.53459420  0.91426215  -0.00931409  1
  H  H161  1  0.30467873  0.27204430  0.51313522  1
  H  H162  1  0.60773739  0.07701173  0.51501392  1
  H  H163  1  0.91174276  0.91909368  0.49733188  1
  H  H164  1  0.96340643  0.08416631  1.00551773  1
  H  H165  1  0.45228451  0.42179551  0.49240542  1
  H  H166  1  0.71513240  0.24987263  0.49181302  1
  H  H167  1  0.20207700  0.25413557  1.00357738  1
  H  H168  1  0.56933673  0.75329223  0.50279990  1
  H  H169  1  0.38492831  0.58719980  0.02012746  1
  H  H170  1  0.29914337  0.07643195  0.50216219  1
  H  H171  1  0.54513135  0.24659700  -0.00427431  1
  H  H172  1  0.05072892  0.42049859  1.00284055  1
  H  H173  1  0.19166225  0.75903839  0.50573846  1
  H  H174  1  0.37920799  0.75263885  1.00247749  1
  H  H175  1  0.18691114  0.07818140  -0.00686758  1
  H  H176  1  0.08179426  0.91197605  0.00457995  1
  H  H177  1  0.05538307  0.75181493  0.49578285  1
  H  H178  1  0.89037957  0.74602383  -0.01016396  1
  H  H179  1  0.71297797  0.25012276  1.00586240  1
  H  H180  1  0.45367998  0.07965118  0.49257574  1
  H  H181  1  0.89380198  0.25633912  0.48886314  1
  H  H182  1  0.53121476  0.59309634  -0.00977495  1
  H  H183  1  0.60655521  0.41450956  0.51370832  1
  H  H184  1  0.67155024  0.57601831  0.99745471  1
  H  H185  1  0.83161198  0.57599016  0.99630440  1
  H  H186  1  0.34418683  0.91497730  0.99659067  1
  H  H187  1  0.70192796  0.91707671  1.00255525  1
  H  H188  1  0.64738257  0.91311642  0.50807882  1
  H  H189  1  0.79435991  0.08034899  -0.00328146  1
  H  H190  1  0.44076217  0.25554068  0.49809337  1
  H  H191  1  0.57037279  0.25750714  0.49126275  1
  Pb  Pb192  1  0.25318991  0.04606895  0.74379464  1
  Pb  Pb193  1  0.24678340  0.38336516  0.75173768  1
  Pb  Pb194  1  0.24708438  0.71311550  0.74890496  1
  Pb  Pb195  1  0.75193204  0.04732135  0.76239135  1
  Pb  Pb196  1  0.75216269  0.37901888  0.74638859  1
  Pb  Pb197  1  0.74507234  0.71415634  0.75362378  1
  Pb  Pb198  1  0.24673691  0.28666455  0.25557246  1
  Pb  Pb199  1  0.25260815  0.61969667  0.26033782  1
  Pb  Pb200  1  0.24956917  0.95131211  0.25885183  1
  Pb  Pb201  1  0.74530860  0.28560132  0.24844639  1
  Pb  Pb202  1  0.74927111  0.61885436  0.24042094  1
  Pb  Pb203  1  0.74958127  0.95396982  0.24115857  1
  Pb  Pb204  1  0.00519935  0.21318082  0.75797421  1
  Pb  Pb205  1  -0.00589147  0.54776787  0.74397418  1
  Pb  Pb206  1  0.00148391  0.88023779  0.74848780  1
  Pb  Pb207  1  0.50173013  0.21693423  0.75228894  1
  Pb  Pb208  1  0.49846771  0.54706554  0.75317303  1
  Pb  Pb209  1  0.49933134  0.88033869  0.75188352  1
  Pb  Pb210  1  0.00068135  0.11806105  0.24207846  1
  Pb  Pb211  1  -0.00362658  0.45348277  0.24162898  1
  Pb  Pb212  1  0.00129935  0.78484183  0.24980492  1
  Pb  Pb213  1  0.49581461  0.11925878  0.25455242  1
  Pb  Pb214  1  0.49815353  0.45313443  0.25169092  1
  Pb  Pb215  1  0.50342423  0.78640133  0.24728277  1
  C  C216  1  0.00379952  0.04256406  0.63093336  1
  C  C217  1  0.00403535  0.37882147  0.63097680  1
  C  C218  1  0.00007656  0.71193951  0.63473352  1
  C  C219  1  0.50530104  0.04423026  0.63327027  1
  C  C220  1  0.50358398  0.38129437  0.63181273  1
  C  C221  1  0.49960409  0.71180995  0.63518241  1
  C  C222  1  -0.00187347  0.28863757  0.13332750  1
  C  C223  1  0.00221252  0.62300821  0.12974691  1
  C  C224  1  -0.00458516  0.95328313  0.13282278  1
  C  C225  1  0.49477939  0.28896600  0.12942050  1
  C  C226  1  0.50285001  0.62317485  0.12860505  1
  C  C227  1  0.49715724  0.95461272  0.13313044  1
  C  C228  1  -0.00304834  0.04496594  0.86757735  1
  C  C229  1  -0.00010086  0.37911177  0.86879214  1
  C  C230  1  0.00167370  0.71269243  0.87018715  1
  C  C231  1  0.50389801  0.04690222  0.87220733  1
  C  C232  1  0.49650654  0.38040392  0.87262963  1
  C  C233  1  0.49355652  0.71335871  0.87288803  1
  C  C234  1  0.00118221  0.28914817  0.36639208  1
  C  C235  1  0.00365394  0.61942130  0.36886769  1
  C  C236  1  0.00669045  0.95637309  0.37067556  1
  C  C237  1  0.49462858  0.29313725  0.36941425  1
  C  C238  1  0.50666713  0.62069243  0.36976545  1
  C  C239  1  0.49883348  0.95424206  0.36473852  1
  C  C240  1  0.25600152  0.21316793  0.63299429  1
  C  C241  1  0.24911174  0.54504136  0.63197475  1
  C  C242  1  0.24485242  0.87950763  0.63013807  1
  C  C243  1  0.74788028  0.21052073  0.63007546  1
  C  C244  1  0.74888767  0.54623992  0.62860718  1
  C  C245  1  0.75012008  0.87810973  0.63122792  1
  C  C246  1  0.24811541  0.12031656  0.12943455  1
  C  C247  1  0.24872079  0.45443825  0.13328689  1
  C  C248  1  0.25353379  0.78732887  0.12615270  1
  C  C249  1  0.74935506  0.12173790  0.13210912  1
  C  C250  1  0.75385042  0.45265869  0.13203323  1
  C  C251  1  0.75109277  0.78780122  0.13475938  1
  C  C252  1  0.25636861  0.21200569  0.86673159  1
  C  C253  1  0.24959222  0.54776964  0.87425180  1
  C  C254  1  0.25682539  0.87587698  0.86726755  1
  C  C255  1  0.75046094  0.21243651  0.86772160  1
  C  C256  1  0.74984011  0.54540915  0.86285466  1
  C  C257  1  0.75097208  0.87672392  0.86401875  1
  C  C258  1  0.24518881  0.11966686  0.36572885  1
  C  C259  1  0.24180811  0.45364490  0.36745815  1
  C  C260  1  0.24990595  0.78870999  0.36484102  1
  C  C261  1  0.74841879  0.12000624  0.36882073  1
  C  C262  1  0.74761598  0.45554672  0.37032828  1
  C  C263  1  0.75420989  0.79101149  0.36618342  1
  C  C264  1  0.77175468  0.42298306  0.46422360  1
  C  C265  1  0.94276973  0.40986001  0.95619708  1
  C  C266  1  0.19119263  0.42950351  0.45833481  1
  C  C267  1  0.26776887  0.09020466  0.46026048  1
  C  C268  1  0.50761883  0.92711247  0.03466005  1
  C  C269  1  0.95796012  0.92520715  0.03889458  1
  C  C270  1  0.22035223  0.09032354  0.03452689  1
  C  C271  1  0.04013845  0.92450107  0.04105033  1
  C  C272  1  0.02307417  0.26706446  0.46474995  1
  C  C273  1  0.79218242  0.56736441  0.95719984  1
  C  C274  1  0.77564770  0.90686662  0.53548553  1
  C  C275  1  0.23367297  0.24248704  0.96110692  1
  C  C276  1  0.03768925  0.92734346  0.46524955  1
  C  C277  1  0.71005928  0.56757546  0.95777669  1
  C  C278  1  0.07622539  0.60086188  0.04795250  1
  C  C279  1  0.48302661  0.07150177  0.53678755  1
  C  C280  1  0.28443341  0.57678902  0.96889070  1
  C  C281  1  0.48148074  0.40998322  0.53580182  1
  C  C282  1  0.47001106  0.41258066  0.96794343  1
  C  C283  1  0.73205770  0.90543182  0.95932045  1
  C  C284  1  0.81582965  0.23980634  0.54726023  1
  C  C285  1  0.53230064  0.74122994  0.54241558  1
  C  C286  1  0.30559971  0.76635491  0.45488723  1
  C  C287  1  0.29921889  0.90407967  0.95851333  1
  C  C288  1  0.76455983  0.57704901  0.53303853  1
  C  C289  1  0.94187035  0.26597520  0.45501685  1
  C  C290  1  0.97005174  0.41071756  0.53902668  1
  C  C291  1  0.31932125  0.76186311  0.04156719  1
  C  C292  1  0.68867956  0.08921308  0.04703010  1
  C  C293  1  0.27953539  0.91013975  0.53799145  1
  C  C294  1  0.02023339  0.74053362  0.96700650  1
  C  C295  1  0.23964081  0.75738151  0.03002444  1
  C  C296  1  0.94256544  0.73681167  0.54615052  1
  C  C297  1  0.51508619  0.74189356  0.96858193  1
  C  C298  1  0.99793171  0.59471921  0.03128414  1
  C  C299  1  0.93968636  0.73755639  0.95754980  1
  C  C300  1  0.22404633  0.76654567  0.46269137  1
  C  C301  1  0.42841672  0.93084152  0.04942504  1
  C  C302  1  0.69461222  0.90409759  0.54177831  1
  C  C303  1  0.43701876  0.25726605  0.04277022  1
  C  C304  1  0.94025766  0.26112985  0.04625724  1
  C  C305  1  0.02399966  0.73948799  0.53807085  1
  C  C306  1  0.43448844  0.73930343  0.96010605  1
  C  C307  1  0.81552437  0.24214748  0.95159987  1
  C  C308  1  0.95631162  0.92891812  0.46153702  1
  C  C309  1  0.22796129  0.42602641  0.03800587  1
  C  C310  1  0.52091788  0.07951306  0.96721084  1
  C  C311  1  0.27232436  0.42910825  0.46430232  1
  N  N312  1  0.56007031  0.40753846  0.54521097  1
  N  N313  1  0.54286549  0.24643893  0.45000633  1
  N  N314  1  0.69456691  0.42497596  0.45930139  1
  N  N315  1  0.72504664  0.75889345  0.03950934  1
  N  N316  1  0.20530816  0.57683186  0.96462594  1
  N  N317  1  0.71515354  0.76002594  0.45820170  1
  N  N318  1  0.20303477  0.23632786  0.54340296  1
  N  N319  1  0.98623089  0.07632744  0.96141207  1
  N  N320  1  0.55210989  0.92765108  0.45361338  1
  N  N321  1  0.81058000  0.90402427  0.95149554  1
  N  N322  1  0.73796475  0.24372757  0.96252144  1
  N  N323  1  0.04241635  0.59036554  0.45879555  1
  N  N324  1  0.56156784  0.07194130  0.54699251  1
  N  N325  1  0.28573864  0.23497381  0.53682416  1
  N  N326  1  0.19341022  0.56878164  0.54254369  1
  N  N327  1  0.22007134  0.90493347  0.96156924  1
  N  N328  1  0.55021635  0.59250274  0.45882381  1
  N  N329  1  0.51553992  0.25549475  0.03640959  1
  N  N330  1  0.73852927  0.24255981  0.53535450  1
  N  N331  1  0.30660905  0.42644542  0.04519022  1
  N  N332  1  0.18901403  0.09325266  0.45493181  1
  N  N333  1  0.51117671  0.58799183  0.03516198  1
  N  N334  1  0.45305621  0.74110004  0.54373000  1
  N  N335  1  0.46124192  0.24583362  0.45398027  1
  N  N336  1  0.96157717  0.07509824  0.54023891  1
  N  N337  1  0.54832357  0.40868028  0.96046660  1
  N  N338  1  0.43495066  0.60228711  0.04594452  1
  N  N339  1  0.04732423  0.40902086  0.53847554  1
  N  N340  1  0.03766387  0.07533689  0.53826201  1
  N  N341  1  0.77346131  0.08924069  0.46371058  1
  N  N342  1  0.68791455  0.57474119  0.54197769  1
  N  N343  1  0.27128561  0.57071699  0.53769400  1
  N  N344  1  0.47217661  0.59138825  0.46367858  1
  N  N345  1  0.69736854  0.09108735  0.45786114  1
  N  N346  1  0.76679367  0.08860804  0.03863365  1
  N  N347  1  0.31247164  0.24193133  0.95493891  1
  N  N348  1  0.01928752  0.25790382  0.03930595  1
  N  N349  1  0.44432857  0.07571843  0.95951166  1
  N  N350  1  0.02125507  0.41141409  0.96208206  1
  N  N351  1  0.77283151  0.42524688  0.03507508  1
  N  N352  1  0.79142415  0.76042224  0.45870970  1
  N  N353  1  0.80083472  0.75946161  0.04535204  1
  N  N354  1  0.20231249  0.90896883  0.53733973  1
  N  N355  1  0.06299284  0.07245987  0.95126130  1
  N  N356  1  0.96431315  0.59029607  0.46171237  1
  N  N357  1  0.29953456  0.09158523  0.04159188  1
  N  N358  1  0.69726966  0.42759636  0.04344725  1
  N  N359  1  0.47658495  0.92638929  0.46093557  1
  N  N360  1  0.06548002  0.05512065  0.59436346  1
  N  N361  1  0.06885061  0.38905918  0.59725759  1
  N  N362  1  0.05850890  0.72389382  0.59361419  1
  N  N363  1  0.57504841  0.05408968  0.60607274  1
  N  N364  1  0.57342104  0.39000730  0.60432335  1
  N  N365  1  0.56224610  0.72356222  0.59815167  1
  N  N366  1  0.42396372  0.27716825  0.10051702  1
  N  N367  1  0.42985820  0.61454590  0.10630961  1
  N  N368  1  0.42252181  0.94706484  0.10898421  1
  N  N369  1  0.92706480  0.27837802  0.10523551  1
  N  N370  1  0.95221478  0.60865996  0.08384017  1
  N  N371  1  0.93163298  0.94298439  0.09623400  1
  N  N372  1  0.43366741  0.05508629  0.89915151  1
  N  N373  1  0.43754000  0.39517816  0.91370858  1
  N  N374  1  0.42211723  0.72179083  0.90011794  1
  N  N375  1  0.94448952  0.05727240  0.91176744  1
  N  N376  1  0.92938317  0.39049480  0.89819520  1
  N  N377  1  0.92976006  0.72021316  0.89621527  1
  N  N378  1  0.05879472  0.28119282  0.40909978  1
  N  N379  1  0.06797285  0.60830187  0.40290730  1
  N  N380  1  0.06792799  0.94374059  0.41049195  1
  N  N381  1  0.56121170  0.27900662  0.39936811  1
  N  N382  1  0.57261204  0.61113860  0.40248867  1
  N  N383  1  0.56758840  0.94454345  0.39400530  1
  N  N384  1  0.31478823  0.22944508  0.59551985  1
  N  N385  1  0.30676368  0.55730806  0.59183841  1
  N  N386  1  0.30849588  0.89236365  0.59366978  1
  N  N387  1  0.82208277  0.22121471  0.60626585  1
  N  N388  1  0.80413655  0.55957775  0.58479528  1
  N  N389  1  0.80906216  0.89112418  0.58954277  1
  N  N390  1  0.18813181  0.10762109  0.08927879  1
  N  N391  1  0.19068761  0.44279682  0.09178948  1
  N  N392  1  0.19980233  0.77289167  0.08143003  1
  N  N393  1  0.67776028  0.10929354  0.10508700  1
  N  N394  1  0.68425023  0.44387912  0.10386668  1
  N  N395  1  0.69276719  0.77695793  0.09440095  1
  N  N396  1  0.19761965  0.22446902  0.90731045  1
  N  N397  1  0.18381692  0.55895192  0.90612885  1
  N  N398  1  0.19534484  0.88693135  0.90451266  1
  N  N399  1  0.69689309  0.22203464  0.91175186  1
  N  N400  1  0.68513519  0.55396355  0.89885552  1
  N  N401  1  0.69408400  0.88919115  0.90603372  1
  N  N402  1  0.30394647  0.10694299  0.40627128  1
  N  N403  1  0.30295227  0.44411355  0.40625333  1
  N  N404  1  0.32001040  0.77990856  0.39402191  1
  N  N405  1  0.80646091  0.10752322  0.40879250  1
  N  N406  1  0.80649879  0.44109011  0.41073898  1
  N  N407  1  0.81717692  0.77975823  0.40189362  1
  N  N408  1  0.43368104  0.27827589  0.40569175  1
  N  N409  1  0.44585615  0.60809677  0.40752893  1
  N  N410  1  0.44198499  0.94296778  0.40614526  1
  N  N411  1  0.93008879  0.27960114  0.39373925  1
  N  N412  1  0.94073229  0.60812217  0.40526339  1
  N  N413  1  0.93831273  0.94686549  0.40141621  1
  N  N414  1  0.06885985  0.05475583  0.89239667  1
  N  N415  1  0.05775313  0.39061331  0.90912067  1
  N  N416  1  0.05752915  0.72547654  0.91450726  1
  N  N417  1  0.55980374  0.06220473  0.91480179  1
  N  N418  1  0.56527795  0.38887056  0.90166627  1
  N  N419  1  0.55069291  0.72610396  0.91550094  1
  N  N420  1  0.05500200  0.27795964  0.09198987  1
  N  N421  1  0.07812959  0.61764011  0.10776217  1
  N  N422  1  0.06174830  0.94185975  0.09963414  1
  N  N423  1  0.55223413  0.27714333  0.08899388  1
  N  N424  1  0.55389204  0.61101404  0.08317914  1
  N  N425  1  0.54970441  0.94234318  0.08830204  1
  N  N426  1  0.44771030  0.05571443  0.59069767  1
  N  N427  1  0.44589351  0.39383501  0.58955335  1
  N  N428  1  0.43423924  0.72275807  0.60205279  1
  N  N429  1  0.93892008  0.05472133  0.59762601  1
  N  N430  1  0.94076490  0.39255114  0.59451238  1
  N  N431  1  0.92937473  0.71993005  0.60628367  1
  N  N432  1  0.17667042  0.11106858  0.39576392  1
  N  N433  1  0.17301681  0.44399285  0.40005191  1
  N  N434  1  0.19070440  0.78021707  0.40620031  1
  N  N435  1  0.68043231  0.11014551  0.39904925  1
  N  N436  1  0.67933508  0.44541483  0.39948601  1
  N  N437  1  0.69065466  0.77871090  0.40092613  1
  N  N438  1  0.32476967  0.22289831  0.89603171  1
  N  N439  1  0.31202375  0.55950067  0.91260592  1
  N  N440  1  0.32294246  0.88684473  0.90071015  1
  N  N441  1  0.82372568  0.22398981  0.89256060  1
  N  N442  1  0.81550794  0.55385742  0.89796930  1
  N  N443  1  0.82063664  0.88614490  0.89194744  1
  N  N444  1  0.31617865  0.11059331  0.09974556  1
  N  N445  1  0.31760229  0.44399890  0.10446634  1
  N  N446  1  0.32676522  0.78012873  0.10192059  1
  N  N447  1  0.80530477  0.11041323  0.09014609  1
  N  N448  1  0.80923491  0.44087893  0.08957874  1
  N  N449  1  0.81861332  0.77691292  0.10428716  1
  N  N450  1  0.18844040  0.21433490  0.60086871  1
  N  N451  1  0.18050243  0.55233221  0.60128505  1
  N  N452  1  0.18036405  0.88959945  0.59605204  1
  N  N453  1  0.69538759  0.22184972  0.58569761  1
  N  N454  1  0.67816178  0.55541667  0.60281350  1
  N  N455  1  0.68017301  0.88638296  0.60239574  1
  Cl  Cl456  1  0.25955376  0.05570430  0.60852623  1
  Cl  Cl457  1  0.26038024  0.38379303  0.61573196  1
  Cl  Cl458  1  0.24549808  0.72010196  0.61416275  1
  Cl  Cl459  1  0.75678442  0.05256150  0.63068814  1
  Cl  Cl460  1  0.75643270  0.38300359  0.61312746  1
  Cl  Cl461  1  0.74567232  0.71446054  0.62132655  1
  Cl  Cl462  1  0.23669740  0.27438804  0.12016657  1
  Cl  Cl463  1  0.25478461  0.61862077  0.12875463  1
  Cl  Cl464  1  0.24231353  0.95069714  0.12769848  1
  Cl  Cl465  1  0.73616298  0.26978991  0.10540229  1
  Cl  Cl466  1  0.74611332  0.60519063  0.10453254  1
  Cl  Cl467  1  0.73813124  0.94692759  0.10539940  1
  Cl  Cl468  1  0.25177110  0.05477193  0.87778181  1
  Cl  Cl469  1  0.24345135  0.39391675  0.88804697  1
  Cl  Cl470  1  0.23879111  0.71739870  0.88088561  1
  Cl  Cl471  1  0.75798185  0.06217374  0.90185542  1
  Cl  Cl472  1  0.74688233  0.38069031  0.87760361  1
  Cl  Cl473  1  0.73625363  0.71967787  0.88084351  1
  Cl  Cl474  1  0.24898124  0.27722655  0.39542947  1
  Cl  Cl475  1  0.25889317  0.60786226  0.39696891  1
  Cl  Cl476  1  0.25602783  0.94538866  0.39162431  1
  Cl  Cl477  1  0.74168709  0.27526481  0.38782238  1
  Cl  Cl478  1  0.75495042  0.60938721  0.37530729  1
  Cl  Cl479  1  0.75132004  0.94732619  0.37156182  1
  Cl  Cl480  1  0.00721417  0.22419266  0.62604507  1
  Cl  Cl481  1  -0.00597432  0.55348347  0.61120044  1
  Cl  Cl482  1  -0.00597019  0.89016824  0.61535111  1
  Cl  Cl483  1  0.50427420  0.23304533  0.59419796  1
  Cl  Cl484  1  0.49058990  0.55316656  0.62049721  1
  Cl  Cl485  1  0.49175130  0.88896990  0.62459031  1
  Cl  Cl486  1  -0.00797697  0.10735597  0.10004892  1
  Cl  Cl487  1  0.00240133  0.43988588  0.10149335  1
  Cl  Cl488  1  0.00729430  0.77488144  0.11818651  1
  Cl  Cl489  1  0.49719487  0.11889815  0.12290412  1
  Cl  Cl490  1  0.50225113  0.44698639  0.11872285  1
  Cl  Cl491  1  0.51194807  0.77468762  0.11469084  1
  Cl  Cl492  1  0.01332701  0.22789634  0.89605516  1
  Cl  Cl493  1  0.00108888  0.54949450  0.87971497  1
  Cl  Cl494  1  0.00970539  0.88546960  0.88256757  1
  Cl  Cl495  1  0.51487578  0.22817282  0.89062239  1
  Cl  Cl496  1  0.49801264  0.56000249  0.89301504  1
  Cl  Cl497  1  0.50958513  0.88799256  0.88754197  1
  Cl  Cl498  1  -0.00978565  0.11163794  0.37256895  1
  Cl  Cl499  1  -0.01035961  0.44704227  0.37302905  1
  Cl  Cl500  1  0.00314437  0.77940919  0.38622132  1
  Cl  Cl501  1  0.49165472  0.10672258  0.39067102  1
  Cl  Cl502  1  0.49047355  0.44204782  0.38766783  1
  Cl  Cl503  1  0.50684126  0.77778934  0.38003644  1
  Cl  Cl504  1  0.36519247  0.14853881  0.74995102  1
  Cl  Cl505  1  0.36320403  0.48083695  0.75624262  1
  Cl  Cl506  1  0.36060325  0.81318001  0.75091609  1
  Cl  Cl507  1  0.86548714  0.14775284  0.75554811  1
  Cl  Cl508  1  0.85740274  0.48160331  0.74923591  1
  Cl  Cl509  1  0.86255494  0.81176550  0.75192751  1
  Cl  Cl510  1  0.13899523  0.18349113  0.25182444  1
  Cl  Cl511  1  0.13899193  0.51969707  0.25124310  1
  Cl  Cl512  1  0.14000143  0.85107311  0.24982360  1
  Cl  Cl513  1  0.63256218  0.18689673  0.25563247  1
  Cl  Cl514  1  0.63493333  0.51906938  0.25363023  1
  Cl  Cl515  1  0.64345585  0.85025138  0.25028091  1
  Cl  Cl516  1  0.14489290  0.14936592  0.74918599  1
  Cl  Cl517  1  0.14618221  0.48213114  0.74634891  1
  Cl  Cl518  1  0.14041348  0.81602735  0.74427627  1
  Cl  Cl519  1  0.64051254  0.14752251  0.74810892  1
  Cl  Cl520  1  0.63567853  0.47781816  0.74242947  1
  Cl  Cl521  1  0.63968354  0.81582569  0.74313545  1
  Cl  Cl522  1  0.35821211  0.18591372  0.25059909  1
  Cl  Cl523  1  0.36066374  0.51845236  0.24576352  1
  Cl  Cl524  1  0.36311341  0.85305497  0.24419361  1
  Cl  Cl525  1  0.85482132  0.18725094  0.24597832  1
  Cl  Cl526  1  0.85732692  0.51597093  0.24797564  1
  Cl  Cl527  1  0.86602161  0.85509296  0.24137490  1
  Cl  Cl528  1  0.11018807  0.31734544  0.75009245  1
  Cl  Cl529  1  0.10731656  0.64774539  0.74970609  1
  Cl  Cl530  1  0.11222290  0.98221644  0.75534059  1
  Cl  Cl531  1  0.61415153  0.31220368  0.74420439  1
  Cl  Cl532  1  0.60753534  0.64857360  0.75551959  1
  Cl  Cl533  1  0.61293209  0.98145912  0.75095920  1
  Cl  Cl534  1  0.38542553  0.01930416  0.24631886  1
  Cl  Cl535  1  0.38696604  0.35134150  0.24607688  1
  Cl  Cl536  1  0.38855187  0.68709934  0.24960590  1
  Cl  Cl537  1  0.88824119  0.01907162  0.24509763  1
  Cl  Cl538  1  0.88401164  0.35170744  0.24516309  1
  Cl  Cl539  1  0.89365814  0.68177581  0.25035942  1
  Cl  Cl540  1  0.39634725  0.31334089  0.75048622  1
  Cl  Cl541  1  0.38670042  0.64775572  0.75113506  1
  Cl  Cl542  1  0.39335419  0.98388146  0.75665482  1
  Cl  Cl543  1  0.89024153  0.31225602  0.75668271  1
  Cl  Cl544  1  0.88630674  0.64550826  0.75620852  1
  Cl  Cl545  1  0.88836537  0.97975835  0.75539115  1
  Cl  Cl546  1  0.10907357  0.02100130  0.25128998  1
  Cl  Cl547  1  0.10766731  0.35246780  0.24999546  1
  Cl  Cl548  1  0.11535967  0.68514365  0.25237645  1
  Cl  Cl549  1  0.60817873  0.01933200  0.25143282  1
  Cl  Cl550  1  0.60769764  0.35161150  0.25518232  1
  Cl  Cl551  1  0.60785747  0.68201447  0.25101723  1
