# generated using pymatgen
data_H8PbC4(N3Cl2)2
_symmetry_space_group_name_H-M   'P 1'
_cell_length_a   16.62580903
_cell_length_b   22.52127948
_cell_length_c   21.59680003
_cell_angle_alpha   90.00143258
_cell_angle_beta   89.99741211
_cell_angle_gamma   89.99979045
_symmetry_Int_Tables_number   1
_chemical_formula_structural   H8PbC4(N3Cl2)2
_chemical_formula_sum   'H192 Pb24 C96 N144 Cl96'
_cell_volume   8086.58683358
_cell_formula_units_Z   24
loop_
 _symmetry_equiv_pos_site_id
 _symmetry_equiv_pos_as_xyz
  1  'x, y, z'
loop_
 _atom_site_type_symbol
 _atom_site_label
 _atom_site_symmetry_multiplicity
 _atom_site_fract_x
 _atom_site_fract_y
 _atom_site_fract_z
 _atom_site_occupancy
  H  H0  1  -0.01319359  0.02668530  0.67373816  1
  H  H1  1  -0.01001576  0.35905533  0.67331849  1
  H  H2  1  0.01319719  0.69580760  0.68051804  1
  H  H3  1  0.50097433  0.02718406  0.68142071  1
  H  H4  1  0.50762885  0.35700090  0.67676188  1
  H  H5  1  0.48283866  0.69652545  0.66933651  1
  H  H6  1  0.00675766  0.30310253  0.17712378  1
  H  H7  1  -0.00228796  0.63614345  0.17637687  1
  H  H8  1  0.01717865  0.97190147  0.17580568  1
  H  H9  1  0.49279271  0.30513443  0.17678920  1
  H  H10  1  0.49864267  0.63770321  0.18070209  1
  H  H11  1  0.48254339  0.97355947  0.17603985  1
  H  H12  1  0.00277958  0.02814228  0.82069769  1
  H  H13  1  0.02351695  0.36689122  0.81591535  1
  H  H14  1  -0.00634540  0.69547387  0.81845456  1
  H  H15  1  0.50548386  0.03409013  0.82804989  1
  H  H16  1  0.48792872  0.36593161  0.82347164  1
  H  H17  1  0.49824130  0.69632070  0.82544187  1
  H  H18  1  0.00456280  0.30635269  0.32014645  1
  H  H19  1  -0.00057603  0.63953481  0.32727206  1
  H  H20  1  -0.00522068  0.97026512  0.32240597  1
  H  H21  1  0.51016649  0.30192038  0.32563308  1
  H  H22  1  0.48820584  0.64133395  0.32257770  1
  H  H23  1  0.49753748  0.97057204  0.32348599  1
  H  H24  1  0.24508931  0.19445334  0.67812947  1
  H  H25  1  0.26241203  0.52771546  0.67683205  1
  H  H26  1  0.25105573  0.86211345  0.67634077  1
  H  H27  1  0.74744831  0.19543558  0.67648081  1
  H  H28  1  0.74154199  0.52737533  0.67888125  1
  H  H29  1  0.75933900  0.85759370  0.68084988  1
  H  H30  1  0.24710787  0.13529861  0.17835487  1
  H  H31  1  0.23690229  0.47001885  0.18435578  1
  H  H32  1  0.23177785  0.80201776  0.18100421  1
  H  H33  1  0.75090115  0.14024103  0.17265964  1
  H  H34  1  0.75169421  0.47028639  0.18086334  1
  H  H35  1  0.76370095  0.80640273  0.17524706  1
  H  H36  1  0.24291191  0.19445659  0.81844391  1
  H  H37  1  0.25300077  0.52815803  0.82045708  1
  H  H38  1  0.24740475  0.86317229  0.81619358  1
  H  H39  1  0.74992694  0.19349757  0.82389653  1
  H  H40  1  0.73996223  0.52774058  0.81908828  1
  H  H41  1  0.75858526  0.86709316  0.82459623  1
  H  H42  1  0.25330267  0.14020158  0.32449409  1
  H  H43  1  0.25463660  0.47013130  0.32513567  1
  H  H44  1  0.23977740  0.80583902  0.31977315  1
  H  H45  1  0.75366466  0.13771493  0.31718335  1
  H  H46  1  0.75584041  0.47215263  0.32049465  1
  H  H47  1  0.75535892  0.80593017  0.32252621  1
  H  H48  1  0.12995885  0.04967062  0.62869325  1
  H  H49  1  0.12874530  0.38229634  0.62034710  1
  H  H50  1  0.12023334  0.72405023  0.59882556  1
  H  H51  1  0.62935905  0.05446317  0.61445153  1
  H  H52  1  0.63390917  0.38372132  0.60726337  1
  H  H53  1  0.62587810  0.71613719  0.62207495  1
  H  H54  1  0.37906915  0.27636045  0.09933072  1
  H  H55  1  0.37288067  0.61191012  0.11251691  1
  H  H56  1  0.38358752  0.94021861  0.08956019  1
  H  H57  1  0.87393969  0.27943901  0.11575446  1
  H  H58  1  0.87616912  0.61574619  0.10255790  1
  H  H59  1  0.87658740  0.94939937  0.12467450  1
  H  H60  1  0.36709689  0.05041202  0.88048488  1
  H  H61  1  0.38816178  0.39403299  0.90912425  1
  H  H62  1  0.38191698  0.72029075  0.90244019  1
  H  H63  1  0.86436222  0.05020811  0.87732373  1
  H  H64  1  0.88315998  0.38138732  0.86731757  1
  H  H65  1  0.88610995  0.72708355  0.89988988  1
  H  H66  1  0.12266671  0.27650117  0.39580535  1
  H  H67  1  0.12898280  0.61167318  0.39100973  1
  H  H68  1  0.13321534  0.94763691  0.37871216  1
  H  H69  1  0.62097445  0.27486078  0.40543412  1
  H  H70  1  0.62915912  0.61790834  0.37324284  1
  H  H71  1  0.63002246  0.95117737  0.38311348  1
  H  H72  1  0.37951270  0.21708872  0.61837945  1
  H  H73  1  0.36108026  0.56161615  0.58941199  1
  H  H74  1  0.36669611  0.88955681  0.59961506  1
  H  H75  1  0.87628355  0.21844951  0.61335299  1
  H  H76  1  0.87010061  0.55138853  0.61200352  1
  H  H77  1  0.86915276  0.89146607  0.60013684  1
  H  H78  1  0.13843447  0.10958859  0.09755714  1
  H  H79  1  0.11913398  0.44832569  0.10845520  1
  H  H80  1  0.11691083  0.77636242  0.10272422  1
  H  H81  1  0.63333245  0.10931393  0.09977886  1
  H  H82  1  0.62144057  0.44611714  0.11431440  1
  H  H83  1  0.61986390  0.78524201  0.13005914  1
  H  H84  1  0.12253786  0.22146363  0.89186058  1
  H  H85  1  0.12571480  0.55337451  0.88873674  1
  H  H86  1  0.12348343  0.88583098  0.88609615  1
  H  H87  1  0.62380476  0.21857611  0.89281564  1
  H  H88  1  0.62494731  0.55648820  0.89561618  1
  H  H89  1  0.62733305  0.88731999  0.88547417  1
  H  H90  1  0.36732153  0.10986248  0.40234817  1
  H  H91  1  0.36831911  0.44085393  0.40207794  1
  H  H92  1  0.37533958  0.78416151  0.38028118  1
  H  H93  1  0.86691886  0.11127254  0.39502270  1
  H  H94  1  0.86646177  0.44361366  0.40201238  1
  H  H95  1  0.87014390  0.77577577  0.39936070  1
  H  H96  1  0.37439031  0.28351950  0.38129806  1
  H  H97  1  0.38613817  0.60813336  0.40848162  1
  H  H98  1  0.38227026  0.94448001  0.39993237  1
  H  H99  1  0.87444574  0.28244437  0.38697612  1
  H  H100  1  0.88096375  0.60943538  0.39942779  1
  H  H101  1  0.88742630  0.94081902  0.40555828  1
  H  H102  1  0.11118522  0.05798191  0.90154150  1
  H  H103  1  0.12827865  0.38969580  0.90095650  1
  H  H104  1  0.13237892  0.71483019  0.87540606  1
  H  H105  1  0.61216953  0.06041237  0.90996125  1
  H  H106  1  0.63108464  0.37939159  0.87131716  1
  H  H107  1  0.62887611  0.72520434  0.88724974  1
  H  H108  1  0.12214983  0.27582681  0.10079997  1
  H  H109  1  0.12420051  0.60911699  0.11038491  1
  H  H110  1  0.12139029  0.94010838  0.09237106  1
  H  H111  1  0.62732011  0.27927672  0.11789629  1
  H  H112  1  0.62184253  0.61281520  0.10875803  1
  H  H113  1  0.62615329  0.95357101  0.12875040  1
  H  H114  1  0.38125649  0.05276064  0.60514115  1
  H  H115  1  0.38542609  0.38754520  0.60666090  1
  H  H116  1  0.38368551  0.73179776  0.58498176  1
  H  H117  1  0.88789982  0.06122044  0.58830695  1
  H  H118  1  0.88338099  0.39170900  0.59191066  1
  H  H119  1  0.87425514  0.71424626  0.62817497  1
  H  H120  1  0.11988656  0.11430429  0.38611220  1
  H  H121  1  0.11975234  0.44693724  0.38515521  1
  H  H122  1  0.12772353  0.77593242  0.39804400  1
  H  H123  1  0.61896702  0.11938619  0.37645818  1
  H  H124  1  0.62004649  0.44721377  0.38051397  1
  H  H125  1  0.62247620  0.78419555  0.38378629  1
  H  H126  1  0.37142235  0.21850333  0.88639922  1
  H  H127  1  0.37446921  0.55638926  0.89091176  1
  H  H128  1  0.37313061  0.88647684  0.88360178  1
  H  H129  1  0.87240853  0.22194615  0.89338260  1
  H  H130  1  0.87269372  0.55044129  0.88162613  1
  H  H131  1  0.87511359  0.89269451  0.90018715  1
  H  H132  1  0.38540188  0.11713703  0.12380892  1
  H  H133  1  0.36802304  0.44920130  0.12210785  1
  H  H134  1  0.36519223  0.78188661  0.11728176  1
  H  H135  1  0.88175694  0.11328184  0.11020232  1
  H  H136  1  0.86982128  0.44319995  0.10426279  1
  H  H137  1  0.86152603  0.77447976  0.08787616  1
  H  H138  1  0.13181629  0.22417480  0.59984314  1
  H  H139  1  0.11947322  0.54756762  0.62821670  1
  H  H140  1  0.11842283  0.88785706  0.61649845  1
  H  H141  1  0.62728501  0.22232636  0.60440810  1
  H  H142  1  0.62142961  0.55574696  0.60577267  1
  H  H143  1  0.62246344  0.88213586  0.62176934  1
  H  H144  1  0.59653830  0.25025162  0.01095920  1
  H  H145  1  0.77783663  0.75018393  -0.00940265  1
  H  H146  1  0.64476961  0.08983764  0.48889210  1
  H  H147  1  0.08933109  0.58149682  0.49742244  1
  H  H148  1  0.97049262  0.08534756  0.49034577  1
  H  H149  1  0.04343294  0.91474508  -0.00723416  1
  H  H150  1  0.60158026  0.92022707  0.49659432  1
  H  H151  1  0.65739961  0.92057625  0.99881299  1
  H  H152  1  0.44504467  0.76110306  0.99945471  1
  H  H153  1  0.46674183  0.91830379  -0.00876425  1
  H  H154  1  0.15410381  0.08761843  0.49471279  1
  H  H155  1  0.41864459  0.58200977  0.00321985  1
  H  H156  1  0.61402133  0.74952914  0.51179006  1
  H  H157  1  0.05014491  0.75165110  0.49326029  1
  H  H158  1  0.84357305  0.07976733  0.00445498  1
  H  H159  1  0.92948313  0.57299884  0.00662698  1
  H  H160  1  0.39524875  0.25145634  0.49571860  1
  H  H161  1  0.80572336  0.08475948  0.50317687  1
  H  H162  1  0.17030164  0.91293948  0.99788529  1
  H  H163  1  0.95738027  0.75727850  1.00230148  1
  H  H164  1  0.05528511  0.41110107  1.00717338  1
  H  H165  1  0.15053173  0.41750657  0.49230450  1
  H  H166  1  0.89665869  0.40870122  0.98203071  1
  H  H167  1  0.46716091  0.58170879  0.50538766  1
  H  H168  1  0.90809582  0.25164344  0.00813630  1
  H  H169  1  0.17908284  0.74680873  -0.00241845  1
  H  H170  1  0.04027002  0.08804210  1.00520893  1
  H  H171  1  0.17512125  0.42765947  -0.00258915  1
  H  H172  1  0.30647227  0.40709752  0.50733557  1
  H  H173  1  0.67655316  0.58632609  0.49913433  1
  H  H174  1  0.33029599  0.91427068  0.99571189  1
  H  H175  1  0.89057778  0.74520561  0.51466923  1
  H  H176  1  0.62372971  0.41034883  -0.01609450  1
  H  H177  1  0.17681611  0.25221067  0.99845811  1
  H  H178  1  0.59559075  0.74687065  0.99677749  1
  H  H179  1  0.58606321  0.41255267  0.50402466  1
  H  H180  1  0.20670192  0.08058689  -0.00871051  1
  H  H181  1  0.10864398  0.92048250  0.48774945  1
  H  H182  1  0.33457197  0.42395450  0.00779760  1
  H  H183  1  0.83964206  0.25343807  0.50181961  1
  H  H184  1  0.19502359  0.74706813  0.50359624  1
  H  H185  1  0.30462868  0.91920697  0.49708519  1
  H  H186  1  0.68698142  0.58324348  1.00230411  1
  H  H187  1  0.27702468  0.58631877  0.49322062  1
  H  H188  1  0.46536921  0.42142732  1.01182045  1
  H  H189  1  0.37673199  0.08366016  0.00263195  1
  H  H190  1  0.44030534  0.24248646  -0.00536561  1
  H  H191  1  0.07948048  0.59483393  0.00339894  1
  Pb  Pb192  1  0.25029894  0.04712486  0.75166531  1
  Pb  Pb193  1  0.25387834  0.38169361  0.75579368  1
  Pb  Pb194  1  0.25595777  0.71642230  0.74421397  1
  Pb  Pb195  1  0.75342175  0.05037017  0.74840032  1
  Pb  Pb196  1  0.75308525  0.37946750  0.74246753  1
  Pb  Pb197  1  0.75036639  0.71363104  0.76102748  1
  Pb  Pb198  1  0.25149679  0.28389641  0.24430678  1
  Pb  Pb199  1  0.25036567  0.61870478  0.25673689  1
  Pb  Pb200  1  0.25659457  0.94865423  0.24287813  1
  Pb  Pb201  1  0.75024911  0.28490296  0.25394951  1
  Pb  Pb202  1  0.75476505  0.61769187  0.24641372  1
  Pb  Pb203  1  0.75238093  0.95264929  0.25668255  1
  Pb  Pb204  1  0.00300586  0.21463981  0.75332336  1
  Pb  Pb205  1  -0.00036011  0.54717432  0.75403949  1
  Pb  Pb206  1  -0.00117132  0.88095065  0.75220775  1
  Pb  Pb207  1  0.50119275  0.21449415  0.75450328  1
  Pb  Pb208  1  0.50091997  0.54822193  0.74515339  1
  Pb  Pb209  1  0.50247264  0.88349120  0.75485116  1
  Pb  Pb210  1  0.00175820  0.11726590  0.24914204  1
  Pb  Pb211  1  0.00097885  0.45097236  0.24784249  1
  Pb  Pb212  1  -0.00132761  0.78464772  0.24796172  1
  Pb  Pb213  1  0.50157130  0.11898607  0.25185221  1
  Pb  Pb214  1  0.49835542  0.45117264  0.25625947  1
  Pb  Pb215  1  0.50368603  0.78405318  0.24600144  1
  C  C216  1  0.00146300  0.04442914  0.62836498  1
  C  C217  1  0.00111659  0.37696137  0.62778644  1
  C  C218  1  0.00204363  0.71097228  0.63350054  1
  C  C219  1  0.50390673  0.04351511  0.63415155  1
  C  C220  1  0.50937885  0.37527930  0.63033354  1
  C  C221  1  0.49805517  0.71359471  0.62385714  1
  C  C222  1  0.00040627  0.28680076  0.13019306  1
  C  C223  1  -0.00060308  0.62030729  0.12882962  1
  C  C224  1  0.00525515  0.95527110  0.12962913  1
  C  C225  1  0.50022547  0.28770128  0.13011211  1
  C  C226  1  0.49781670  0.62110285  0.13363228  1
  C  C227  1  0.49695711  0.95727421  0.13003177  1
  C  C228  1  -0.00767111  0.04468092  0.86724669  1
  C  C229  1  0.01107847  0.37946912  0.86358268  1
  C  C230  1  0.00427003  0.71179774  0.86500340  1
  C  C231  1  0.49426867  0.04841438  0.87520534  1
  C  C232  1  0.50293715  0.37976389  0.87019699  1
  C  C233  1  0.50336146  0.71318582  0.87248836  1
  C  C234  1  0.00063159  0.28936038  0.36706516  1
  C  C235  1  0.00372892  0.62147451  0.37362705  1
  C  C236  1  0.00569924  0.95375595  0.36879248  1
  C  C237  1  0.50102885  0.28688910  0.37275800  1
  C  C238  1  0.50084873  0.62376215  0.36831119  1
  C  C239  1  0.50409128  0.95575490  0.37086280  1
  C  C240  1  0.25195892  0.21148903  0.63169145  1
  C  C241  1  0.24784231  0.54445753  0.63113359  1
  C  C242  1  0.24582346  0.87934936  0.62955910  1
  C  C243  1  0.75096888  0.21203464  0.62952453  1
  C  C244  1  0.74427402  0.54433778  0.63198385  1
  C  C245  1  0.75048412  0.87568453  0.63479773  1
  C  C246  1  0.25702439  0.12053843  0.13112005  1
  C  C247  1  0.24157619  0.45588487  0.13637359  1
  C  C248  1  0.23813858  0.78670453  0.13360379  1
  C  C249  1  0.75589797  0.12191917  0.12649339  1
  C  C250  1  0.74764452  0.45414191  0.13369382  1
  C  C251  1  0.74840231  0.78970535  0.12957910  1
  C  C252  1  0.24590324  0.21162577  0.86536004  1
  C  C253  1  0.25069664  0.54514716  0.86715909  1
  C  C254  1  0.24797723  0.87815906  0.86400666  1
  C  C255  1  0.74836818  0.21071157  0.87050131  1
  C  C256  1  0.74613705  0.54435850  0.86598148  1
  C  C257  1  0.75293876  0.88249961  0.87188368  1
  C  C258  1  0.24617101  0.12269279  0.37094344  1
  C  C259  1  0.24693324  0.45311229  0.37192065  1
  C  C260  1  0.24785091  0.78918584  0.36647308  1
  C  C261  1  0.74619105  0.12316848  0.36483271  1
  C  C262  1  0.74740726  0.45526346  0.36715647  1
  C  C263  1  0.74953159  0.78941999  0.36929718  1
  C  C264  1  0.22609610  0.75922045  0.46101045  1
  C  C265  1  0.69106950  0.09898042  0.45455919  1
  C  C266  1  0.43309098  0.07317061  0.96223359  1
  C  C267  1  0.44405448  0.26034860  0.46180282  1
  C  C268  1  0.78508217  0.24269443  0.96239653  1
  C  C269  1  0.47463379  0.92734813  0.46604022  1
  C  C270  1  0.21292094  0.75840638  0.03888625  1
  C  C271  1  0.20977144  0.43402855  0.03954366  1
  C  C272  1  0.30279290  0.24065402  0.54342156  1
  C  C273  1  0.31800097  0.09557961  0.04408383  1
  C  C274  1  0.29147582  0.43331830  0.04439361  1
  C  C275  1  0.02723197  0.40245886  0.96257583  1
  C  C276  1  0.71533294  0.24276920  0.53636645  1
  C  C277  1  0.49181121  0.40814402  0.96801272  1
  C  C278  1  0.27428514  0.42061523  0.46574955  1
  C  C279  1  0.02079176  0.73967820  0.53646912  1
  C  C280  1  0.79694488  0.24197582  0.53815706  1
  C  C281  1  0.72250113  0.08572156  0.03420521  1
  C  C282  1  0.72058866  0.57214984  0.96070176  1
  C  C283  1  0.67807206  0.76014567  0.04819936  1
  C  C284  1  0.55586255  0.92941509  0.46167509  1
  C  C285  1  0.96895057  0.58633373  0.46614513  1
  C  C286  1  0.45905886  0.59271240  0.04178330  1
  C  C287  1  0.28593373  0.57683505  0.95929974  1
  C  C288  1  0.47300716  0.25552751  0.03608930  1
  C  C289  1  0.56662513  0.92960671  0.04744449  1
  C  C290  1  0.01068772  0.07498464  0.96223851  1
  C  C291  1  0.57158169  0.40300334  0.95427985  1
  C  C292  1  0.29055426  0.90342968  0.95735562  1
  C  C293  1  0.07102865  0.07510746  0.54710941  1
  C  C294  1  0.94666702  0.40071290  0.95050314  1
  C  C295  1  0.77271656  0.09614059  0.46126308  1
  C  C296  1  0.98701567  0.74339926  0.95957364  1
  C  C297  1  0.78437408  0.91204291  0.96641904  1
  C  C298  1  0.70292439  0.91060944  0.96294566  1
  C  C299  1  0.71302424  0.57458626  0.53904380  1
  C  C300  1  0.48592073  0.75005199  0.52861589  1
  C  C301  1  0.94050144  0.92283239  0.04606676  1
  C  C302  1  0.93983127  0.73612923  0.54677908  1
  C  C303  1  0.52512629  0.25740725  0.46838933  1
  C  C304  1  0.23718871  0.09259052  0.03415201  1
  C  C305  1  0.03108272  0.25610094  0.03495644  1
  C  C306  1  0.20847433  0.90305874  0.95829823  1
  C  C307  1  0.21387895  0.24117616  0.95834513  1
  C  C308  1  0.98409239  0.41306875  0.53449204  1
  C  C309  1  0.70017976  0.76139114  0.45867858  1
  C  C310  1  0.51357352  0.07647586  0.97130501  1
  C  C311  1  0.19263060  0.90864698  0.54070509  1
  N  N312  1  0.96372459  0.60006654  0.03446426  1
  N  N313  1  0.27536206  0.09069290  0.46463562  1
  N  N314  1  0.77909545  0.42367308  0.03983219  1
  N  N315  1  0.56681843  0.59334035  0.45091171  1
  N  N316  1  0.03103110  0.25664490  0.46032279  1
  N  N317  1  0.30482194  0.76191599  0.45508168  1
  N  N318  1  0.77766387  0.75803345  0.46487266  1
  N  N319  1  0.95496749  0.25936493  0.45759592  1
  N  N320  1  0.25531993  0.57813323  0.53791044  1
  N  N321  1  0.95227125  0.25823299  0.04125089  1
  N  N322  1  0.56260783  0.74280026  0.54143930  1
  N  N323  1  0.19776521  0.09336557  0.45835471  1
  N  N324  1  0.70708456  0.24158935  0.96328847  1
  N  N325  1  0.55230059  0.74490169  0.95948874  1
  N  N326  1  0.06136089  0.92682600  0.45436167  1
  N  N327  1  0.06546110  0.73921575  0.95189935  1
  N  N328  1  0.48960632  0.92540489  0.03511689  1
  N  N329  1  0.69422294  0.42403955  0.45480199  1
  N  N330  1  0.22584038  0.24404253  0.53620431  1
  N  N331  1  0.27156058  0.90993985  0.53602801  1
  N  N332  1  0.93233121  0.07194825  0.95418239  1
  N  N333  1  0.69623628  0.90772642  0.54826946  1
  N  N334  1  0.20800788  0.57613630  0.95951548  1
  N  N335  1  0.49005215  0.58959829  0.46111400  1
  N  N336  1  0.04758620  0.58914406  0.46257227  1
  N  N337  1  0.55212647  0.25615615  0.04366914  1
  N  N338  1  0.77167494  0.91062342  0.54095828  1
  N  N339  1  0.04230800  0.58668397  0.04052519  1
  N  N340  1  0.75521023  0.75701015  0.03502035  1
  N  N341  1  0.47187564  0.07358046  0.54030741  1
  N  N342  1  0.54776712  0.07389562  0.54335093  1
  N  N343  1  0.54740577  0.40561953  0.54063542  1
  N  N344  1  0.29318338  0.24086700  0.95668664  1
  N  N345  1  0.17907893  0.57274967  0.54927588  1
  N  N346  1  0.80107795  0.08809239  0.03869895  1
  N  N347  1  0.47463373  0.73491945  0.96781129  1
  N  N348  1  0.70291293  0.42491127  0.04322269  1
  N  N349  1  0.98430163  0.92466828  0.46481626  1
  N  N350  1  0.77003733  0.42307538  0.46197489  1
  N  N351  1  0.99375567  0.07870264  0.53434327  1
  N  N352  1  0.01833404  0.92158451  0.03574817  1
  N  N353  1  0.06086375  0.40939679  0.54242231  1
  N  N354  1  0.53847540  0.59213086  0.04021887  1
  N  N355  1  0.46907106  0.40673193  0.53852838  1
  N  N356  1  0.29189452  0.75984754  0.04350677  1
  N  N357  1  0.79215216  0.57371336  0.54080848  1
  N  N358  1  0.19520887  0.42245143  0.45872437  1
  N  N359  1  0.79975712  0.57039258  0.95644820  1
  N  N360  1  0.07590892  0.05574844  0.60600294  1
  N  N361  1  0.07164577  0.38660185  0.60174669  1
  N  N362  1  0.05835745  0.72398054  0.59102753  1
  N  N363  1  0.56944545  0.05489656  0.60130241  1
  N  N364  1  0.57322604  0.38521009  0.59540104  1
  N  N365  1  0.57051088  0.71951575  0.59997610  1
  N  N366  1  0.44039622  0.27431257  0.09003305  1
  N  N367  1  0.43272864  0.61019434  0.09883862  1
  N  N368  1  0.44538732  0.94558063  0.08506389  1
  N  N369  1  0.93288252  0.27781452  0.09958125  1
  N  N370  1  0.93684473  0.60890955  0.09294218  1
  N  N371  1  0.93242725  0.94293580  0.10441300  1
  N  N372  1  0.42231838  0.05588058  0.90173576  1
  N  N373  1  0.45008792  0.39335690  0.91506113  1
  N  N374  1  0.44347013  0.72519941  0.91091020  1
  N  N375  1  0.92240656  0.05325480  0.89487090  1
  N  N376  1  0.93835160  0.38660316  0.88908308  1
  N  N377  1  0.94812231  0.72683315  0.90671166  1
  N  N378  1  0.06091089  0.27486621  0.40432673  1
  N  N379  1  0.06999939  0.61183877  0.40575297  1
  N  N380  1  0.07552926  0.94523004  0.39641892  1
  N  N381  1  0.55947328  0.27336566  0.41482741  1
  N  N382  1  0.57275525  0.61263402  0.39238800  1
  N  N383  1  0.57285259  0.94693852  0.40125175  1
  N  N384  1  0.32143103  0.22126019  0.60136984  1
  N  N385  1  0.29864135  0.55816221  0.58621643  1
  N  N386  1  0.30507939  0.89056297  0.59070182  1
  N  N387  1  0.81776346  0.22288227  0.59724026  1
  N  N388  1  0.80976711  0.55473468  0.59879878  1
  N  N389  1  0.80698908  0.89060354  0.59424163  1
  N  N390  1  0.20016155  0.10836660  0.08938576  1
  N  N391  1  0.17991139  0.44760506  0.09718975  1
  N  N392  1  0.17828104  0.77460165  0.09384245  1
  N  N393  1  0.69421468  0.10650972  0.08855561  1
  N  N394  1  0.68165610  0.44389775  0.10100756  1
  N  N395  1  0.67371187  0.77891087  0.10746684  1
  N  N396  1  0.18341289  0.22395208  0.90248141  1
  N  N397  1  0.18623338  0.55606288  0.90093339  1
  N  N398  1  0.18336461  0.88733197  0.89992892  1
  N  N399  1  0.68436430  0.22128360  0.90480099  1
  N  N400  1  0.68621002  0.55689693  0.90553464  1
  N  N401  1  0.68486549  0.89221407  0.90282568  1
  N  N402  1  0.30517267  0.10824271  0.40992658  1
  N  N403  1  0.30685477  0.43891789  0.41166141  1
  N  N404  1  0.31642796  0.78029644  0.39618770  1
  N  N405  1  0.80564769  0.11132497  0.40501203  1
  N  N406  1  0.80438796  0.44257453  0.40813515  1
  N  N407  1  0.80842203  0.77615781  0.40781821  1
  N  N408  1  0.43074897  0.27865026  0.40103829  1
  N  N409  1  0.44850112  0.61052364  0.41227914  1
  N  N410  1  0.44346231  0.94327923  0.41130591  1
  N  N411  1  0.93454829  0.28000146  0.39998517  1
  N  N412  1  0.94149092  0.60633687  0.41128208  1
  N  N413  1  0.94995202  0.94058381  0.41103191  1
  N  N414  1  0.04888874  0.05833030  0.90921788  1
  N  N415  1  0.06630867  0.38921446  0.90793428  1
  N  N416  1  0.07442045  0.71976212  0.89272823  1
  N  N417  1  0.55039120  0.06132794  0.91848019  1
  N  N418  1  0.57674977  0.38567910  0.89376119  1
  N  N419  1  0.57077048  0.72293729  0.90358844  1
  N  N420  1  0.06103945  0.27349615  0.09025459  1
  N  N421  1  0.06469063  0.61070985  0.09532982  1
  N  N422  1  0.05948075  0.94382129  0.08635247  1
  N  N423  1  0.56860782  0.27741353  0.10096800  1
  N  N424  1  0.56088624  0.60974638  0.09805842  1
  N  N425  1  0.57139849  0.94760265  0.10676133  1
  N  N426  1  0.44296905  0.05468025  0.59633293  1
  N  N427  1  0.44630337  0.38917498  0.59516976  1
  N  N428  1  0.44546249  0.73164836  0.57935968  1
  N  N429  1  0.94999003  0.05658997  0.58357734  1
  N  N430  1  0.94535047  0.39342335  0.58570121  1
  N  N431  1  0.92989458  0.71854027  0.60699050  1
  N  N432  1  0.17858540  0.11387551  0.40181437  1
  N  N433  1  0.17858527  0.44403757  0.40151031  1
  N  N434  1  0.18933454  0.77549113  0.40691164  1
  N  N435  1  0.67626647  0.11552589  0.39465454  1
  N  N436  1  0.67892604  0.44377889  0.39581656  1
  N  N437  1  0.68085682  0.77986754  0.40039986  1
  N  N438  1  0.31116909  0.22246218  0.89866892  1
  N  N439  1  0.31417873  0.55830105  0.90358522  1
  N  N440  1  0.31365939  0.88805697  0.89849343  1
  N  N441  1  0.81219396  0.22434447  0.90624097  1
  N  N442  1  0.81365136  0.55328053  0.89697641  1
  N  N443  1  0.81434053  0.89514890  0.91155008  1
  N  N444  1  0.32889135  0.11246692  0.10388868  1
  N  N445  1  0.30990226  0.44668769  0.10479078  1
  N  N446  1  0.30567326  0.77709275  0.10276699  1
  N  N447  1  0.82259552  0.11133021  0.09527081  1
  N  N448  1  0.80813932  0.44171911  0.09583091  1
  N  N449  1  0.79918497  0.77813114  0.08423593  1
  N  N450  1  0.19391329  0.22562617  0.59275552  1
  N  N451  1  0.17503664  0.55390644  0.60795366  1
  N  N452  1  0.17642664  0.89094126  0.59896179  1
  N  N453  1  0.68774495  0.22477885  0.59146874  1
  N  N454  1  0.68190166  0.55718815  0.59491006  1
  N  N455  1  0.68137092  0.88618342  0.60632274  1
  Cl  Cl456  1  0.25877597  0.04948364  0.61959229  1
  Cl  Cl457  1  0.26189804  0.38949047  0.61850218  1
  Cl  Cl458  1  0.24858643  0.72577808  0.60844873  1
  Cl  Cl459  1  0.76357429  0.06132851  0.61306986  1
  Cl  Cl460  1  0.75725780  0.38731806  0.60985461  1
  Cl  Cl461  1  0.74822226  0.72010020  0.63349082  1
  Cl  Cl462  1  0.24850319  0.27682314  0.11046333  1
  Cl  Cl463  1  0.24646460  0.60888640  0.12592976  1
  Cl  Cl464  1  0.25129593  0.93720105  0.10756031  1
  Cl  Cl465  1  0.75072688  0.27622555  0.12064399  1
  Cl  Cl466  1  0.75053810  0.61716666  0.11054199  1
  Cl  Cl467  1  0.75126393  0.95207633  0.12347384  1
  Cl  Cl468  1  0.23165086  0.05636154  0.88474994  1
  Cl  Cl469  1  0.25784564  0.39399837  0.89074808  1
  Cl  Cl470  1  0.26132118  0.71687773  0.87867059  1
  Cl  Cl471  1  0.73568000  0.05826134  0.88301336  1
  Cl  Cl472  1  0.75775875  0.38098395  0.87054836  1
  Cl  Cl473  1  0.76126906  0.72997196  0.89878643  1
  Cl  Cl474  1  0.24428495  0.28175706  0.37565019  1
  Cl  Cl475  1  0.26328779  0.60468050  0.40082193  1
  Cl  Cl476  1  0.25970724  0.94170476  0.38713551  1
  Cl  Cl477  1  0.74728966  0.27605654  0.38749504  1
  Cl  Cl478  1  0.75723338  0.61515182  0.37860745  1
  Cl  Cl479  1  0.76555240  0.94288085  0.38561803  1
  Cl  Cl480  1  0.00615146  0.21590052  0.62249436  1
  Cl  Cl481  1  -0.00674659  0.55119970  0.62147834  1
  Cl  Cl482  1  -0.00762073  0.89262259  0.62064472  1
  Cl  Cl483  1  0.50421073  0.22360545  0.62283362  1
  Cl  Cl484  1  0.48331382  0.56312345  0.60065164  1
  Cl  Cl485  1  0.49258507  0.88307947  0.62200301  1
  Cl  Cl486  1  0.01156834  0.11080979  0.11294660  1
  Cl  Cl487  1  -0.00734347  0.44536813  0.11098850  1
  Cl  Cl488  1  -0.01401539  0.77520313  0.10916220  1
  Cl  Cl489  1  0.51243791  0.11305068  0.11891887  1
  Cl  Cl490  1  0.49533535  0.44467856  0.12204910  1
  Cl  Cl491  1  0.48969946  0.78259547  0.10935806  1
  Cl  Cl492  1  -0.00306433  0.22279867  0.88977638  1
  Cl  Cl493  1  0.00060599  0.55648556  0.89021119  1
  Cl  Cl494  1  0.00067832  0.89294395  0.89046408  1
  Cl  Cl495  1  0.49868573  0.22131886  0.89055561  1
  Cl  Cl496  1  0.49855322  0.55944983  0.87736136  1
  Cl  Cl497  1  0.49589161  0.89020725  0.89459820  1
  Cl  Cl498  1  -0.00783510  0.10353571  0.39236732  1
  Cl  Cl499  1  -0.00801039  0.44762907  0.38195317  1
  Cl  Cl500  1  0.00055369  0.77415568  0.38363107  1
  Cl  Cl501  1  0.48875960  0.11411266  0.38261519  1
  Cl  Cl502  1  0.49364907  0.44361965  0.38957075  1
  Cl  Cl503  1  0.49951233  0.78162071  0.37792477  1
  Cl  Cl504  1  0.36011174  0.14914183  0.75596511  1
  Cl  Cl505  1  0.35938110  0.48631224  0.74793754  1
  Cl  Cl506  1  0.35181776  0.81684347  0.74828110  1
  Cl  Cl507  1  0.85818016  0.14802243  0.75706992  1
  Cl  Cl508  1  0.85812098  0.48362687  0.75462771  1
  Cl  Cl509  1  0.85766374  0.81668969  0.75377208  1
  Cl  Cl510  1  0.13676939  0.18469347  0.25355343  1
  Cl  Cl511  1  0.13779124  0.51841218  0.26066496  1
  Cl  Cl512  1  0.13510210  0.85406987  0.25266271  1
  Cl  Cl513  1  0.63976775  0.18372777  0.24953803  1
  Cl  Cl514  1  0.62981495  0.52447297  0.25103338  1
  Cl  Cl515  1  0.63608523  0.85446553  0.24376487  1
  Cl  Cl516  1  0.13992688  0.14744405  0.74521564  1
  Cl  Cl517  1  0.13655214  0.47931750  0.74587434  1
  Cl  Cl518  1  0.13358716  0.81134117  0.75163633  1
  Cl  Cl519  1  0.63847548  0.14878034  0.74375668  1
  Cl  Cl520  1  0.63677566  0.47859725  0.74744548  1
  Cl  Cl521  1  0.63395616  0.81213918  0.76325688  1
  Cl  Cl522  1  0.35731954  0.18268066  0.24656016  1
  Cl  Cl523  1  0.35847858  0.51615590  0.25303839  1
  Cl  Cl524  1  0.35460949  0.85160085  0.24861935  1
  Cl  Cl525  1  0.86036870  0.18248670  0.24431977  1
  Cl  Cl526  1  0.84949243  0.51679400  0.24380362  1
  Cl  Cl527  1  0.85719545  0.84785747  0.24901698  1
  Cl  Cl528  1  0.11621021  0.31421044  0.74465595  1
  Cl  Cl529  1  0.10982782  0.64523730  0.75074855  1
  Cl  Cl530  1  0.11235229  0.97985542  0.74290906  1
  Cl  Cl531  1  0.61543282  0.31363533  0.75677266  1
  Cl  Cl532  1  0.61371232  0.64785310  0.74785987  1
  Cl  Cl533  1  0.60524155  0.97957598  0.75090969  1
  Cl  Cl534  1  0.39131420  0.01677507  0.24803061  1
  Cl  Cl535  1  0.39063825  0.34785688  0.25066173  1
  Cl  Cl536  1  0.38660887  0.68655039  0.25149577  1
  Cl  Cl537  1  0.89282029  0.01511245  0.24698863  1
  Cl  Cl538  1  0.88817353  0.35044690  0.24728873  1
  Cl  Cl539  1  0.89680674  0.67813244  0.24918298  1
  Cl  Cl540  1  0.39647776  0.31965086  0.75172596  1
  Cl  Cl541  1  0.39692389  0.65350840  0.74746926  1
  Cl  Cl542  1  0.38628650  0.98118502  0.76504828  1
  Cl  Cl543  1  0.89404847  0.31680999  0.74909089  1
  Cl  Cl544  1  0.88861678  0.64860315  0.75069723  1
  Cl  Cl545  1  0.88952960  0.98317749  0.75713368  1
  Cl  Cl546  1  0.10999515  0.01877652  0.25592695  1
  Cl  Cl547  1  0.10623299  0.35516693  0.24371360  1
  Cl  Cl548  1  0.11386464  0.68550614  0.25004530  1
  Cl  Cl549  1  0.61266816  0.01814746  0.25689263  1
  Cl  Cl550  1  0.61057410  0.35098079  0.25120678  1
  Cl  Cl551  1  0.60697473  0.68885834  0.24698390  1
