# generated using pymatgen
data_H8PbC4(N3Cl2)2
_symmetry_space_group_name_H-M   'P 1'
_cell_length_a   16.62995774
_cell_length_b   22.51715343
_cell_length_c   21.59499427
_cell_angle_alpha   90.00059006
_cell_angle_beta   90.02948829
_cell_angle_gamma   89.99493090
_symmetry_Int_Tables_number   1
_chemical_formula_structural   H8PbC4(N3Cl2)2
_chemical_formula_sum   'H192 Pb24 C96 N144 Cl96'
_cell_volume   8086.44554912
_cell_formula_units_Z   24
loop_
 _symmetry_equiv_pos_site_id
 _symmetry_equiv_pos_as_xyz
  1  'x, y, z'
loop_
 _atom_site_type_symbol
 _atom_site_label
 _atom_site_symmetry_multiplicity
 _atom_site_fract_x
 _atom_site_fract_y
 _atom_site_fract_z
 _atom_site_occupancy
  H  H0  1  -0.00361739  0.03029866  0.67781852  1
  H  H1  1  -0.00396687  0.36134164  0.67861354  1
  H  H2  1  0.00026121  0.69293000  0.67811648  1
  H  H3  1  0.51142773  0.02943043  0.68284042  1
  H  H4  1  0.50589005  0.36534822  0.67902104  1
  H  H5  1  0.50181553  0.69864078  0.68016836  1
  H  H6  1  0.00054014  0.30302220  0.17483287  1
  H  H7  1  0.00194509  0.63848311  0.18194168  1
  H  H8  1  0.00293403  0.97071108  0.17622970  1
  H  H9  1  0.50118314  0.30471103  0.17933166  1
  H  H10  1  0.49318311  0.63669140  0.18238675  1
  H  H11  1  0.50013706  0.97322119  0.17703864  1
  H  H12  1  0.00699355  0.02809245  0.82313338  1
  H  H13  1  -0.02356738  0.35990479  0.82386135  1
  H  H14  1  0.00721030  0.69868993  0.81883478  1
  H  H15  1  0.49404589  0.03003807  0.82175522  1
  H  H16  1  0.51932224  0.36215882  0.82169843  1
  H  H17  1  0.49483486  0.69494839  0.82040722  1
  H  H18  1  0.01232674  0.30736499  0.32042900  1
  H  H19  1  0.00040288  0.63698325  0.31978812  1
  H  H20  1  -0.01222301  0.97367069  0.32430899  1
  H  H21  1  0.49130644  0.30137854  0.31795334  1
  H  H22  1  0.49532648  0.63767323  0.32339686  1
  H  H23  1  0.51285752  0.97253197  0.32112412  1
  H  H24  1  0.25845021  0.19423444  0.68014789  1
  H  H25  1  0.24829196  0.52747475  0.67566633  1
  H  H26  1  0.24530664  0.86140438  0.67407811  1
  H  H27  1  0.75427343  0.19764871  0.67969213  1
  H  H28  1  0.75740825  0.52760501  0.67490559  1
  H  H29  1  0.75893841  0.86105707  0.68143221  1
  H  H30  1  0.26304897  0.13473964  0.17739121  1
  H  H31  1  0.24750240  0.46662266  0.17645315  1
  H  H32  1  0.25564191  0.80617329  0.17669655  1
  H  H33  1  0.74825499  0.13549324  0.17638217  1
  H  H34  1  0.75485629  0.45611286  0.18490543  1
  H  H35  1  0.73719493  0.80175858  0.18127465  1
  H  H36  1  0.25994298  0.19661181  0.82138494  1
  H  H37  1  0.23644836  0.53090096  0.81934140  1
  H  H38  1  0.24658062  0.86294889  0.82320625  1
  H  H39  1  0.74915079  0.19597133  0.82090566  1
  H  H40  1  0.76658557  0.53453375  0.81939620  1
  H  H41  1  0.74113050  0.86162333  0.82446428  1
  H  H42  1  0.24115889  0.13513602  0.32218519  1
  H  H43  1  0.24440793  0.47023445  0.32993961  1
  H  H44  1  0.25945867  0.80267810  0.32008857  1
  H  H45  1  0.75285986  0.14113001  0.32489775  1
  H  H46  1  0.74927187  0.47197134  0.31981493  1
  H  H47  1  0.74946436  0.80339941  0.32221997  1
  H  H48  1  0.11992120  0.05505084  0.60784484  1
  H  H49  1  0.11788519  0.38864713  0.60523117  1
  H  H50  1  0.13288872  0.71676691  0.61696451  1
  H  H51  1  0.61837325  0.05799635  0.59996017  1
  H  H52  1  0.61286349  0.39099281  0.59784033  1
  H  H53  1  0.63369140  0.71815834  0.61655404  1
  H  H54  1  0.38088810  0.27674948  0.10571665  1
  H  H55  1  0.37762535  0.61039145  0.10287548  1
  H  H56  1  0.36579349  0.94734617  0.11843076  1
  H  H57  1  0.88020799  0.27652290  0.10320983  1
  H  H58  1  0.87775393  0.61343955  0.11291851  1
  H  H59  1  0.86641906  0.95067372  0.11750261  1
  H  H60  1  0.37497469  0.05523112  0.89834515  1
  H  H61  1  0.37588810  0.38132136  0.87171434  1
  H  H62  1  0.38255090  0.72161524  0.90017880  1
  H  H63  1  0.87284448  0.05322372  0.88251021  1
  H  H64  1  0.88184411  0.39324892  0.91369405  1
  H  H65  1  0.87824671  0.71949141  0.88538981  1
  H  H66  1  0.12996396  0.28018978  0.39616513  1
  H  H67  1  0.13411098  0.61178673  0.38173305  1
  H  H68  1  0.12799698  0.95311636  0.37657377  1
  H  H69  1  0.63007878  0.28348977  0.37111387  1
  H  H70  1  0.63095105  0.61837911  0.38381205  1
  H  H71  1  0.62741283  0.94246404  0.39778041  1
  H  H72  1  0.36643013  0.22325863  0.59874531  1
  H  H73  1  0.37045329  0.55327383  0.60398470  1
  H  H74  1  0.37050631  0.89025377  0.60791975  1
  H  H75  1  0.86801808  0.22069081  0.60231913  1
  H  H76  1  0.86584558  0.56069064  0.59554982  1
  H  H77  1  0.86709294  0.88844262  0.59913006  1
  H  H78  1  0.12916575  0.11691971  0.11899684  1
  H  H79  1  0.12583893  0.44288918  0.10357779  1
  H  H80  1  0.12151689  0.78024885  0.11890712  1
  H  H81  1  0.62836739  0.10901378  0.10386118  1
  H  H82  1  0.62741497  0.44711880  0.11442385  1
  H  H83  1  0.62249682  0.77735341  0.10054434  1
  H  H84  1  0.12422311  0.21721640  0.88153459  1
  H  H85  1  0.12884176  0.55641325  0.90327140  1
  H  H86  1  0.13631838  0.89411981  0.90430605  1
  H  H87  1  0.62199841  0.21924404  0.88698443  1
  H  H88  1  0.62632987  0.54973106  0.87162007  1
  H  H89  1  0.63879475  0.89233189  0.91057407  1
  H  H90  1  0.37657665  0.11648822  0.37769491  1
  H  H91  1  0.38309784  0.45329015  0.38176689  1
  H  H92  1  0.36718695  0.77379617  0.40004842  1
  H  H93  1  0.88519710  0.11327001  0.38493662  1
  H  H94  1  0.88373425  0.44860460  0.38092664  1
  H  H95  1  0.86975516  0.77782809  0.39495017  1
  H  H96  1  0.38406490  0.27842280  0.40107457  1
  H  H97  1  0.38416739  0.60799173  0.40222772  1
  H  H98  1  0.37970149  0.94834033  0.38227828  1
  H  H99  1  0.88140937  0.28052184  0.38343307  1
  H  H100  1  0.88605250  0.61327462  0.39847461  1
  H  H101  1  0.88495109  0.94104188  0.40970183  1
  H  H102  1  0.12032829  0.05769082  0.90028096  1
  H  H103  1  0.12201475  0.37965839  0.86579666  1
  H  H104  1  0.12702535  0.72446406  0.89420284  1
  H  H105  1  0.62366135  0.05436590  0.88638303  1
  H  H106  1  0.61951456  0.39133297  0.90901845  1
  H  H107  1  0.63014756  0.71750200  0.88062455  1
  H  H108  1  0.12884355  0.27776788  0.10868148  1
  H  H109  1  0.12738556  0.61160184  0.11248354  1
  H  H110  1  0.11265376  0.94144734  0.09570797  1
  H  H111  1  0.62928944  0.28092455  0.11334415  1
  H  H112  1  0.62509919  0.61367951  0.11766029  1
  H  H113  1  0.61322331  0.94379590  0.09887209  1
  H  H114  1  0.37187738  0.04954428  0.62669543  1
  H  H115  1  0.36639969  0.38348871  0.62483368  1
  H  H116  1  0.38492626  0.71908697  0.60525938  1
  H  H117  1  0.87092182  0.05581114  0.60754534  1
  H  H118  1  0.86932545  0.38899422  0.60977776  1
  H  H119  1  0.88456882  0.72260869  0.60063818  1
  H  H120  1  0.13053093  0.10922858  0.40212887  1
  H  H121  1  0.13877198  0.44204613  0.41182102  1
  H  H122  1  0.12101104  0.78574928  0.37380182  1
  H  H123  1  0.63691693  0.11030466  0.40054957  1
  H  H124  1  0.63540081  0.44529095  0.39769477  1
  H  H125  1  0.62094371  0.77738493  0.38863853  1
  H  H126  1  0.37156961  0.22242107  0.90143058  1
  H  H127  1  0.37531590  0.55001047  0.87643956  1
  H  H128  1  0.38205945  0.88528638  0.88193664  1
  H  H129  1  0.87150185  0.21991180  0.89179193  1
  H  H130  1  0.87123292  0.56216423  0.90513123  1
  H  H131  1  0.88171577  0.88395901  0.87599006  1
  H  H132  1  0.37661085  0.10951637  0.09882000  1
  H  H133  1  0.37466853  0.44621023  0.11101619  1
  H  H134  1  0.36893447  0.77758317  0.09810586  1
  H  H135  1  0.87730749  0.11321926  0.11026854  1
  H  H136  1  0.87592601  0.44446649  0.10862209  1
  H  H137  1  0.86995255  0.78097142  0.11677152  1
  H  H138  1  0.11995538  0.21346713  0.62265146  1
  H  H139  1  0.12169709  0.55412454  0.60790156  1
  H  H140  1  0.12256813  0.88711888  0.60249478  1
  H  H141  1  0.61934228  0.21856907  0.61958992  1
  H  H142  1  0.61995741  0.54992984  0.61842371  1
  H  H143  1  0.62080253  0.88208391  0.62438013  1
  H  H144  1  0.44135355  0.74556161  0.49377436  1
  H  H145  1  0.07788323  0.59491293  0.00439834  1
  H  H146  1  0.81162415  0.41067409  0.00859494  1
  H  H147  1  0.35386085  0.08510865  0.49262370  1
  H  H148  1  0.54245593  0.41851200  0.49092220  1
  H  H149  1  0.61480974  0.25493608  0.48625840  1
  H  H150  1  0.56569323  0.90844379  0.50142480  1
  H  H151  1  0.70069079  0.41317324  0.50298413  1
  H  H152  1  0.30117951  0.74887413  -0.00375502  1
  H  H153  1  0.12182406  0.41467073  0.97854945  1
  H  H154  1  0.54637212  0.91489870  -0.00307810  1
  H  H155  1  0.96849742  0.41696385  1.00793279  1
  H  H156  1  0.92022855  0.75037732  0.99543767  1
  H  H157  1  0.45354767  0.25188449  0.50676291  1
  H  H158  1  0.33752945  0.41747126  0.99887966  1
  H  H159  1  0.29461444  0.25373267  0.49532175  1
  H  H160  1  0.37094415  0.41839665  0.49842660  1
  H  H161  1  0.53863461  0.42113926  1.00846547  1
  H  H162  1  0.20930848  0.91872205  1.00555398  1
  H  H163  1  0.44996147  0.75063207  1.00519375  1
  H  H164  1  0.17221810  0.92639429  0.50405204  1
  H  H165  1  0.32367437  0.90937354  0.50174079  1
  H  H166  1  0.71891492  0.91635978  1.00897900  1
  H  H167  1  0.07102738  0.24615852  0.50063910  1
  H  H168  1  0.80810045  0.25265832  0.49472038  1
  H  H169  1  0.95101981  0.58686201  0.50555049  1
  H  H170  1  0.13793951  0.75289894  0.48736795  1
  H  H171  1  0.65924014  0.24757312  0.99844044  1
  H  H172  1  0.30527746  0.25099628  1.00640991  1
  H  H173  1  0.64560395  0.58789421  0.51379809  1
  H  H174  1  0.89477790  0.91502976  0.01156814  1
  H  H175  1  0.58362097  0.08561114  0.99655205  1
  H  H176  1  0.20320015  0.57999976  1.00790048  1
  H  H177  1  0.82556962  0.24749309  1.00165108  1
  H  H178  1  0.92514244  0.58848040  0.00081765  1
  H  H179  1  0.70140609  0.08271837  0.50396033  1
  H  H180  1  0.15509225  0.08626611  0.00468466  1
  H  H181  1  0.79606410  0.91689268  0.49572097  1
  H  H182  1  0.79611014  0.58573487  1.00432211  1
  H  H183  1  0.08686532  0.24609361  0.00388211  1
  H  H184  1  0.83654081  0.08507171  0.00399249  1
  H  H185  1  0.68254605  0.41083466  0.01298481  1
  H  H186  1  0.64238764  0.58152925  0.98493504  1
  H  H187  1  0.54542377  0.08715122  0.49709315  1
  H  H188  1  0.04094202  0.92439639  -0.00688073  1
  H  H189  1  0.79238778  0.57667039  0.49324594  1
  H  H190  1  0.96456276  0.91659606  0.50762753  1
  H  H191  1  0.29864582  0.74304692  0.50556359  1
  Pb  Pb192  1  0.24691953  0.04686333  0.75668103  1
  Pb  Pb193  1  0.24636147  0.37991342  0.74590086  1
  Pb  Pb194  1  0.25567177  0.71659213  0.75615792  1
  Pb  Pb195  1  0.75116200  0.04948125  0.74458947  1
  Pb  Pb196  1  0.75028554  0.38413591  0.75611822  1
  Pb  Pb197  1  0.75168093  0.71446113  0.74688502  1
  Pb  Pb198  1  0.25085440  0.28497155  0.25281054  1
  Pb  Pb199  1  0.25372807  0.61885035  0.24800853  1
  Pb  Pb200  1  0.24892478  0.95307207  0.24614793  1
  Pb  Pb201  1  0.75441184  0.28551318  0.24435560  1
  Pb  Pb202  1  0.75170736  0.61754227  0.25063828  1
  Pb  Pb203  1  0.75065031  0.95334620  0.25473245  1
  Pb  Pb204  1  -0.00167403  0.21329771  0.75230024  1
  Pb  Pb205  1  0.00295228  0.55076012  0.75340982  1
  Pb  Pb206  1  0.00086144  0.88101613  0.74687769  1
  Pb  Pb207  1  0.49569126  0.21463494  0.74962577  1
  Pb  Pb208  1  0.49728110  0.54693143  0.74547573  1
  Pb  Pb209  1  0.50411592  0.88233968  0.75727825  1
  Pb  Pb210  1  0.00236225  0.11955864  0.25094802  1
  Pb  Pb211  1  0.00493393  0.45249884  0.24597868  1
  Pb  Pb212  1  -0.00153333  0.78590478  0.24991853  1
  Pb  Pb213  1  0.50320938  0.11887904  0.25009579  1
  Pb  Pb214  1  0.50077378  0.45176493  0.25111756  1
  Pb  Pb215  1  0.50061664  0.78629176  0.24830141  1
  C  C216  1  -0.00466056  0.04659928  0.63075647  1
  C  C217  1  -0.00569498  0.37869783  0.63182069  1
  C  C218  1  0.00570198  0.71057497  0.63171453  1
  C  C219  1  0.50024364  0.04517517  0.63611530  1
  C  C220  1  0.49515559  0.37985051  0.63180572  1
  C  C221  1  0.50658722  0.71214685  0.63222273  1
  C  C222  1  0.00374193  0.28607660  0.12795642  1
  C  C223  1  0.00309159  0.62221301  0.13456086  1
  C  C224  1  -0.00630469  0.95495252  0.12914915  1
  C  C225  1  0.50358162  0.28771529  0.13258944  1
  C  C226  1  0.49857123  0.62129842  0.13493724  1
  C  C227  1  0.49314648  0.95616121  0.13053392  1
  C  C228  1  -0.00037409  0.04593096  0.86919070  1
  C  C229  1  -0.00646486  0.37703019  0.86914752  1
  C  C230  1  0.00428400  0.71427421  0.86630598  1
  C  C231  1  0.49741258  0.04635985  0.86892284  1
  C  C232  1  0.50468078  0.37812883  0.86780355  1
  C  C233  1  0.50266529  0.71118148  0.86725123  1
  C  C234  1  0.00784167  0.29006838  0.36714443  1
  C  C235  1  0.00716313  0.62147918  0.36703520  1
  C  C236  1  -0.00013094  0.95710263  0.37057891  1
  C  C237  1  0.50239918  0.28751429  0.36542418  1
  C  C238  1  0.50397588  0.62241183  0.37036518  1
  C  C239  1  0.50652126  0.95496083  0.36764865  1
  C  C240  1  0.24791383  0.20978228  0.63325166  1
  C  C241  1  0.24649971  0.54426877  0.62884300  1
  C  C242  1  0.24606467  0.87913483  0.62726276  1
  C  C243  1  0.74761635  0.21237077  0.63215723  1
  C  C244  1  0.74754148  0.54520257  0.62853079  1
  C  C245  1  0.74859936  0.87660066  0.63454360  1
  C  C246  1  0.25551610  0.12018494  0.12995693  1
  C  C247  1  0.24996379  0.45193554  0.12875910  1
  C  C248  1  0.24898622  0.78900809  0.13021081  1
  C  C249  1  0.75179091  0.11946958  0.12912033  1
  C  C250  1  0.75273299  0.44815265  0.13533154  1
  C  C251  1  0.74304657  0.78702396  0.13363265  1
  C  C252  1  0.25162102  0.21158121  0.86878522  1
  C  C253  1  0.24701132  0.54567085  0.86645017  1
  C  C254  1  0.25478824  0.87940827  0.86996873  1
  C  C255  1  0.74748617  0.21178275  0.86842924  1
  C  C256  1  0.75499935  0.54789164  0.86701663  1
  C  C257  1  0.75390066  0.87770056  0.87085373  1
  C  C258  1  0.25037233  0.12051713  0.36944304  1
  C  C259  1  0.25608585  0.45483617  0.37660546  1
  C  C260  1  0.24859493  0.78752825  0.36716614  1
  C  C261  1  0.75796826  0.12325067  0.37126538  1
  C  C262  1  0.75639195  0.45549609  0.36671748  1
  C  C263  1  0.74635625  0.78639150  0.36900316  1
  C  C264  1  0.03227094  0.07732402  0.53916626  1
  C  C265  1  0.27349323  0.23919339  0.96413044  1
  C  C266  1  0.43745576  0.92335697  0.04342097  1
  C  C267  1  0.81097476  0.08898577  0.45875138  1
  C  C268  1  0.96634149  0.25287131  0.03509396  1
  C  C269  1  0.48082864  0.73991491  0.96214720  1
  C  C270  1  0.54119126  0.07485386  0.95930054  1
  C  C271  1  0.19297938  0.75530797  0.04356165  1
  C  C272  1  0.18742606  0.76155706  0.45410779  1
  C  C273  1  0.56432981  0.26400613  0.45285092  1
  C  C274  1  0.23749103  0.42470974  0.47261894  1
  C  C275  1  0.70291404  0.23773911  0.96134487  1
  C  C276  1  0.31810608  0.42829954  0.46337697  1
  C  C277  1  0.48112335  0.59349177  0.46567472  1
  C  C278  1  0.96167605  0.74048664  0.95775036  1
  C  C279  1  0.51676150  0.07451461  0.54059628  1
  C  C280  1  0.30691118  0.09410402  0.45846525  1
  C  C281  1  0.69275569  0.23919060  0.54351237  1
  C  C282  1  0.23082917  0.57132337  0.96313829  1
  C  C283  1  0.96213818  0.59588355  0.04168210  1
  C  C284  1  0.47616145  0.73648895  0.53538242  1
  C  C285  1  0.98260048  0.59526016  0.46232228  1
  C  C286  1  0.48340315  0.26230956  0.46326722  1
  C  C287  1  0.43217947  0.40467290  0.54494306  1
  C  C288  1  0.69086290  0.57318769  0.95210958  1
  C  C289  1  0.28101119  0.57535079  0.53700463  1
  C  C290  1  0.78524105  0.23789673  0.96296328  1
  C  C291  1  0.26542142  0.23996132  0.53816651  1
  C  C292  1  0.71527797  0.08959888  0.03479192  1
  C  C293  1  0.51355639  0.40820980  0.96377526  1
  C  C294  1  0.26861212  0.75712981  0.46337153  1
  C  C295  1  0.03598168  0.25873766  0.46023135  1
  C  C296  1  0.21202804  0.42649156  0.03410193  1
  C  C297  1  0.55726311  0.73601578  0.54149570  1
  C  C298  1  0.02477407  0.07917105  0.96282458  1
  C  C299  1  0.06713918  0.40686652  0.94816980  1
  C  C300  1  0.76641537  0.90521443  0.53903186  1
  C  C301  1  0.20162022  0.09463719  0.03963165  1
  C  C302  1  0.73263922  0.42556298  0.46087929  1
  C  C303  1  0.54699286  0.25725909  0.04209443  1
  C  C304  1  0.77911851  0.75407750  0.46097468  1
  C  C305  1  0.29376698  0.42701114  0.03507097  1
  C  C306  1  0.05425129  0.74011138  0.54294523  1
  C  C307  1  0.51272283  0.40705140  0.53421213  1
  C  C308  1  0.53165196  0.92192820  0.46073725  1
  C  C309  1  0.28285345  0.09226282  0.03422835  1
  C  C310  1  0.22597298  0.09171353  0.46521675  1
  C  C311  1  0.77360896  0.24069544  0.53560952  1
  N  N312  1  0.55808030  0.59753137  0.46079480  1
  N  N313  1  0.04184077  0.59437478  0.04277618  1
  N  N314  1  0.54672786  0.59377848  0.04442822  1
  N  N315  1  0.27147258  0.75598283  0.03727805  1
  N  N316  1  0.30899685  0.57072110  0.95379981  1
  N  N317  1  0.70177063  0.75405666  0.46021353  1
  N  N318  1  0.43861096  0.07180825  0.54963780  1
  N  N319  1  0.95493890  0.07725701  0.53772683  1
  N  N320  1  0.51595173  0.92327816  0.03753674  1
  N  N321  1  0.98995309  0.41179195  0.96324857  1
  N  N322  1  0.79447766  0.09153753  0.03831394  1
  N  N323  1  0.06532907  0.93134611  0.45519787  1
  N  N324  1  0.06131084  0.59290383  0.45625849  1
  N  N325  1  0.20382048  0.57582079  0.53690714  1
  N  N326  1  0.74226189  0.90868797  0.96487918  1
  N  N327  1  0.45251562  0.92355726  0.45611944  1
  N  N328  1  0.55957890  0.73993381  0.95548207  1
  N  N329  1  0.23579630  0.91049310  0.96301341  1
  N  N330  1  0.97722522  0.74278290  0.53644641  1
  N  N331  1  0.76914921  0.57721606  0.96242267  1
  N  N332  1  0.28744539  0.91582417  0.53980490  1
  N  N333  1  0.69051017  0.57009282  0.54241152  1
  N  N334  1  0.43631681  0.40492319  0.95135817  1
  N  N335  1  0.95330213  0.41086485  0.54070847  1
  N  N336  1  0.94706516  0.07743913  0.95821069  1
  N  N337  1  0.98854285  0.92547119  0.46430964  1
  N  N338  1  0.04533360  0.25506492  0.03794855  1
  N  N339  1  0.01588639  0.92109268  0.03675824  1
  N  N340  1  0.81872971  0.90367093  0.95512796  1
  N  N341  1  0.46207670  0.07524383  0.96354080  1
  N  N342  1  0.04097891  0.74214962  0.96102253  1
  N  N343  1  0.73247702  0.08968504  0.46353868  1
  N  N344  1  0.70740127  0.44386027  0.04012029  1
  N  N345  1  0.93835969  0.93266126  0.04165542  1
  N  N346  1  0.81153456  0.42711598  0.45568073  1
  N  N347  1  0.76819354  0.58164549  0.53682619  1
  N  N348  1  0.20916360  0.90400579  0.53452847  1
  N  N349  1  0.18704433  0.23635493  0.54595180  1
  N  N350  1  0.19456577  0.23721185  0.95787555  1
  N  N351  1  0.47085482  0.59246909  0.03972774  1
  N  N352  1  0.71622048  0.75926820  0.03794587  1
  N  N353  1  0.79007979  0.44311267  0.03824579  1
  N  N354  1  0.79260122  0.76023973  0.04316808  1
  N  N355  1  0.68787624  0.90350801  0.54720908  1
  N  N356  1  0.95694079  0.25843355  0.45643361  1
  N  N357  1  0.31325896  0.90715369  0.95702290  1
  N  N358  1  0.46944515  0.25608378  0.03824433  1
  N  N359  1  0.02948809  0.41079276  0.53936263  1
  N  N360  1  0.05991817  0.05873590  0.59497641  1
  N  N361  1  0.05641476  0.39123968  0.59576972  1
  N  N362  1  0.07454466  0.72128454  0.60075294  1
  N  N363  1  0.55611293  0.05826225  0.59338624  1
  N  N364  1  0.55122551  0.39131580  0.58933357  1
  N  N365  1  0.57525420  0.72158653  0.59987832  1
  N  N366  1  0.44230502  0.27559822  0.09588807  1
  N  N367  1  0.43941331  0.60959336  0.09559462  1
  N  N368  1  0.42310687  0.94314140  0.10112361  1
  N  N369  1  0.94035604  0.27207724  0.09082884  1
  N  N370  1  0.93782368  0.61115908  0.09910327  1
  N  N371  1  0.92420480  0.94416922  0.10146802  1
  N  N372  1  0.43654840  0.05744192  0.90689354  1
  N  N373  1  0.43244235  0.38642786  0.89162835  1
  N  N374  1  0.44424907  0.72285087  0.90836203  1
  N  N375  1  0.93169050  0.05676577  0.89854783  1
  N  N376  1  0.94456863  0.39014298  0.91546906  1
  N  N377  1  0.93771871  0.72379915  0.89984870  1
  N  N378  1  0.06884975  0.27778494  0.40572425  1
  N  N379  1  0.07487155  0.60956355  0.39703824  1
  N  N380  1  0.07163516  0.94858188  0.39605091  1
  N  N381  1  0.57429444  0.27945991  0.39190665  1
  N  N382  1  0.57261405  0.61575443  0.40021161  1
  N  N383  1  0.56623571  0.94084678  0.40680453  1
  N  N384  1  0.30424193  0.22374624  0.59131139  1
  N  N385  1  0.31009818  0.55658723  0.59235525  1
  N  N386  1  0.31072852  0.88933996  0.59329193  1
  N  N387  1  0.80679322  0.22363248  0.59236002  1
  N  N388  1  0.80403108  0.55658875  0.58691396  1
  N  N389  1  0.80510305  0.88913967  0.59225528  1
  N  N390  1  0.18611702  0.11178491  0.10038411  1
  N  N391  1  0.18613982  0.44120455  0.09119040  1
  N  N392  1  0.17888556  0.77502824  0.10127293  1
  N  N393  1  0.68885105  0.10636812  0.09124652  1
  N  N394  1  0.68739333  0.44354956  0.10091705  1
  N  N395  1  0.68425528  0.77604921  0.09373872  1
  N  N396  1  0.18276221  0.22005560  0.89809098  1
  N  N397  1  0.19088634  0.55660225  0.90970734  1
  N  N398  1  0.19856279  0.89131908  0.91141654  1
  N  N399  1  0.68126887  0.22174241  0.90209905  1
  N  N400  1  0.68192421  0.55564638  0.89277520  1
  N  N401  1  0.70125741  0.88972350  0.91494744  1
  N  N402  1  0.32071643  0.11197946  0.39777521  1
  N  N403  1  0.32794642  0.44679082  0.40260774  1
  N  N404  1  0.30549866  0.77357513  0.40894857  1
  N  N405  1  0.82697853  0.10909347  0.40146702  1
  N  N406  1  0.82463147  0.44547553  0.39669637  1
  N  N407  1  0.80926308  0.77351901  0.40625316  1
  N  N408  1  0.44597856  0.27696438  0.40847185  1
  N  N409  1  0.44570077  0.60835066  0.41138689  1
  N  N410  1  0.43884673  0.94414449  0.39765304  1
  N  N411  1  0.94123714  0.27785980  0.39819345  1
  N  N412  1  0.94757954  0.61241780  0.40790779  1
  N  N413  1  0.94714134  0.94375757  0.41413506  1
  N  N414  1  0.05887153  0.06031403  0.90917791  1
  N  N415  1  0.06881912  0.38736269  0.88922887  1
  N  N416  1  0.06571117  0.72602706  0.90353752  1
  N  N417  1  0.56439849  0.05757146  0.90135942  1
  N  N418  1  0.55719482  0.39186476  0.91281387  1
  N  N419  1  0.57125076  0.72209768  0.89634262  1
  N  N420  1  0.06904382  0.27642095  0.09483186  1
  N  N421  1  0.06693598  0.61371529  0.09931604  1
  N  N422  1  0.05069715  0.94481826  0.08757212  1
  N  N423  1  0.57019924  0.27605221  0.09928837  1
  N  N424  1  0.56559086  0.61175303  0.10334883  1
  N  N425  1  0.55139576  0.94526405  0.09050484  1
  N  N426  1  0.42982373  0.05390986  0.60920734  1
  N  N427  1  0.42259361  0.38827781  0.60472122  1
  N  N428  1  0.44546096  0.72156566  0.59332135  1
  N  N429  1  0.93160177  0.05777321  0.59617627  1
  N  N430  1  0.92984594  0.39063580  0.59790997  1
  N  N431  1  0.94680450  0.72404961  0.59326455  1
  N  N432  1  0.19209850  0.10779511  0.41165418  1
  N  N433  1  0.20020199  0.44070936  0.42013577  1
  N  N434  1  0.17685310  0.78020758  0.39413833  1
  N  N435  1  0.69854208  0.11261324  0.41042256  1
  N  N436  1  0.69711944  0.44264842  0.40668461  1
  N  N437  1  0.68108372  0.77454565  0.40158346  1
  N  N438  1  0.30978479  0.22362665  0.90991587  1
  N  N439  1  0.31726074  0.55482732  0.89380260  1
  N  N440  1  0.32451554  0.88954485  0.89832619  1
  N  N441  1  0.81132237  0.22199609  0.90475315  1
  N  N442  1  0.80897240  0.55915166  0.91046958  1
  N  N443  1  0.82583253  0.88708641  0.89572591  1
  N  N444  1  0.31535392  0.10756985  0.08868322  1
  N  N445  1  0.31592655  0.44299358  0.09518033  1
  N  N446  1  0.30711684  0.77853906  0.08991453  1
  N  N447  1  0.81740540  0.11047646  0.09620714  1
  N  N448  1  0.81497212  0.44207849  0.09784566  1
  N  N449  1  0.81034367  0.77684791  0.10261614  1
  N  N450  1  0.17796905  0.21772227  0.60526726  1
  N  N451  1  0.18185547  0.55587093  0.59530092  1
  N  N452  1  0.18311306  0.89198437  0.59221453  1
  N  N453  1  0.67716479  0.22250795  0.60198444  1
  N  N454  1  0.67771413  0.55683742  0.60187971  1
  N  N455  1  0.67871953  0.88568457  0.60676634  1
  Cl  Cl456  1  0.24328825  0.04933342  0.62489428  1
  Cl  Cl457  1  0.23977888  0.38675273  0.61335898  1
  Cl  Cl458  1  0.25967916  0.72012143  0.62276142  1
  Cl  Cl459  1  0.74158939  0.05917724  0.60603738  1
  Cl  Cl460  1  0.73995611  0.39234122  0.62097697  1
  Cl  Cl461  1  0.76174100  0.71919695  0.61439155  1
  Cl  Cl462  1  0.25646242  0.27521057  0.11801233  1
  Cl  Cl463  1  0.25072493  0.61108767  0.11081610  1
  Cl  Cl464  1  0.23290647  0.93839167  0.10621471  1
  Cl  Cl465  1  0.75519247  0.28623420  0.10924258  1
  Cl  Cl466  1  0.75437428  0.60760981  0.11091890  1
  Cl  Cl467  1  0.73629359  0.94218600  0.10371336  1
  Cl  Cl468  1  0.24661485  0.05518477  0.89244204  1
  Cl  Cl469  1  0.24960262  0.38269144  0.87622121  1
  Cl  Cl470  1  0.25697705  0.72637262  0.89533082  1
  Cl  Cl471  1  0.74814391  0.05347708  0.87881265  1
  Cl  Cl472  1  0.75338916  0.39199085  0.90696759  1
  Cl  Cl473  1  0.75447305  0.71564734  0.87812298  1
  Cl  Cl474  1  0.25811268  0.27850338  0.38817321  1
  Cl  Cl475  1  0.26212511  0.60762170  0.37842743  1
  Cl  Cl476  1  0.25469474  0.94561307  0.38139123  1
  Cl  Cl477  1  0.75832937  0.27876607  0.37548552  1
  Cl  Cl478  1  0.76209368  0.60577500  0.38938631  1
  Cl  Cl479  1  0.76165153  0.94365083  0.39036603  1
  Cl  Cl480  1  -0.00673927  0.21735425  0.62063979  1
  Cl  Cl481  1  -0.01280469  0.56264649  0.61792552  1
  Cl  Cl482  1  -0.00627928  0.89238110  0.60608492  1
  Cl  Cl483  1  0.48938848  0.22245155  0.61464818  1
  Cl  Cl484  1  0.49538008  0.55416949  0.61159868  1
  Cl  Cl485  1  0.49229126  0.88736260  0.62445357  1
  Cl  Cl486  1  0.00020271  0.11570036  0.11819190  1
  Cl  Cl487  1  -0.00225316  0.44029422  0.10318358  1
  Cl  Cl488  1  -0.00547349  0.78207391  0.11551260  1
  Cl  Cl489  1  0.50403356  0.11069711  0.11751600  1
  Cl  Cl490  1  0.50546141  0.44296413  0.11591376  1
  Cl  Cl491  1  0.49328189  0.77958541  0.11066219  1
  Cl  Cl492  1  -0.00245340  0.22283800  0.88736909  1
  Cl  Cl493  1  0.00042999  0.56117636  0.89864921  1
  Cl  Cl494  1  0.01628312  0.89952286  0.89078383  1
  Cl  Cl495  1  0.49572931  0.22101310  0.87996863  1
  Cl  Cl496  1  0.50073122  0.54800528  0.87274520  1
  Cl  Cl497  1  0.51837953  0.89339094  0.89739056  1
  Cl  Cl498  1  0.00930654  0.10926036  0.38253989  1
  Cl  Cl499  1  0.01234757  0.44692504  0.37389353  1
  Cl  Cl500  1  -0.00836075  0.78704697  0.37724893  1
  Cl  Cl501  1  0.51582676  0.10558143  0.38542233  1
  Cl  Cl502  1  0.51438473  0.45046209  0.38396267  1
  Cl  Cl503  1  0.49155119  0.77590887  0.38127587  1
  Cl  Cl504  1  0.35907714  0.14619068  0.74934626  1
  Cl  Cl505  1  0.35966683  0.47965699  0.75103880  1
  Cl  Cl506  1  0.35230434  0.81590815  0.75517546  1
  Cl  Cl507  1  0.85270475  0.14652998  0.75245031  1
  Cl  Cl508  1  0.85438149  0.48030256  0.75041305  1
  Cl  Cl509  1  0.86542456  0.81436575  0.76004647  1
  Cl  Cl510  1  0.14499008  0.18211939  0.24760958  1
  Cl  Cl511  1  0.14271397  0.51798612  0.24093293  1
  Cl  Cl512  1  0.13689289  0.85241005  0.25150505  1
  Cl  Cl513  1  0.64299408  0.18475916  0.24747452  1
  Cl  Cl514  1  0.64887442  0.51966006  0.24404336  1
  Cl  Cl515  1  0.64016422  0.85215784  0.25557480  1
  Cl  Cl516  1  0.13688879  0.14904057  0.75296387  1
  Cl  Cl517  1  0.13680979  0.48185960  0.74991977  1
  Cl  Cl518  1  0.13363783  0.81155061  0.74900835  1
  Cl  Cl519  1  0.63362308  0.14704224  0.74621504  1
  Cl  Cl520  1  0.63461650  0.48125808  0.74862694  1
  Cl  Cl521  1  0.64039533  0.81566690  0.74533732  1
  Cl  Cl522  1  0.36514627  0.18516727  0.25691894  1
  Cl  Cl523  1  0.36166255  0.51529265  0.24889084  1
  Cl  Cl524  1  0.35841990  0.85095433  0.24802858  1
  Cl  Cl525  1  0.86254301  0.18432808  0.25025622  1
  Cl  Cl526  1  0.86619391  0.51812798  0.24472307  1
  Cl  Cl527  1  0.86089183  0.85315700  0.24266007  1
  Cl  Cl528  1  0.10744894  0.31335554  0.75367291  1
  Cl  Cl529  1  0.10798865  0.64503629  0.75303594  1
  Cl  Cl530  1  0.10799042  0.98162704  0.74888842  1
  Cl  Cl531  1  0.60608835  0.31458700  0.74941907  1
  Cl  Cl532  1  0.61458404  0.64537796  0.74785491  1
  Cl  Cl533  1  0.60473479  0.97886253  0.75072558  1
  Cl  Cl534  1  0.38853404  0.01884252  0.25095778  1
  Cl  Cl535  1  0.39789731  0.35234099  0.24893844  1
  Cl  Cl536  1  0.39301025  0.68326861  0.24981005  1
  Cl  Cl537  1  0.88549967  0.02086763  0.24171812  1
  Cl  Cl538  1  0.89030832  0.35366230  0.24632455  1
  Cl  Cl539  1  0.89435504  0.68313725  0.24764401  1
  Cl  Cl540  1  0.38324262  0.31442004  0.74909182  1
  Cl  Cl541  1  0.39192466  0.65032930  0.75328617  1
  Cl  Cl542  1  0.38454405  0.97897706  0.75161634  1
  Cl  Cl543  1  0.88431443  0.31374801  0.75354858  1
  Cl  Cl544  1  0.88720243  0.64749162  0.75472197  1
  Cl  Cl545  1  0.88591142  0.97979238  0.75427546  1
  Cl  Cl546  1  0.10686959  0.01466843  0.24909655  1
  Cl  Cl547  1  0.11101190  0.34843251  0.24135729  1
  Cl  Cl548  1  0.11578216  0.68739434  0.25344291  1
  Cl  Cl549  1  0.61100933  0.01573858  0.24462357  1
  Cl  Cl550  1  0.61925298  0.35444293  0.25079120  1
  Cl  Cl551  1  0.61624377  0.68681560  0.25426665  1
