# generated using pymatgen
data_H8PbC4(N3Cl2)2
_symmetry_space_group_name_H-M   'P 1'
_cell_length_a   16.62461383
_cell_length_b   22.50989373
_cell_length_c   21.59193425
_cell_angle_alpha   90.00122140
_cell_angle_beta   90.00645487
_cell_angle_gamma   90.00273895
_symmetry_Int_Tables_number   1
_chemical_formula_structural   H8PbC4(N3Cl2)2
_chemical_formula_sum   'H192 Pb24 C96 N144 Cl96'
_cell_volume   8080.09666460
_cell_formula_units_Z   24
loop_
 _symmetry_equiv_pos_site_id
 _symmetry_equiv_pos_as_xyz
  1  'x, y, z'
loop_
 _atom_site_type_symbol
 _atom_site_label
 _atom_site_symmetry_multiplicity
 _atom_site_fract_x
 _atom_site_fract_y
 _atom_site_fract_z
 _atom_site_occupancy
  H  H0  1  0.00080006  0.02833740  0.68285020  1
  H  H1  1  -0.00129955  0.36515992  0.68115749  1
  H  H2  1  -0.00776524  0.69540850  0.68017438  1
  H  H3  1  0.48964154  0.03043332  0.68155846  1
  H  H4  1  0.50267347  0.36511714  0.67607152  1
  H  H5  1  0.49848378  0.69747255  0.68341103  1
  H  H6  1  -0.01083741  0.30322744  0.18058789  1
  H  H7  1  -0.00372080  0.63722456  0.17441364  1
  H  H8  1  0.01472897  0.97039276  0.17528749  1
  H  H9  1  0.50947550  0.30254976  0.17997790  1
  H  H10  1  0.49632361  0.63478830  0.17723757  1
  H  H11  1  0.48434389  0.96776649  0.18022436  1
  H  H12  1  -0.00412010  0.03192870  0.81809597  1
  H  H13  1  0.01200193  0.36228000  0.82665116  1
  H  H14  1  -0.00219562  0.69518421  0.81902320  1
  H  H15  1  0.49125281  0.03151881  0.81713071  1
  H  H16  1  0.49129775  0.36486910  0.82325191  1
  H  H17  1  0.49135220  0.69584319  0.82238517  1
  H  H18  1  0.00660357  0.30328294  0.32487113  1
  H  H19  1  -0.00337731  0.63521488  0.32081620  1
  H  H20  1  0.00007363  0.96776684  0.31903668  1
  H  H21  1  0.49983929  0.30337792  0.31907318  1
  H  H22  1  0.50982967  0.63591279  0.31741350  1
  H  H23  1  0.50302004  0.96925267  0.31841762  1
  H  H24  1  0.24697866  0.19866859  0.67924745  1
  H  H25  1  0.25858048  0.53074069  0.68031294  1
  H  H26  1  0.24990066  0.86172309  0.67792296  1
  H  H27  1  0.74851587  0.19678306  0.67760098  1
  H  H28  1  0.73967701  0.52996233  0.68313017  1
  H  H29  1  0.76069357  0.86426450  0.68243650  1
  H  H30  1  0.25503240  0.13601143  0.18257158  1
  H  H31  1  0.25301234  0.46681086  0.17526663  1
  H  H32  1  0.25266323  0.80141605  0.18315892  1
  H  H33  1  0.74769316  0.13549089  0.18158524  1
  H  H34  1  0.75001864  0.47130838  0.17478095  1
  H  H35  1  0.75031007  0.80376481  0.17494386  1
  H  H36  1  0.25024319  0.19693780  0.81919053  1
  H  H37  1  0.26004387  0.52781402  0.82392709  1
  H  H38  1  0.25061634  0.86574099  0.81733788  1
  H  H39  1  0.74652380  0.19679452  0.82194020  1
  H  H40  1  0.74401567  0.53224861  0.82466534  1
  H  H41  1  0.74760919  0.86452486  0.82458140  1
  H  H42  1  0.25155631  0.13832337  0.32080624  1
  H  H43  1  0.23931582  0.46809048  0.32115220  1
  H  H44  1  0.24553856  0.80732970  0.31857771  1
  H  H45  1  0.75390164  0.13516504  0.32281285  1
  H  H46  1  0.76324656  0.46751613  0.31919924  1
  H  H47  1  0.75799421  0.80395588  0.31948002  1
  H  H48  1  0.12935880  0.05231795  0.61423048  1
  H  H49  1  0.11662251  0.38573042  0.60684454  1
  H  H50  1  0.12953039  0.71824544  0.62578155  1
  H  H51  1  0.62903833  0.05186625  0.62656094  1
  H  H52  1  0.61620760  0.38699694  0.59614527  1
  H  H53  1  0.62634088  0.72083537  0.61424907  1
  H  H54  1  0.36780652  0.28721498  0.12747285  1
  H  H55  1  0.38516589  0.60529773  0.09607038  1
  H  H56  1  0.38174743  0.94027526  0.09416913  1
  H  H57  1  0.87260755  0.27724355  0.10175307  1
  H  H58  1  0.88197105  0.60987127  0.09765130  1
  H  H59  1  0.87259230  0.95174345  0.12517550  1
  H  H60  1  0.38057528  0.05680474  0.89768077  1
  H  H61  1  0.38144516  0.39206783  0.90583862  1
  H  H62  1  0.38691432  0.72484780  0.90811147  1
  H  H63  1  0.87893521  0.05609545  0.89689129  1
  H  H64  1  0.87552031  0.38483142  0.88352498  1
  H  H65  1  0.87907867  0.72078173  0.89551974  1
  H  H66  1  0.12075316  0.27643974  0.40281685  1
  H  H67  1  0.12594566  0.61205991  0.38643900  1
  H  H68  1  0.13149783  0.94713329  0.38225663  1
  H  H69  1  0.62838823  0.27791559  0.38569471  1
  H  H70  1  0.62037528  0.61041467  0.39874706  1
  H  H71  1  0.62651479  0.94647286  0.39071592  1
  H  H72  1  0.37244609  0.22048959  0.61198418  1
  H  H73  1  0.37438407  0.55553618  0.60321730  1
  H  H74  1  0.37230137  0.88853271  0.60731429  1
  H  H75  1  0.87448053  0.22091756  0.60797344  1
  H  H76  1  0.87584442  0.54950742  0.62284693  1
  H  H77  1  0.86998034  0.89132890  0.60147000  1
  H  H78  1  0.12189707  0.11582974  0.12207705  1
  H  H79  1  0.12606435  0.44741954  0.10920679  1
  H  H80  1  0.11935132  0.78081972  0.12299991  1
  H  H81  1  0.62313041  0.11298584  0.11073122  1
  H  H82  1  0.62419795  0.44670240  0.10625254  1
  H  H83  1  0.62148587  0.77770133  0.10973798  1
  H  H84  1  0.13021119  0.22187819  0.89152085  1
  H  H85  1  0.11778716  0.54697253  0.87349949  1
  H  H86  1  0.12748286  0.88773891  0.88925377  1
  H  H87  1  0.63117635  0.22470376  0.89919181  1
  H  H88  1  0.62177289  0.55495858  0.89420027  1
  H  H89  1  0.62815179  0.88911610  0.89930757  1
  H  H90  1  0.36614037  0.10931983  0.39854626  1
  H  H91  1  0.38222311  0.45079953  0.36942782  1
  H  H92  1  0.37039104  0.77976978  0.38883711  1
  H  H93  1  0.86664658  0.11188159  0.40210326  1
  H  H94  1  0.88140817  0.44244967  0.39678736  1
  H  H95  1  0.86822608  0.77595121  0.40136238  1
  H  H96  1  0.38037829  0.27875194  0.39419371  1
  H  H97  1  0.37321535  0.61413482  0.37624665  1
  H  H98  1  0.37715550  0.94606857  0.38806095  1
  H  H99  1  0.87291063  0.28033626  0.38534845  1
  H  H100  1  0.87675064  0.60939859  0.39399037  1
  H  H101  1  0.88244387  0.94777818  0.39425412  1
  H  H102  1  0.12709144  0.05290061  0.88457008  1
  H  H103  1  0.12221835  0.39266781  0.90600427  1
  H  H104  1  0.12713286  0.72029941  0.88659076  1
  H  H105  1  0.62779259  0.05075222  0.87721072  1
  H  H106  1  0.62778249  0.38547410  0.88041717  1
  H  H107  1  0.63077044  0.71486189  0.87632643  1
  H  H108  1  0.12045753  0.28330001  0.11455730  1
  H  H109  1  0.12906233  0.61061959  0.11438692  1
  H  H110  1  0.11538106  0.94037012  0.08842845  1
  H  H111  1  0.61380896  0.27751276  0.09576885  1
  H  H112  1  0.63213459  0.61543773  0.11648617  1
  H  H113  1  0.62592045  0.94867199  0.12784409  1
  H  H114  1  0.38288059  0.05612625  0.59756540  1
  H  H115  1  0.36861079  0.38787141  0.61539367  1
  H  H116  1  0.37735718  0.72230380  0.61097595  1
  H  H117  1  0.88006735  0.05439933  0.61011248  1
  H  H118  1  0.86763157  0.38453624  0.61662459  1
  H  H119  1  0.88262137  0.72532630  0.59863679  1
  H  H120  1  0.11769983  0.11682090  0.38125048  1
  H  H121  1  0.13826029  0.44141973  0.40591164  1
  H  H122  1  0.12218194  0.78088566  0.39110049  1
  H  H123  1  0.61963689  0.11639543  0.38023151  1
  H  H124  1  0.63320212  0.44614933  0.38675721  1
  H  H125  1  0.62128660  0.78267314  0.37543192  1
  H  H126  1  0.37903036  0.22024210  0.88300377  1
  H  H127  1  0.36187477  0.55748320  0.90996812  1
  H  H128  1  0.37550486  0.88610899  0.88794493  1
  H  H129  1  0.87935674  0.21937879  0.88250558  1
  H  H130  1  0.87015162  0.55217890  0.89152799  1
  H  H131  1  0.87651864  0.88703082  0.88946707  1
  H  H132  1  0.37061315  0.11347600  0.10557394  1
  H  H133  1  0.37458106  0.44441301  0.10493759  1
  H  H134  1  0.36808716  0.77742871  0.10643858  1
  H  H135  1  0.87245237  0.11243433  0.11020038  1
  H  H136  1  0.87348544  0.44742161  0.10472281  1
  H  H137  1  0.86994879  0.77671922  0.10305203  1
  H  H138  1  0.12311778  0.22151411  0.60823003  1
  H  H139  1  0.12626275  0.55142731  0.61609659  1
  H  H140  1  0.12337527  0.88738630  0.60940864  1
  H  H141  1  0.62567621  0.22094981  0.60674403  1
  H  H142  1  0.62869423  0.55456420  0.60214753  1
  H  H143  1  0.62318142  0.88388293  0.62390287  1
  H  H144  1  0.34706972  0.25162841  0.99456815  1
  H  H145  1  0.95277772  0.74951897  0.49761615  1
  H  H146  1  0.45647235  0.57893168  -0.00466292  1
  H  H147  1  0.93800568  0.92030774  0.50494799  1
  H  H148  1  0.93398544  0.08399455  0.50232909  1
  H  H149  1  0.66263685  0.74652578  0.00391072  1
  H  H150  1  0.58506095  0.25243487  0.49169120  1
  H  H151  1  0.68193202  0.91731869  1.00244854  1
  H  H152  1  0.45929175  0.91284389  -0.00732794  1
  H  H153  1  0.30972711  0.75056712  -0.00238764  1
  H  H154  1  0.08681385  0.58277169  0.49242558  1
  H  H155  1  0.18032973  0.25318936  1.00002687  1
  H  H156  1  0.30247360  0.08450627  0.50165170  1
  H  H157  1  0.28307719  0.57994703  1.00919193  1
  H  H158  1  0.90243633  0.41743281  0.99063482  1
  H  H159  1  0.66835193  0.41843890  0.00076743  1
  H  H160  1  0.31463727  0.58480568  0.49718994  1
  H  H161  1  0.64532041  0.75099013  0.48803812  1
  H  H162  1  0.57575647  0.91728584  0.49875245  1
  H  H163  1  0.32132977  0.93167309  0.98401334  1
  H  H164  1  0.03271095  0.92841572  -0.00967464  1
  H  H165  1  0.79937808  0.75377809  0.50299647  1
  H  H166  1  0.69619724  0.25277139  1.00215779  1
  H  H167  1  0.55102144  0.58352195  0.50406560  1
  H  H168  1  0.45641010  0.08246053  0.49391582  1
  H  H169  1  0.54080130  0.24963767  -0.00902565  1
  H  H170  1  0.14872066  0.75065885  0.01038553  1
  H  H171  1  0.54889583  0.42599945  0.49900235  1
  H  H172  1  0.88564724  0.91786704  0.01710574  1
  H  H173  1  0.15093944  0.08910713  0.00870518  1
  H  H174  1  0.21511140  0.41207729  0.50948741  1
  H  H175  1  0.44962639  0.08610302  1.00315483  1
  H  H176  1  0.10656980  0.75292792  0.51414776  1
  H  H177  1  0.46549894  0.74833144  1.00709430  1
  H  H178  1  0.92814776  0.57730543  0.50133576  1
  H  H179  1  0.43005346  0.75125493  0.50258504  1
  H  H180  1  0.31260457  0.08911328  -0.00388898  1
  H  H181  1  0.90603048  0.25151668  0.49284606  1
  H  H182  1  0.14754837  0.08311335  0.49185893  1
  H  H183  1  0.64570388  0.08641708  0.49510799  1
  H  H184  1  0.69745902  0.58114002  0.49625796  1
  H  H185  1  0.67181690  0.08336747  0.00214663  1
  H  H186  1  0.18255600  0.89422545  0.99617890  1
  H  H187  1  0.32971518  0.25102485  0.49993419  1
  H  H188  1  0.39681471  0.41377997  0.50446064  1
  H  H189  1  0.79940323  0.92280772  0.49736152  1
  H  H190  1  0.09841500  0.58127210  0.00523103  1
  H  H191  1  0.06168788  0.41358078  0.49578089  1
  Pb  Pb192  1  0.25685998  0.05020390  0.74555721  1
  Pb  Pb193  1  0.25005310  0.37946449  0.75532692  1
  Pb  Pb194  1  0.25299789  0.71191082  0.75784404  1
  Pb  Pb195  1  0.75398147  0.04551657  0.75290350  1
  Pb  Pb196  1  0.74979994  0.37904500  0.75128637  1
  Pb  Pb197  1  0.75327441  0.71338797  0.74594409  1
  Pb  Pb198  1  0.24642266  0.28819355  0.25658597  1
  Pb  Pb199  1  0.25277698  0.61570567  0.24330965  1
  Pb  Pb200  1  0.24444131  0.95201535  0.23588645  1
  Pb  Pb201  1  0.75131110  0.28328228  0.24062788  1
  Pb  Pb202  1  0.74913208  0.62167452  0.25419952  1
  Pb  Pb203  1  0.74877078  0.95374604  0.25429968  1
  Pb  Pb204  1  -0.00102242  0.21361733  0.74540431  1
  Pb  Pb205  1  0.00020826  0.54499619  0.74742015  1
  Pb  Pb206  1  0.00460163  0.88101825  0.75016794  1
  Pb  Pb207  1  0.50654997  0.21558611  0.74815592  1
  Pb  Pb208  1  0.50032758  0.54628822  0.75293035  1
  Pb  Pb209  1  0.50105781  0.87930012  0.75271763  1
  Pb  Pb210  1  -0.00295287  0.12009268  0.25549727  1
  Pb  Pb211  1  -0.00308925  0.45328965  0.25243430  1
  Pb  Pb212  1  -0.00481872  0.78411992  0.25768865  1
  Pb  Pb213  1  0.49423040  0.11840474  0.24790378  1
  Pb  Pb214  1  0.50633000  0.45106980  0.25216271  1
  Pb  Pb215  1  0.49725102  0.78712763  0.24492563  1
  C  C216  1  0.00377815  0.04492830  0.63569094  1
  C  C217  1  -0.00543292  0.37887935  0.63323574  1
  C  C218  1  0.00125228  0.71149059  0.63320722  1
  C  C219  1  0.50082422  0.04588590  0.63478322  1
  C  C220  1  0.49565076  0.38022640  0.62844472  1
  C  C221  1  0.50107261  0.71300239  0.63583591  1
  C  C222  1  -0.00611824  0.28825643  0.13292958  1
  C  C223  1  0.00314656  0.62041855  0.12768598  1
  C  C224  1  0.00074274  0.95459460  0.12886660  1
  C  C225  1  0.49724614  0.28887910  0.13272847  1
  C  C226  1  0.50420352  0.61941897  0.13002102  1
  C  C227  1  0.49763568  0.95282942  0.13353034  1
  C  C228  1  0.00074898  0.04698350  0.86564817  1
  C  C229  1  0.00277084  0.37934379  0.87304967  1
  C  C230  1  0.00159876  0.71159221  0.86622868  1
  C  C231  1  0.50020856  0.04626443  0.86447945  1
  C  C232  1  0.50001288  0.38026189  0.87025616  1
  C  C233  1  0.50261849  0.71101105  0.86929583  1
  C  C234  1  -0.00044637  0.28751879  0.37198841  1
  C  C235  1  0.00015652  0.61935448  0.36834410  1
  C  C236  1  0.00429680  0.95391919  0.36698160  1
  C  C237  1  0.50319128  0.28719681  0.36628919  1
  C  C238  1  0.50085307  0.62069386  0.36462417  1
  C  C239  1  0.50231424  0.95380932  0.36595829  1
  C  C240  1  0.24804496  0.21347768  0.63156078  1
  C  C241  1  0.25283293  0.54595305  0.63283216  1
  C  C242  1  0.24820165  0.87879287  0.63116744  1
  C  C243  1  0.74991823  0.21234821  0.63032344  1
  C  C244  1  0.74841306  0.54455084  0.63567514  1
  C  C245  1  0.75096393  0.87914206  0.63517359  1
  C  C246  1  0.24884631  0.12125850  0.13488233  1
  C  C247  1  0.25109882  0.45252111  0.12734360  1
  C  C248  1  0.24634267  0.78617796  0.13568638  1
  C  C249  1  0.74774386  0.12064896  0.13381452  1
  C  C250  1  0.74877259  0.45521064  0.12746389  1
  C  C251  1  0.74674521  0.78670512  0.12813372  1
  C  C252  1  0.25326566  0.21310428  0.86659286  1
  C  C253  1  0.24666724  0.54310251  0.87052840  1
  C  C254  1  0.25122403  0.87977518  0.86560864  1
  C  C255  1  0.75218596  0.21269104  0.86906318  1
  C  C256  1  0.74526031  0.54681577  0.87244638  1
  C  C257  1  0.75033885  0.88001234  0.87211094  1
  C  C258  1  0.24523039  0.12210890  0.36805569  1
  C  C259  1  0.25356712  0.45347522  0.36790059  1
  C  C260  1  0.24596553  0.79019765  0.36550170  1
  C  C261  1  0.74587542  0.12095564  0.37031242  1
  C  C262  1  0.75926219  0.45260362  0.36690389  1
  C  C263  1  0.74938239  0.78872397  0.36685318  1
  C  C264  1  0.02874578  0.25697348  0.46749268  1
  C  C265  1  0.52091908  0.59401966  0.46056964  1
  C  C266  1  0.72774108  0.57111212  0.53980576  1
  C  C267  1  0.28942915  0.24029388  0.53787704  1
  C  C268  1  0.19374797  0.76059149  0.04543485  1
  C  C269  1  0.46742230  0.73974420  0.54222166  1
  C  C270  1  0.55495857  0.40736856  0.95809454  1
  C  C271  1  0.97090639  0.07276890  0.54238206  1
  C  C272  1  0.27563809  0.76023664  0.03941722  1
  C  C273  1  0.20780905  0.24009412  0.53821761  1
  C  C274  1  0.05464493  0.92866517  0.45765265  1
  C  C275  1  0.78786687  0.57290888  0.96406821  1
  C  C276  1  0.27977247  0.57333547  0.53811122  1
  C  C277  1  0.79882762  0.90546092  0.96427491  1
  C  C278  1  0.27799809  0.09737572  0.03793309  1
  C  C279  1  0.77258802  0.09467345  0.46645463  1
  C  C280  1  0.97353309  0.92911478  0.46366031  1
  C  C281  1  0.69165863  0.09587571  0.46042630  1
  C  C282  1  0.53729589  0.92753171  0.45933000  1
  C  C283  1  0.80605259  0.24267732  0.95781153  1
  C  C284  1  0.28344260  0.91048468  0.53954187  1
  C  C285  1  0.71307708  0.24108664  0.53734826  1
  C  C286  1  0.48614194  0.92507775  0.03696121  1
  C  C287  1  0.21893752  0.24143483  0.96122158  1
  C  C288  1  0.76992510  0.90908212  0.54014297  1
  C  C289  1  0.32234435  0.42797668  0.45179457  1
  C  C290  1  0.71100095  0.09394772  0.04099810  1
  C  C291  1  0.97389876  0.58790111  0.03310569  1
  C  C292  1  0.28780612  0.42563310  0.03463411  1
  C  C293  1  0.30087472  0.24077158  0.95817553  1
  C  C294  1  0.69128316  0.76051104  0.45350012  1
  C  C295  1  0.43209232  0.26571230  0.04721948  1
  C  C296  1  0.17986590  0.56927072  0.95483455  1
  C  C297  1  0.24261490  0.42475388  0.46565145  1
  C  C298  1  0.51177804  0.26168893  0.03440771  1
  C  C299  1  0.47967651  0.07409007  0.96005477  1
  C  C300  1  0.02614802  0.40417737  0.53693278  1
  C  C301  1  0.19626379  0.09810304  0.04388177  1
  C  C302  1  0.19182402  0.09292722  0.45616511  1
  C  C303  1  0.94494300  0.40411885  0.54247733  1
  C  C304  1  0.20728138  0.42665916  0.03612462  1
  C  C305  1  0.78933590  0.42669738  0.03387353  1
  C  C306  1  0.48465472  0.07284190  0.53846507  1
  C  C307  1  0.78297149  0.75402496  0.03507375  1
  C  C308  1  0.96523989  0.58993224  0.46197729  1
  C  C309  1  0.06019638  0.74226836  0.54792084  1
  C  C310  1  0.70705231  0.57386566  0.96490345  1
  C  C311  1  0.02709187  0.41291084  0.96819644  1
  N  N312  1  0.54668308  0.73833266  0.54267070  1
  N  N313  1  0.04575908  0.74110692  0.95752351  1
  N  N314  1  0.20596071  0.91022932  0.53887670  1
  N  N315  1  0.56262487  0.07293310  0.54871920  1
  N  N316  1  0.45794104  0.92726361  0.45910086  1
  N  N317  1  0.71389879  0.42612144  0.45878181  1
  N  N318  1  0.56147537  0.59324219  0.04210752  1
  N  N319  1  0.71003610  0.42658008  0.03586556  1
  N  N320  1  0.95018774  0.25932601  0.46065596  1
  N  N321  1  0.05008640  0.07206373  0.54355434  1
  N  N322  1  0.97130604  0.07274510  0.96140580  1
  N  N323  1  0.69130310  0.90589437  0.54735180  1
  N  N324  1  0.96980061  0.74152591  0.96027841  1
  N  N325  1  0.70399517  0.75567889  0.03848309  1
  N  N326  1  0.46643223  0.26056217  0.46065440  1
  N  N327  1  0.79013263  0.42477980  0.46186543  1
  N  N328  1  0.27105756  0.08997097  0.46099879  1
  N  N329  1  0.21184903  0.90791886  0.95690450  1
  N  N330  1  0.55841257  0.07217201  0.95311276  1
  N  N331  1  0.77027447  0.75800106  0.46112762  1
  N  N332  1  0.79108595  0.24100610  0.53682221  1
  N  N333  1  0.44211646  0.59507698  0.45318140  1
  N  N334  1  0.29252012  0.89933062  0.95895443  1
  N  N335  1  0.80654929  0.57019538  0.54686726  1
  N  N336  1  0.48962510  0.74168781  0.96329898  1
  N  N337  1  0.04744181  0.07133331  0.95762596  1
  N  N338  1  0.47826758  0.40961421  0.96747803  1
  N  N339  1  0.01229401  0.92091775  0.03484049  1
  N  N340  1  0.04479640  0.59209338  0.45877476  1
  N  N341  1  0.05235636  0.58979747  0.03946228  1
  N  N342  1  0.52093431  0.40062958  0.53234318  1
  N  N343  1  0.94890128  0.40933187  0.95951985  1
  N  N344  1  0.93537409  0.93276078  0.04520938  1
  N  N345  1  0.44335658  0.40978421  0.54182145  1
  N  N346  1  0.25751636  0.57302127  0.96596709  1
  N  N347  1  0.04136892  0.26163967  0.04182788  1
  N  N348  1  0.71954213  0.90696499  0.96619527  1
  N  N349  1  0.20047174  0.57169464  0.54179470  1
  N  N350  1  0.56674337  0.73702086  0.95436293  1
  N  N351  1  0.96512508  0.25939495  0.03798706  1
  N  N352  1  0.56404605  0.92787695  0.04793910  1
  N  N353  1  0.79028173  0.09364039  0.04032308  1
  N  N354  1  0.72735031  0.24371771  0.96227010  1
  N  N355  1  0.20870207  0.76099380  0.45858807  1
  N  N356  1  0.28509388  0.76015884  0.45788758  1
  N  N357  1  0.48398055  0.59002029  0.03669107  1
  N  N358  1  0.54471188  0.25991404  0.45620051  1
  N  N359  1  0.98123564  0.74445674  0.53968263  1
  N  N360  1  0.06902226  0.05472838  0.60212212  1
  N  N361  1  0.05614319  0.38842798  0.59482937  1
  N  N362  1  0.07267648  0.72304604  0.60628034  1
  N  N363  1  0.57130367  0.05611250  0.60865189  1
  N  N364  1  0.55429414  0.39210167  0.58882195  1
  N  N365  1  0.56614170  0.72166191  0.60166461  1
  N  N366  1  0.42361117  0.28185760  0.10659874  1
  N  N367  1  0.44724553  0.60727522  0.08916775  1
  N  N368  1  0.44376069  0.94027154  0.08906250  1
  N  N369  1  0.93427568  0.27590401  0.09427290  1
  N  N370  1  0.94307451  0.60673926  0.08752788  1
  N  N371  1  0.92856987  0.94442628  0.10553837  1
  N  N372  1  0.44239998  0.05826233  0.90604053  1
  N  N373  1  0.44373659  0.39214359  0.91158731  1
  N  N374  1  0.44919616  0.72292795  0.91287796  1
  N  N375  1  0.94087379  0.05804080  0.90455517  1
  N  N376  1  0.93341253  0.38832527  0.90105115  1
  N  N377  1  0.94081999  0.72277778  0.90426146  1
  N  N378  1  0.05971574  0.27428122  0.41255269  1
  N  N379  1  0.06610185  0.61065386  0.40124143  1
  N  N380  1  0.07303080  0.94354828  0.39947058  1
  N  N381  1  0.56838836  0.27710475  0.39963501  1
  N  N382  1  0.55845141  0.60933288  0.40653958  1
  N  N383  1  0.56610042  0.94354907  0.40236163  1
  N  N384  1  0.31329966  0.22359421  0.59713837  1
  N  N385  1  0.31320619  0.55768967  0.59348122  1
  N  N386  1  0.31211750  0.89173300  0.59504229  1
  N  N387  1  0.81380776  0.22270888  0.59585526  1
  N  N388  1  0.81738741  0.55356270  0.60659385  1
  N  N389  1  0.80804707  0.89235382  0.59349639  1
  N  N390  1  0.17978396  0.11265919  0.10426411  1
  N  N391  1  0.18448847  0.44292032  0.09276782  1
  N  N392  1  0.17719078  0.77654747  0.10543934  1
  N  N393  1  0.68327218  0.11036670  0.09814102  1
  N  N394  1  0.68464593  0.44471575  0.09331439  1
  N  N395  1  0.68096960  0.77658124  0.09562028  1
  N  N396  1  0.19070024  0.22428676  0.90383316  1
  N  N397  1  0.17297352  0.55246995  0.89506101  1
  N  N398  1  0.18777096  0.88471812  0.90225343  1
  N  N399  1  0.69292770  0.22366493  0.90827237  1
  N  N400  1  0.68081607  0.55813018  0.90899814  1
  N  N401  1  0.68927987  0.89091056  0.90924699  1
  N  N402  1  0.30402527  0.11084035  0.40765809  1
  N  N403  1  0.32809573  0.44527904  0.39210511  1
  N  N404  1  0.30951361  0.77819980  0.40037455  1
  N  N405  1  0.80513298  0.10970765  0.41205330  1
  N  N406  1  0.81981171  0.44103865  0.40510408  1
  N  N407  1  0.80600293  0.77862159  0.40857873  1
  N  N408  1  0.44143947  0.27643949  0.40392885  1
  N  N409  1  0.43167610  0.61146675  0.39333883  1
  N  N410  1  0.43795055  0.94341278  0.40052684  1
  N  N411  1  0.93161203  0.27879225  0.40208776  1
  N  N412  1  0.93726599  0.60693300  0.40577350  1
  N  N413  1  0.94305214  0.94489411  0.40576736  1
  N  N414  1  0.06725057  0.05554976  0.89822229  1
  N  N415  1  0.06079006  0.39442932  0.91460426  1
  N  N416  1  0.06711113  0.72314719  0.89892350  1
  N  N417  1  0.56929491  0.05512260  0.89340581  1
  N  N418  1  0.57063372  0.38996988  0.89881809  1
  N  N419  1  0.57404881  0.72012092  0.89515620  1
  N  N420  1  0.06049884  0.27970785  0.10055651  1
  N  N421  1  0.07102590  0.61086797  0.09771014  1
  N  N422  1  0.05319634  0.94428512  0.08386379  1
  N  N423  1  0.55169232  0.27657935  0.08928727  1
  N  N424  1  0.57364016  0.61064107  0.10065666  1
  N  N425  1  0.56913883  0.94501227  0.10812824  1
  N  N426  1  0.44521560  0.05670655  0.59115470  1
  N  N427  1  0.42718084  0.38886831  0.59843410  1
  N  N428  1  0.43807501  0.72436524  0.59892216  1
  N  N429  1  0.94108068  0.05660349  0.59861748  1
  N  N430  1  0.92618696  0.38887827  0.60053547  1
  N  N431  1  0.94494242  0.72223892  0.59136458  1
  N  N432  1  0.17556168  0.11141791  0.39802010  1
  N  N433  1  0.20042983  0.44097599  0.41222020  1
  N  N434  1  0.18297366  0.77948171  0.40132949  1
  N  N435  1  0.67623893  0.11215073  0.39953811  1
  N  N436  1  0.69349108  0.44332751  0.39988551  1
  N  N437  1  0.67817149  0.77814604  0.39462954  1
  N  N438  1  0.32044313  0.22326702  0.89903627  1
  N  N439  1  0.29929670  0.55422047  0.91472694  1
  N  N440  1  0.31530241  0.89321210  0.89900303  1
  N  N441  1  0.82172292  0.22413071  0.89999980  1
  N  N442  1  0.81122682  0.55657700  0.90759802  1
  N  N443  1  0.81796744  0.88942895  0.90578894  1
  N  N444  1  0.30939280  0.11151254  0.09514894  1
  N  N445  1  0.31499475  0.44118198  0.09029860  1
  N  N446  1  0.30693455  0.77596582  0.09602287  1
  N  N447  1  0.81143634  0.11037756  0.09840782  1
  N  N448  1  0.81333576  0.44381175  0.09101380  1
  N  N449  1  0.80968046  0.77315296  0.09042499  1
  N  N450  1  0.18322253  0.22407682  0.59485462  1
  N  N451  1  0.18572661  0.55478244  0.60139498  1
  N  N452  1  0.18379870  0.89021524  0.59735376  1
  N  N453  1  0.68600385  0.22372732  0.59388776  1
  N  N454  1  0.69057567  0.55596275  0.59400388  1
  N  N455  1  0.68137586  0.88760735  0.60675175  1
  Cl  Cl456  1  0.26066193  0.05867044  0.60378683  1
  Cl  Cl457  1  0.24407454  0.38727644  0.61962033  1
  Cl  Cl458  1  0.25475726  0.71937702  0.62708014  1
  Cl  Cl459  1  0.75743205  0.05266509  0.62121650  1
  Cl  Cl460  1  0.73666238  0.38177609  0.62085499  1
  Cl  Cl461  1  0.75923314  0.72803776  0.60451667  1
  Cl  Cl462  1  0.24206006  0.28340507  0.12372328  1
  Cl  Cl463  1  0.26283990  0.60339131  0.10259194  1
  Cl  Cl464  1  0.24478893  0.93882596  0.09603963  1
  Cl  Cl465  1  0.74129341  0.27779414  0.10240812  1
  Cl  Cl466  1  0.75864024  0.61744386  0.12190430  1
  Cl  Cl467  1  0.74956822  0.94221605  0.11906201  1
  Cl  Cl468  1  0.25585597  0.05187195  0.88121948  1
  Cl  Cl469  1  0.25183938  0.39199528  0.88765005  1
  Cl  Cl470  1  0.26115480  0.72289773  0.89401988  1
  Cl  Cl471  1  0.75531434  0.05149066  0.88602868  1
  Cl  Cl472  1  0.75149971  0.38678651  0.88774553  1
  Cl  Cl473  1  0.75682404  0.71975417  0.88051040  1
  Cl  Cl474  1  0.25156488  0.27714488  0.39006047  1
  Cl  Cl475  1  0.24814413  0.61153862  0.37580692  1
  Cl  Cl476  1  0.25489120  0.95166354  0.36784115  1
  Cl  Cl477  1  0.75008089  0.27740389  0.37362893  1
  Cl  Cl478  1  0.74607193  0.61224714  0.39001139  1
  Cl  Cl479  1  0.75536767  0.94563447  0.38786852  1
  Cl  Cl480  1  -0.00253690  0.22451193  0.60932239  1
  Cl  Cl481  1  0.00246762  0.55384194  0.61211717  1
  Cl  Cl482  1  -0.00527438  0.88696438  0.61700711  1
  Cl  Cl483  1  0.50288847  0.22224450  0.61562791  1
  Cl  Cl484  1  0.50406326  0.55243051  0.61669912  1
  Cl  Cl485  1  0.49614946  0.88589387  0.62174748  1
  Cl  Cl486  1  -0.00417532  0.11227432  0.12554437  1
  Cl  Cl487  1  -0.00445129  0.44923488  0.11819062  1
  Cl  Cl488  1  -0.00818665  0.78456573  0.12729595  1
  Cl  Cl489  1  0.49458588  0.11295660  0.11371489  1
  Cl  Cl490  1  0.50163256  0.44811759  0.12166104  1
  Cl  Cl491  1  0.49243003  0.77319993  0.10428171  1
  Cl  Cl492  1  0.00529025  0.21943879  0.87321911  1
  Cl  Cl493  1  -0.00627068  0.54905278  0.87970426  1
  Cl  Cl494  1  0.00509082  0.89706695  0.89102351  1
  Cl  Cl495  1  0.50913373  0.22308830  0.88353995  1
  Cl  Cl496  1  0.48322826  0.56038186  0.89392484  1
  Cl  Cl497  1  0.49986458  0.88630128  0.89023806  1
  Cl  Cl498  1  -0.01229961  0.11409003  0.39077972  1
  Cl  Cl499  1  0.00982087  0.44403672  0.38791177  1
  Cl  Cl500  1  -0.00838343  0.77380701  0.39903551  1
  Cl  Cl501  1  0.48636773  0.11074499  0.38485133  1
  Cl  Cl502  1  0.51213359  0.44481635  0.39034025  1
  Cl  Cl503  1  0.49337461  0.77938391  0.37735950  1
  Cl  Cl504  1  0.35889856  0.14596820  0.75116655  1
  Cl  Cl505  1  0.36010106  0.48169436  0.74826279  1
  Cl  Cl506  1  0.35960056  0.81618520  0.75618723  1
  Cl  Cl507  1  0.86089939  0.14833033  0.75167508  1
  Cl  Cl508  1  0.86128863  0.48028119  0.74789398  1
  Cl  Cl509  1  0.85951316  0.81522141  0.75473552  1
  Cl  Cl510  1  0.13727557  0.18534894  0.25225776  1
  Cl  Cl511  1  0.14147774  0.51937226  0.24349909  1
  Cl  Cl512  1  0.14012515  0.85651140  0.24810188  1
  Cl  Cl513  1  0.63666371  0.18679305  0.25579552  1
  Cl  Cl514  1  0.63910814  0.52015576  0.25071115  1
  Cl  Cl515  1  0.63539425  0.85373431  0.24781791  1
  Cl  Cl516  1  0.14035804  0.14392264  0.74394595  1
  Cl  Cl517  1  0.13823121  0.48043022  0.75117311  1
  Cl  Cl518  1  0.13846291  0.81127366  0.75384103  1
  Cl  Cl519  1  0.63944234  0.14447558  0.74978160  1
  Cl  Cl520  1  0.63986077  0.48147949  0.75676962  1
  Cl  Cl521  1  0.63763354  0.81136365  0.74839234  1
  Cl  Cl522  1  0.35801932  0.18714429  0.24956450  1
  Cl  Cl523  1  0.36050781  0.52195205  0.25477098  1
  Cl  Cl524  1  0.36120681  0.85440939  0.24369780  1
  Cl  Cl525  1  0.85720090  0.18691914  0.24934976  1
  Cl  Cl526  1  0.85957886  0.52000103  0.24914710  1
  Cl  Cl527  1  0.85764584  0.85107318  0.25116421  1
  Cl  Cl528  1  0.11169630  0.31325265  0.75151521  1
  Cl  Cl529  1  0.11369698  0.64542321  0.75058414  1
  Cl  Cl530  1  0.11296090  0.97613001  0.75140523  1
  Cl  Cl531  1  0.60893402  0.31431995  0.75213351  1
  Cl  Cl532  1  0.61473325  0.64619434  0.75292308  1
  Cl  Cl533  1  0.61605909  0.97798190  0.74923751  1
  Cl  Cl534  1  0.39273021  0.02052433  0.24786347  1
  Cl  Cl535  1  0.38685735  0.35452730  0.25304557  1
  Cl  Cl536  1  0.38780491  0.68575116  0.24863089  1
  Cl  Cl537  1  0.88720663  0.01827309  0.24371017  1
  Cl  Cl538  1  0.88677606  0.35325994  0.25258026  1
  Cl  Cl539  1  0.89337075  0.68553408  0.25539251  1
  Cl  Cl540  1  0.38882173  0.31310971  0.74715059  1
  Cl  Cl541  1  0.39394624  0.64960087  0.75073820  1
  Cl  Cl542  1  0.39213774  0.98203079  0.75007781  1
  Cl  Cl543  1  0.88858088  0.31464061  0.75158364  1
  Cl  Cl544  1  0.89062160  0.64675599  0.74450800  1
  Cl  Cl545  1  0.89137527  0.97978009  0.75222386  1
  Cl  Cl546  1  0.10902047  0.01959234  0.24919404  1
  Cl  Cl547  1  0.10696163  0.35168115  0.25172640  1
  Cl  Cl548  1  0.11102325  0.68732175  0.24642439  1
  Cl  Cl549  1  0.61283213  0.02179502  0.24527979  1
  Cl  Cl550  1  0.60636789  0.35350140  0.25055546  1
  Cl  Cl551  1  0.60952664  0.68678488  0.24573967  1
