# generated using pymatgen
data_H8PbC4(N3Cl2)2
_symmetry_space_group_name_H-M   'P 1'
_cell_length_a   16.63101102
_cell_length_b   22.51805424
_cell_length_c   21.59497798
_cell_angle_alpha   90.00075042
_cell_angle_beta   89.99562662
_cell_angle_gamma   89.98873873
_symmetry_Int_Tables_number   1
_chemical_formula_structural   H8PbC4(N3Cl2)2
_chemical_formula_sum   'H192 Pb24 C96 N144 Cl96'
_cell_volume   8087.27605815
_cell_formula_units_Z   24
loop_
 _symmetry_equiv_pos_site_id
 _symmetry_equiv_pos_as_xyz
  1  'x, y, z'
loop_
 _atom_site_type_symbol
 _atom_site_label
 _atom_site_symmetry_multiplicity
 _atom_site_fract_x
 _atom_site_fract_y
 _atom_site_fract_z
 _atom_site_occupancy
  H  H0  1  -0.02477763  0.02824134  0.67425044  1
  H  H1  1  0.00002551  0.36836250  0.68238916  1
  H  H2  1  0.00185885  0.69504802  0.68270185  1
  H  H3  1  0.51752136  0.03492431  0.67700895  1
  H  H4  1  0.50078683  0.36295141  0.67324053  1
  H  H5  1  0.49958450  0.69463295  0.67326387  1
  H  H6  1  -0.00149197  0.30382193  0.17942988  1
  H  H7  1  -0.00415953  0.63930263  0.17779315  1
  H  H8  1  -0.00119826  0.97741167  0.17818426  1
  H  H9  1  0.49912173  0.29931119  0.17400831  1
  H  H10  1  0.50741673  0.63710734  0.17454045  1
  H  H11  1  0.49901280  0.97030476  0.17730341  1
  H  H12  1  -0.00087091  0.03179713  0.82181273  1
  H  H13  1  -0.00670872  0.35536422  0.82177708  1
  H  H14  1  0.00566252  0.69883530  0.82104554  1
  H  H15  1  0.49716665  0.02805885  0.82303788  1
  H  H16  1  0.49888235  0.36111436  0.81996352  1
  H  H17  1  0.50429561  0.69535530  0.82547470  1
  H  H18  1  0.00745613  0.30559435  0.31703414  1
  H  H19  1  0.00433609  0.63935319  0.31981464  1
  H  H20  1  0.00084454  0.97024638  0.32096340  1
  H  H21  1  0.48733024  0.30324943  0.32501988  1
  H  H22  1  0.50055642  0.63910273  0.32232819  1
  H  H23  1  0.49230775  0.96634484  0.31781929  1
  H  H24  1  0.23651402  0.19430616  0.67565687  1
  H  H25  1  0.24934839  0.52792219  0.68294070  1
  H  H26  1  0.25508564  0.86468481  0.68026334  1
  H  H27  1  0.77097434  0.19784413  0.67938389  1
  H  H28  1  0.73409769  0.53132124  0.67652113  1
  H  H29  1  0.74570303  0.86023321  0.68076010  1
  H  H30  1  0.25496754  0.13997520  0.17972799  1
  H  H31  1  0.25986736  0.47229269  0.17869275  1
  H  H32  1  0.25564232  0.80520462  0.17942670  1
  H  H33  1  0.74202012  0.14013112  0.17453308  1
  H  H34  1  0.75902949  0.46767916  0.17784766  1
  H  H35  1  0.74484855  0.80118490  0.18331577  1
  H  H36  1  0.25153571  0.19375442  0.82403966  1
  H  H37  1  0.24008218  0.53022847  0.82158848  1
  H  H38  1  0.25416081  0.86138988  0.81969467  1
  H  H39  1  0.74511684  0.19196550  0.82562166  1
  H  H40  1  0.76275960  0.53206865  0.82229537  1
  H  H41  1  0.75704668  0.86435412  0.82489337  1
  H  H42  1  0.24631207  0.13535601  0.32876980  1
  H  H43  1  0.23732859  0.47067316  0.32033412  1
  H  H44  1  0.24058871  0.80089729  0.31889942  1
  H  H45  1  0.74999479  0.13308396  0.31687374  1
  H  H46  1  0.76075787  0.47129647  0.31999992  1
  H  H47  1  0.74890453  0.80554784  0.32043209  1
  H  H48  1  0.12250778  0.04462331  0.63157047  1
  H  H49  1  0.12410098  0.38797608  0.60962334  1
  H  H50  1  0.11632211  0.72018448  0.60547627  1
  H  H51  1  0.61038429  0.05923592  0.58588955  1
  H  H52  1  0.62407030  0.38766836  0.60507803  1
  H  H53  1  0.61882152  0.71990336  0.59962732  1
  H  H54  1  0.37627066  0.27938234  0.10409716  1
  H  H55  1  0.38127515  0.61070438  0.10844147  1
  H  H56  1  0.38608924  0.94265497  0.09823042  1
  H  H57  1  0.87562495  0.27724396  0.10668515  1
  H  H58  1  0.88581040  0.60828817  0.09728342  1
  H  H59  1  0.88856756  0.94415248  0.09833252  1
  H  H60  1  0.37406740  0.05268619  0.89516841  1
  H  H61  1  0.38521845  0.38571736  0.89876821  1
  H  H62  1  0.36286949  0.71477907  0.87775660  1
  H  H63  1  0.86780137  0.05715158  0.88528429  1
  H  H64  1  0.88414055  0.38756706  0.90330644  1
  H  H65  1  0.87054400  0.71834518  0.87752661  1
  H  H66  1  0.13056064  0.27690805  0.38554987  1
  H  H67  1  0.12245890  0.61050582  0.39368553  1
  H  H68  1  0.13215597  0.94766454  0.38538979  1
  H  H69  1  0.62193928  0.28625561  0.38208344  1
  H  H70  1  0.62486655  0.61585590  0.39206183  1
  H  H71  1  0.63537340  0.95174671  0.36772467  1
  H  H72  1  0.37624305  0.21913110  0.62447014  1
  H  H73  1  0.37746772  0.55032733  0.61348531  1
  H  H74  1  0.36379436  0.88911210  0.59821442  1
  H  H75  1  0.86880286  0.22724190  0.58925175  1
  H  H76  1  0.87363094  0.54921928  0.62658451  1
  H  H77  1  0.86495194  0.89015320  0.60685530  1
  H  H78  1  0.12992672  0.11400700  0.11065393  1
  H  H79  1  0.11967704  0.44937200  0.12804870  1
  H  H80  1  0.13933548  0.77718176  0.10341810  1
  H  H81  1  0.63351721  0.11072658  0.09308235  1
  H  H82  1  0.61915550  0.44866784  0.12419438  1
  H  H83  1  0.63765362  0.77404841  0.10024971  1
  H  H84  1  0.12523843  0.22227306  0.88979590  1
  H  H85  1  0.12166148  0.55771304  0.89784079  1
  H  H86  1  0.12192589  0.88504394  0.88237227  1
  H  H87  1  0.62597504  0.21962181  0.89959204  1
  H  H88  1  0.61955788  0.55053066  0.87064007  1
  H  H89  1  0.61475402  0.88153711  0.87627776  1
  H  H90  1  0.37583124  0.11279788  0.39363087  1
  H  H91  1  0.37622546  0.44890085  0.37670180  1
  H  H92  1  0.38148292  0.78281416  0.37287618  1
  H  H93  1  0.87154025  0.10907563  0.38899823  1
  H  H94  1  0.87128865  0.44634402  0.40156987  1
  H  H95  1  0.87916475  0.77982167  0.38497262  1
  H  H96  1  0.37576037  0.27665858  0.40475693  1
  H  H97  1  0.37590535  0.61266376  0.38842342  1
  H  H98  1  0.39083170  0.94357740  0.40422834  1
  H  H99  1  0.88130881  0.27797916  0.38609102  1
  H  H100  1  0.87380994  0.61583599  0.38483167  1
  H  H101  1  0.88370522  0.94223633  0.39533797  1
  H  H102  1  0.11577668  0.05709995  0.89933463  1
  H  H103  1  0.12975738  0.38153093  0.87480709  1
  H  H104  1  0.11730835  0.72387724  0.89950315  1
  H  H105  1  0.62259306  0.05712369  0.88919806  1
  H  H106  1  0.63329701  0.38339466  0.88099999  1
  H  H107  1  0.60732832  0.72844630  0.90923403  1
  H  H108  1  0.12445234  0.27895250  0.10927095  1
  H  H109  1  0.13227350  0.61468821  0.12239134  1
  H  H110  1  0.13512050  0.94974240  0.12446032  1
  H  H111  1  0.62506534  0.27756751  0.10747756  1
  H  H112  1  0.62985453  0.60937507  0.10330525  1
  H  H113  1  0.63309856  0.95225735  0.11600341  1
  H  H114  1  0.37038887  0.04883467  0.63520575  1
  H  H115  1  0.37569726  0.38380376  0.60586371  1
  H  H116  1  0.37019287  0.71988781  0.60853682  1
  H  H117  1  0.88374167  0.06413655  0.58432458  1
  H  H118  1  0.87433348  0.38854782  0.61354621  1
  H  H119  1  0.86795139  0.71452022  0.62285307  1
  H  H120  1  0.12792987  0.10838110  0.40245997  1
  H  H121  1  0.12960490  0.44380947  0.40304269  1
  H  H122  1  0.13647691  0.77257257  0.40324485  1
  H  H123  1  0.62382029  0.11575993  0.38682090  1
  H  H124  1  0.62383454  0.45109984  0.37984842  1
  H  H125  1  0.63091285  0.77566265  0.39370584  1
  H  H126  1  0.37413545  0.21931882  0.89660620  1
  H  H127  1  0.36996352  0.55270039  0.88653912  1
  H  H128  1  0.36928701  0.88966190  0.89606965  1
  H  H129  1  0.87467403  0.22067134  0.88858186  1
  H  H130  1  0.86060508  0.56115611  0.91220059  1
  H  H131  1  0.85836987  0.89847532  0.90952991  1
  H  H132  1  0.37926632  0.11553704  0.10761124  1
  H  H133  1  0.36428228  0.44096560  0.09481231  1
  H  H134  1  0.38730781  0.78325869  0.11586526  1
  H  H135  1  0.87960950  0.11588135  0.11974569  1
  H  H136  1  0.86260760  0.43809709  0.09222660  1
  H  H137  1  0.88373341  0.78137661  0.12682038  1
  H  H138  1  0.13137068  0.22696249  0.59260148  1
  H  H139  1  0.12837565  0.55505389  0.61150874  1
  H  H140  1  0.11695076  0.88696622  0.62446849  1
  H  H141  1  0.62744740  0.21728242  0.63099890  1
  H  H142  1  0.62938609  0.55694015  0.59209755  1
  H  H143  1  0.61670874  0.88254972  0.61485799  1
  H  H144  1  0.81167281  0.06232250  0.48253518  1
  H  H145  1  0.70918105  0.74856021  -0.00387482  1
  H  H146  1  0.34171019  0.08224066  0.50217883  1
  H  H147  1  0.20332488  0.41323115  0.50629756  1
  H  H148  1  0.85916343  0.58052042  0.51115756  1
  H  H149  1  0.14156842  0.91216712  0.51485830  1
  H  H150  1  0.89448460  0.74753011  -0.00816668  1
  H  H151  1  0.38007259  0.75171925  0.98522071  1
  H  H152  1  0.90653767  0.08429979  0.99218753  1
  H  H153  1  0.44769709  0.41239820  1.00619105  1
  H  H154  1  0.07211007  0.42674144  0.50825397  1
  H  H155  1  0.77680442  0.91729666  1.00852263  1
  H  H156  1  0.77546385  0.58511962  1.00807813  1
  H  H157  1  0.11879204  0.08096941  0.52505758  1
  H  H158  1  0.18166165  0.58620073  0.50334119  1
  H  H159  1  0.59767596  0.25602721  0.49726895  1
  H  H160  1  0.05651373  0.74746274  0.49711517  1
  H  H161  1  0.20848141  0.25333821  0.49321088  1
  H  H162  1  0.41010227  0.74935291  0.50190437  1
  H  H163  1  0.10882420  0.41270229  0.98829302  1
  H  H164  1  0.91925046  0.41587576  0.50142668  1
  H  H165  1  0.95629026  0.58057829  -0.00325441  1
  H  H166  1  0.78209459  0.24964598  0.49314324  1
  H  H167  1  0.29584946  0.92059934  0.49391460  1
  H  H168  1  0.28688025  0.41282864  -0.00385983  1
  H  H169  1  0.17889363  0.08311345  0.00195835  1
  H  H170  1  0.05447582  0.75246182  1.00676495  1
  H  H171  1  0.93029666  0.25855009  0.49353797  1
  H  H172  1  0.97487431  0.08053645  0.48984778  1
  H  H173  1  0.80056868  0.42113451  0.50768184  1
  H  H174  1  0.95486816  0.41055012  1.00412695  1
  H  H175  1  0.33050304  0.58370372  0.99688931  1
  H  H176  1  0.46719944  0.91607432  0.50813924  1
  H  H177  1  0.94269611  0.90865494  0.50152009  1
  H  H178  1  0.41855726  0.57761336  0.49855714  1
  H  H179  1  0.67798110  0.11251336  0.49418365  1
  H  H180  1  0.52736388  0.74838372  1.00888249  1
  H  H181  1  0.08280258  0.24681622  0.49561536  1
  H  H182  1  0.21187837  0.74371981  0.50533110  1
  H  H183  1  0.78304431  0.41256070  -0.00612412  1
  H  H184  1  0.57994489  0.58121823  -0.00089525  1
  H  H185  1  0.65357798  0.91557796  0.50491726  1
  H  H186  1  0.63005232  0.91982742  0.98348648  1
  H  H187  1  0.52530334  0.08492357  0.48589096  1
  H  H188  1  0.89594244  0.74342730  0.50995472  1
  H  H189  1  0.95745642  0.92107981  -0.00326331  1
  H  H190  1  0.11146907  0.91628178  0.01287579  1
  H  H191  1  0.60215653  0.40831901  0.98958800  1
  Pb  Pb192  1  0.24158581  0.05005583  0.75872946  1
  Pb  Pb193  1  0.25124876  0.37906107  0.75419872  1
  Pb  Pb194  1  0.24328915  0.71408771  0.74704633  1
  Pb  Pb195  1  0.74702925  0.04771412  0.73470107  1
  Pb  Pb196  1  0.74513044  0.38339026  0.75379531  1
  Pb  Pb197  1  0.73843453  0.71661547  0.75535535  1
  Pb  Pb198  1  0.25469586  0.28598745  0.25554055  1
  Pb  Pb199  1  0.25284456  0.61887499  0.25336486  1
  Pb  Pb200  1  0.25744862  0.95291906  0.25415643  1
  Pb  Pb201  1  0.74856759  0.28389267  0.25538473  1
  Pb  Pb202  1  0.75219560  0.62005725  0.24234144  1
  Pb  Pb203  1  0.75744803  0.95266664  0.24205664  1
  Pb  Pb204  1  -0.00602515  0.21744085  0.73877998  1
  Pb  Pb205  1  -0.00439080  0.54839094  0.76024631  1
  Pb  Pb206  1  -0.00685307  0.88116170  0.75734504  1
  Pb  Pb207  1  0.49823050  0.21255986  0.75765283  1
  Pb  Pb208  1  0.49345194  0.54757028  0.74577201  1
  Pb  Pb209  1  0.48971429  0.88418321  0.74554243  1
  Pb  Pb210  1  0.00567981  0.11939048  0.25551502  1
  Pb  Pb211  1  -0.00350296  0.45144426  0.25418671  1
  Pb  Pb212  1  0.00777903  0.78567121  0.25406246  1
  Pb  Pb213  1  0.50137109  0.11881648  0.24477937  1
  Pb  Pb214  1  0.49948880  0.45222351  0.24208525  1
  Pb  Pb215  1  0.50551841  0.78616576  0.24445693  1
  C  C216  1  -0.00591347  0.04499671  0.62920606  1
  C  C217  1  0.00002386  0.38290713  0.63431684  1
  C  C218  1  -0.00489004  0.71006142  0.63516913  1
  C  C219  1  0.49920389  0.04772863  0.63054646  1
  C  C220  1  0.50017394  0.37832817  0.62550368  1
  C  C221  1  0.49567400  0.71078878  0.62611053  1
  C  C222  1  -0.00053845  0.28724591  0.13226405  1
  C  C223  1  0.00437835  0.62216586  0.13147878  1
  C  C224  1  0.00722953  0.95900578  0.13207475  1
  C  C225  1  0.50024418  0.28516442  0.12590605  1
  C  C226  1  0.50673413  0.61981796  0.12774838  1
  C  C227  1  0.50609625  0.95547634  0.13003093  1
  C  C228  1  -0.00613781  0.04839894  0.86881530  1
  C  C229  1  0.00221958  0.37330196  0.86801010  1
  C  C230  1  -0.00274366  0.71390059  0.86837758  1
  C  C231  1  0.49768687  0.04537692  0.86965358  1
  C  C232  1  0.50657611  0.37603182  0.86747905  1
  C  C233  1  0.49123593  0.71190085  0.87175994  1
  C  C234  1  0.00574177  0.28867717  0.36419278  1
  C  C235  1  -0.00016759  0.62214839  0.36636419  1
  C  C236  1  0.00585306  0.95331822  0.36790784  1
  C  C237  1  0.49582994  0.28902689  0.37244107  1
  C  C238  1  0.49989604  0.62265668  0.36940222  1
  C  C239  1  0.50613393  0.95343707  0.36502003  1
  C  C240  1  0.24761506  0.21170984  0.62973931  1
  C  C241  1  0.25208185  0.54427212  0.63568391  1
  C  C242  1  0.24436841  0.87950960  0.63300187  1
  C  C243  1  0.75616000  0.21298333  0.63304720  1
  C  C244  1  0.74678332  0.54597355  0.62970193  1
  C  C245  1  0.74251044  0.87726886  0.63389633  1
  C  C246  1  0.25481498  0.12354274  0.13254792  1
  C  C247  1  0.24805370  0.45543874  0.13255344  1
  C  C248  1  0.26083705  0.78937381  0.13233816  1
  C  C249  1  0.75215396  0.12271837  0.12858879  1
  C  C250  1  0.74684873  0.45275208  0.13099773  1
  C  C251  1  0.75575673  0.78623596  0.13637068  1
  C  C252  1  0.25051755  0.21157392  0.87049145  1
  C  C253  1  0.24362300  0.54676165  0.86868567  1
  C  C254  1  0.24793257  0.87803842  0.86632767  1
  C  C255  1  0.74881899  0.21052400  0.87164046  1
  C  C256  1  0.74790925  0.54679511  0.86877537  1
  C  C257  1  0.74313857  0.88102092  0.87098180  1
  C  C258  1  0.25050026  0.11891002  0.37589457  1
  C  C259  1  0.24806658  0.45439398  0.36691247  1
  C  C260  1  0.25331526  0.78639176  0.36585631  1
  C  C261  1  0.74840506  0.11917701  0.36503555  1
  C  C262  1  0.75183359  0.45631769  0.36726440  1
  C  C263  1  0.75338776  0.78804181  0.36686858  1
  C  C264  1  0.95726058  0.40658158  0.54117395  1
  C  C265  1  0.72931225  0.57437192  0.53298297  1
  C  C266  1  0.06341574  0.58956894  0.04565813  1
  C  C267  1  0.02196073  0.74097666  0.96494578  1
  C  C268  1  0.50140607  0.07326388  0.53130339  1
  C  C269  1  0.23125952  0.42464117  0.46224743  1
  C  C270  1  0.21749116  0.09432319  0.04085412  1
  C  C271  1  0.72281387  0.75459462  0.45912825  1
  C  C272  1  0.69883728  0.90511259  0.54290875  1
  C  C273  1  0.47926059  0.40298468  0.96319690  1
  C  C274  1  0.71815125  0.24440239  0.96329858  1
  C  C275  1  0.55128392  0.26439394  0.46256638  1
  C  C276  1  0.53904743  0.40590043  0.53370867  1
  C  C277  1  0.03061704  0.58981358  0.45920080  1
  C  C278  1  0.57384464  0.93106966  0.44969284  1
  C  C279  1  0.21041251  0.24659254  0.95950492  1
  C  C280  1  0.21883902  0.57391163  0.54299933  1
  C  C281  1  0.23960822  0.75746414  0.46183098  1
  C  C282  1  0.54060128  0.59315259  0.46172355  1
  C  C283  1  0.06171170  0.40423301  0.95322590  1
  C  C284  1  0.30716078  0.76476732  0.04119094  1
  C  C285  1  0.31140008  0.24536621  0.54625667  1
  C  C286  1  0.18354854  0.42503712  0.04877919  1
  C  C287  1  0.53672821  0.07895123  0.95947448  1
  C  C288  1  0.46188398  0.58879010  0.03617960  1
  C  C289  1  0.47022889  0.26131468  0.46859698  1
  C  C290  1  0.80964050  0.57195476  0.54309220  1
  C  C291  1  0.28787992  0.57407646  0.95942618  1
  C  C292  1  0.04572729  0.25806229  0.45580837  1
  C  C293  1  0.54233001  0.25898164  0.03459277  1
  C  C294  1  0.77172128  0.43010893  0.46345032  1
  C  C295  1  0.55623684  0.93197832  0.03979286  1
  C  C296  1  0.94060376  0.73878251  0.95725561  1
  C  C297  1  0.02305790  0.73662321  0.53886104  1
  C  C298  1  0.06510659  0.92637921  0.04710207  1
  C  C299  1  0.73301290  0.08995634  0.03408305  1
  C  C300  1  0.49455478  0.92770671  0.46394247  1
  C  C301  1  0.73829410  0.75944053  0.04012041  1
  C  C302  1  0.27503989  0.90932709  0.96011193  1
  C  C303  1  0.21593922  0.09094124  0.47115413  1
  C  C304  1  0.42339430  0.06931525  0.54948214  1
  C  C305  1  0.26622779  0.90812024  0.53701076  1
  C  C306  1  0.46211689  0.25949955  0.03343903  1
  C  C307  1  0.45910915  0.59102493  0.46167215  1
  C  C308  1  0.94137081  0.73468984  0.54508638  1
  C  C309  1  0.45868553  0.40446428  0.53392625  1
  C  C310  1  0.53088357  0.74116066  0.53194468  1
  C  C311  1  0.97732229  0.92213989  0.46112656  1
  N  N312  1  0.99196185  0.08190207  0.53630461  1
  N  N313  1  0.55822433  0.40290623  0.95566282  1
  N  N314  1  0.77783338  0.90762922  0.53959611  1
  N  N315  1  0.81001797  0.09190318  0.04146730  1
  N  N316  1  0.70484579  0.09344196  0.45630157  1
  N  N317  1  0.80011111  0.75639021  0.45749341  1
  N  N318  1  0.81645211  0.76144438  0.04914488  1
  N  N319  1  0.94855755  0.07702693  0.95724040  1
  N  N320  1  0.03699197  0.40633327  0.54083073  1
  N  N321  1  0.98619991  0.92430322  0.03914115  1
  N  N322  1  0.22974470  0.76136585  0.03629093  1
  N  N323  1  0.96601288  0.25835920  0.45489614  1
  N  N324  1  0.79554474  0.24512882  0.96116548  1
  N  N325  1  0.47916674  0.92718584  0.03336633  1
  N  N326  1  0.98292418  0.40682252  0.96161118  1
  N  N327  1  0.75405876  0.57696877  0.96327670  1
  N  N328  1  0.67784041  0.57249745  0.95112495  1
  N  N329  1  0.06700183  0.06642469  0.54928209  1
  N  N330  1  0.95306831  0.59165352  0.45729102  1
  N  N331  1  0.96340745  0.25774696  0.03911086  1
  N  N332  1  0.75550918  0.91831091  0.96303465  1
  N  N333  1  0.45968044  0.07726693  0.96265505  1
  N  N334  1  0.02667090  0.07681244  0.96327825  1
  N  N335  1  0.19779079  0.90669732  0.95682043  1
  N  N336  1  0.54118934  0.58927617  0.03572656  1
  N  N337  1  0.69335318  0.43083938  0.45579888  1
  N  N338  1  0.30947945  0.42502321  0.45289923  1
  N  N339  1  0.23356077  0.24627144  0.53624221  1
  N  N340  1  0.78685894  0.09727987  0.45873059  1
  N  N341  1  0.18767134  0.90679857  0.54688787  1
  N  N342  1  0.42876592  0.73597151  0.95580905  1
  N  N343  1  0.50541420  0.74906948  0.96366702  1
  N  N344  1  0.31758593  0.76180542  0.45204877  1
  N  N345  1  0.67918777  0.90468528  0.95442668  1
  N  N346  1  0.98529840  0.58860040  0.03815832  1
  N  N347  1  0.29507246  0.09210655  0.46701556  1
  N  N348  1  0.28757118  0.24602134  0.96277214  1
  N  N349  1  0.68636451  0.23969952  0.55129885  1
  N  N350  1  0.45214538  0.74034854  0.53621923  1
  N  N351  1  0.75943345  0.41991126  0.03786021  1
  N  N352  1  0.05653268  0.92446491  0.45808390  1
  N  N353  1  0.29817175  0.57224247  0.54368393  1
  N  N354  1  0.03962489  0.25789758  0.04005213  1
  N  N355  1  0.26128835  0.42219778  0.03854093  1
  N  N356  1  0.29663797  0.09388383  0.03982390  1
  N  N357  1  0.76227562  0.24318454  0.53854741  1
  N  N358  1  0.20881795  0.57613878  0.96345601  1
  N  N359  1  0.68264176  0.42357208  0.04731278  1
  N  N360  1  0.06841480  0.05335805  0.60963440  1
  N  N361  1  0.06315594  0.39490771  0.59936474  1
  N  N362  1  0.05517690  0.72140778  0.59543165  1
  N  N363  1  0.54827558  0.05926099  0.58322267  1
  N  N364  1  0.56495043  0.39024216  0.58960784  1
  N  N365  1  0.55815281  0.72301098  0.58765760  1
  N  N366  1  0.43551954  0.27547575  0.08908791  1
  N  N367  1  0.44066444  0.60713911  0.09329074  1
  N  N368  1  0.44819604  0.94257226  0.09055261  1
  N  N369  1  0.93692607  0.27571113  0.09622708  1
  N  N370  1  0.94770967  0.61050384  0.09029566  1
  N  N371  1  0.95049971  0.94798372  0.09059186  1
  N  N372  1  0.43489990  0.05588081  0.90555111  1
  N  N373  1  0.44691054  0.38725742  0.90822004  1
  N  N374  1  0.41960267  0.72145945  0.89631584  1
  N  N375  1  0.92732161  0.05903115  0.90038826  1
  N  N376  1  0.94636073  0.38432355  0.91004462  1
  N  N377  1  0.92663113  0.72234513  0.89720563  1
  N  N378  1  0.07046921  0.27517124  0.39908991  1
  N  N379  1  0.06137366  0.60812942  0.40427958  1
  N  N380  1  0.07274052  0.94366112  0.39943772  1
  N  N381  1  0.56581911  0.28163977  0.40161581  1
  N  N382  1  0.56511565  0.61198349  0.40602694  1
  N  N383  1  0.58054275  0.94640130  0.38984058  1
  N  N384  1  0.32012157  0.22465922  0.60429457  1
  N  N385  1  0.31702800  0.55370362  0.60159114  1
  N  N386  1  0.30185166  0.89177545  0.59062799  1
  N  N387  1  0.80644903  0.22421004  0.58700415  1
  N  N388  1  0.81896742  0.55441344  0.60443241  1
  N  N389  1  0.80341289  0.89010314  0.59673962  1
  N  N390  1  0.19010626  0.11191762  0.09753290  1
  N  N391  1  0.17482248  0.44435304  0.10734401  1
  N  N392  1  0.20122750  0.77712683  0.09420592  1
  N  N393  1  0.69538151  0.10821781  0.08641684  1
  N  N394  1  0.67531011  0.44253688  0.10581430  1
  N  N395  1  0.69962480  0.77460497  0.09337985  1
  N  N396  1  0.18464853  0.22597976  0.90385474  1
  N  N397  1  0.18290379  0.55905195  0.90640567  1
  N  N398  1  0.18060559  0.88711418  0.89733709  1
  N  N399  1  0.68673924  0.22388428  0.90940077  1
  N  N400  1  0.67477062  0.55590939  0.89162294  1
  N  N401  1  0.67100302  0.89071358  0.89470822  1
  N  N402  1  0.31632487  0.10977840  0.40837758  1
  N  N403  1  0.31806593  0.44353949  0.39379710  1
  N  N404  1  0.32446511  0.77973499  0.39211135  1
  N  N405  1  0.81087689  0.10361651  0.39915315  1
  N  N406  1  0.80962997  0.44500208  0.40918726  1
  N  N407  1  0.81956473  0.77762204  0.39882745  1
  N  N408  1  0.43705910  0.27600017  0.41417040  1
  N  N409  1  0.43502610  0.60982163  0.40319441  1
  N  N410  1  0.45304030  0.94206348  0.40972957  1
  N  N411  1  0.94165083  0.28103986  0.39949575  1
  N  N412  1  0.93369897  0.61169597  0.39839987  1
  N  N413  1  0.94497643  0.93970864  0.40608966  1
  N  N414  1  0.05412134  0.05987390  0.90760598  1
  N  N415  1  0.07358451  0.38571240  0.89449888  1
  N  N416  1  0.05589793  0.72545589  0.90927517  1
  N  N417  1  0.56313936  0.05971115  0.90344830  1
  N  N418  1  0.57485021  0.38461607  0.89734290  1
  N  N419  1  0.54489948  0.72458271  0.91534122  1
  N  N420  1  0.06362058  0.27606207  0.09777851  1
  N  N421  1  0.07553543  0.60960128  0.10357212  1
  N  N422  1  0.07816817  0.94592755  0.10521966  1
  N  N423  1  0.56636201  0.27446763  0.09113197  1
  N  N424  1  0.56948594  0.60951963  0.09185123  1
  N  N425  1  0.57554475  0.94833248  0.09904074  1
  N  N426  1  0.42282296  0.05409818  0.60983868  1
  N  N427  1  0.43432176  0.38811043  0.59003512  1
  N  N428  1  0.42962571  0.72103739  0.59404632  1
  N  N429  1  0.94595878  0.05847244  0.58214152  1
  N  N430  1  0.93403383  0.39088385  0.59875825  1
  N  N431  1  0.92558457  0.71849636  0.60501608  1
  N  N432  1  0.18821886  0.10679209  0.41438670  1
  N  N433  1  0.19169556  0.44209090  0.40958884  1
  N  N434  1  0.19876226  0.77274163  0.40940417  1
  N  N435  1  0.68392969  0.11646680  0.40071001  1
  N  N436  1  0.68271864  0.44740257  0.39616194  1
  N  N437  1  0.69176943  0.77379992  0.40469359  1
  N  N438  1  0.31294250  0.22374825  0.90613776  1
  N  N439  1  0.31068339  0.55649057  0.90146987  1
  N  N440  1  0.30807793  0.89210325  0.90568858  1
  N  N441  1  0.81480539  0.22377684  0.90273439  1
  N  N442  1  0.79803659  0.55849981  0.91461964  1
  N  N443  1  0.79598257  0.89408008  0.91502317  1
  N  N444  1  0.31827678  0.11241115  0.09712351  1
  N  N445  1  0.30188749  0.44339975  0.08947647  1
  N  N446  1  0.32892797  0.78092948  0.09997973  1
  N  N447  1  0.82188759  0.11258635  0.10167725  1
  N  N448  1  0.79992759  0.44072484  0.08722679  1
  N  N449  1  0.82599264  0.77782918  0.10904202  1
  N  N450  1  0.19302395  0.22310001  0.58671322  1
  N  N451  1  0.18917362  0.55712559  0.59922668  1
  N  N452  1  0.17435209  0.88750544  0.60545090  1
  N  N453  1  0.68306321  0.22277744  0.61044455  1
  N  N454  1  0.69137149  0.55850600  0.58495597  1
  N  N455  1  0.67586352  0.88714241  0.60072015  1
  Cl  Cl456  1  0.24433941  0.04986022  0.62297827  1
  Cl  Cl457  1  0.24535148  0.38431170  0.61824855  1
  Cl  Cl458  1  0.24246847  0.72302958  0.61078096  1
  Cl  Cl459  1  0.75412366  0.06303358  0.59539821  1
  Cl  Cl460  1  0.75138570  0.38836233  0.62065441  1
  Cl  Cl461  1  0.73957106  0.71764744  0.62400419  1
  Cl  Cl462  1  0.24791455  0.28353385  0.12474280  1
  Cl  Cl463  1  0.25979955  0.61251527  0.12135135  1
  Cl  Cl464  1  0.26304484  0.94299929  0.12259765  1
  Cl  Cl465  1  0.75320871  0.27975186  0.12431714  1
  Cl  Cl466  1  0.76202573  0.60535730  0.09980618  1
  Cl  Cl467  1  0.76574210  0.93767623  0.10274441  1
  Cl  Cl468  1  0.24065233  0.05453710  0.89104840  1
  Cl  Cl469  1  0.26278665  0.39121476  0.89412487  1
  Cl  Cl470  1  0.23827885  0.72212699  0.87770590  1
  Cl  Cl471  1  0.74661574  0.05421634  0.86854700  1
  Cl  Cl472  1  0.76293124  0.39443243  0.89770395  1
  Cl  Cl473  1  0.72879803  0.72607448  0.89269469  1
  Cl  Cl474  1  0.25041848  0.27202104  0.39516648  1
  Cl  Cl475  1  0.24438890  0.61042526  0.38703395  1
  Cl  Cl476  1  0.26320068  0.94675951  0.39106125  1
  Cl  Cl477  1  0.76093310  0.26907402  0.39800271  1
  Cl  Cl478  1  0.74931384  0.61734116  0.37309409  1
  Cl  Cl479  1  0.76387503  0.95138272  0.37290698  1
  Cl  Cl480  1  -0.00395615  0.22981845  0.59474169  1
  Cl  Cl481  1  0.00688232  0.55100131  0.62945498  1
  Cl  Cl482  1  -0.01159638  0.89290650  0.62197872  1
  Cl  Cl483  1  0.50058910  0.21942856  0.62673471  1
  Cl  Cl484  1  0.50535639  0.55501921  0.61284375  1
  Cl  Cl485  1  0.48804724  0.88298889  0.60992334  1
  Cl  Cl486  1  0.00612102  0.11047002  0.12461066  1
  Cl  Cl487  1  -0.01837954  0.43865051  0.10664706  1
  Cl  Cl488  1  0.01636675  0.77845406  0.11962637  1
  Cl  Cl489  1  0.50830102  0.11485797  0.11407562  1
  Cl  Cl490  1  0.48644166  0.44365557  0.10575304  1
  Cl  Cl491  1  0.51527808  0.76857473  0.10443160  1
  Cl  Cl492  1  0.00012007  0.21993771  0.86997190  1
  Cl  Cl493  1  -0.01650881  0.55915362  0.90105321  1
  Cl  Cl494  1  -0.01962417  0.90003625  0.89697883  1
  Cl  Cl495  1  0.49979717  0.21888146  0.89118935  1
  Cl  Cl496  1  0.49303798  0.55220067  0.88102362  1
  Cl  Cl497  1  0.49123321  0.88206404  0.87695756  1
  Cl  Cl498  1  -0.00361672  0.10514829  0.39693289  1
  Cl  Cl499  1  0.00336671  0.44405640  0.39630621  1
  Cl  Cl500  1  0.01154466  0.77479113  0.38827977  1
  Cl  Cl501  1  0.50065585  0.11272220  0.38094716  1
  Cl  Cl502  1  0.50098625  0.45271821  0.36969946  1
  Cl  Cl503  1  0.50870146  0.77550327  0.37651668  1
  Cl  Cl504  1  0.36088558  0.14586362  0.74543362  1
  Cl  Cl505  1  0.35649434  0.48325856  0.74922652  1
  Cl  Cl506  1  0.35483604  0.81468469  0.74825023  1
  Cl  Cl507  1  0.85987893  0.14798677  0.74909015  1
  Cl  Cl508  1  0.86362320  0.47952183  0.74305790  1
  Cl  Cl509  1  0.85706211  0.81346890  0.75699527  1
  Cl  Cl510  1  0.14072259  0.18667532  0.26242792  1
  Cl  Cl511  1  0.13740894  0.52018173  0.24234261  1
  Cl  Cl512  1  0.14726453  0.85120095  0.24960421  1
  Cl  Cl513  1  0.64867103  0.18668642  0.25344782  1
  Cl  Cl514  1  0.63538870  0.52188492  0.23665440  1
  Cl  Cl515  1  0.64521567  0.85258865  0.24757525  1
  Cl  Cl516  1  0.14095515  0.14636257  0.74601818  1
  Cl  Cl517  1  0.13717662  0.47871653  0.75902858  1
  Cl  Cl518  1  0.13140360  0.81548048  0.74654782  1
  Cl  Cl519  1  0.63726125  0.14839148  0.74481559  1
  Cl  Cl520  1  0.64301270  0.48009786  0.75888196  1
  Cl  Cl521  1  0.63755153  0.81459728  0.75520104  1
  Cl  Cl522  1  0.35860846  0.18077291  0.25268703  1
  Cl  Cl523  1  0.35893156  0.51499430  0.25202606  1
  Cl  Cl524  1  0.36879067  0.85129376  0.25654399  1
  Cl  Cl525  1  0.86990162  0.18822184  0.25811238  1
  Cl  Cl526  1  0.85887768  0.51672503  0.24783781  1
  Cl  Cl527  1  0.86903812  0.85239548  0.24657054  1
  Cl  Cl528  1  0.11278807  0.31377974  0.74807186  1
  Cl  Cl529  1  0.10491384  0.64937451  0.75416808  1
  Cl  Cl530  1  0.10831898  0.97988571  0.74764944  1
  Cl  Cl531  1  0.61341423  0.31338279  0.75197922  1
  Cl  Cl532  1  0.60392956  0.64840130  0.75685943  1
  Cl  Cl533  1  0.61022100  0.97980255  0.74644200  1
  Cl  Cl534  1  0.39882069  0.01655580  0.24766165  1
  Cl  Cl535  1  0.39527755  0.34780168  0.25157219  1
  Cl  Cl536  1  0.39350371  0.68591679  0.24851076  1
  Cl  Cl537  1  0.89130129  0.02161904  0.24614275  1
  Cl  Cl538  1  0.89388274  0.35613409  0.26064545  1
  Cl  Cl539  1  0.89076753  0.68760974  0.24559302  1
  Cl  Cl540  1  0.39397989  0.31746167  0.74912648  1
  Cl  Cl541  1  0.38558489  0.64853791  0.74958035  1
  Cl  Cl542  1  0.38936395  0.98081636  0.74749530  1
  Cl  Cl543  1  0.89333502  0.31400721  0.74749987  1
  Cl  Cl544  1  0.88540025  0.64619057  0.75511201  1
  Cl  Cl545  1  0.88726164  0.98440471  0.74850154  1
  Cl  Cl546  1  0.11385396  0.01589878  0.25664356  1
  Cl  Cl547  1  0.11158698  0.35546533  0.24838133  1
  Cl  Cl548  1  0.11197800  0.68174297  0.24881516  1
  Cl  Cl549  1  0.62015736  0.02082408  0.25058966  1
  Cl  Cl550  1  0.61612004  0.35385172  0.25093701  1
  Cl  Cl551  1  0.61355739  0.68372274  0.24293683  1
