# generated using pymatgen
data_H8PbC4(N3Cl2)2
_symmetry_space_group_name_H-M   'P 1'
_cell_length_a   16.62043144
_cell_length_b   22.50129797
_cell_length_c   21.58706341
_cell_angle_alpha   89.99780214
_cell_angle_beta   90.00631520
_cell_angle_gamma   89.99671950
_symmetry_Int_Tables_number   1
_chemical_formula_structural   H8PbC4(N3Cl2)2
_chemical_formula_sum   'H192 Pb24 C96 N144 Cl96'
_cell_volume   8073.15754231
_cell_formula_units_Z   24
loop_
 _symmetry_equiv_pos_site_id
 _symmetry_equiv_pos_as_xyz
  1  'x, y, z'
loop_
 _atom_site_type_symbol
 _atom_site_label
 _atom_site_symmetry_multiplicity
 _atom_site_fract_x
 _atom_site_fract_y
 _atom_site_fract_z
 _atom_site_occupancy
  H  H0  1  0.00585327  0.03116653  0.67948442  1
  H  H1  1  -0.00169269  0.36502674  0.68057581  1
  H  H2  1  -0.00445109  0.69932070  0.68021754  1
  H  H3  1  0.50443876  0.03254084  0.67978794  1
  H  H4  1  0.50767622  0.36636143  0.67657203  1
  H  H5  1  0.49804683  0.69907222  0.67831909  1
  H  H6  1  0.00922173  0.30246218  0.18259956  1
  H  H7  1  0.00188513  0.63436680  0.18156126  1
  H  H8  1  0.00350115  0.96834234  0.18153452  1
  H  H9  1  0.49346230  0.29920705  0.17880766  1
  H  H10  1  0.50313310  0.63565893  0.18217811  1
  H  H11  1  0.49705902  0.97006255  0.17854229  1
  H  H12  1  0.00137335  0.03267266  0.82010566  1
  H  H13  1  0.00237033  0.36583230  0.81983763  1
  H  H14  1  -0.00069624  0.69854214  0.82006210  1
  H  H15  1  0.49895785  0.03207236  0.81929049  1
  H  H16  1  0.50063431  0.36398092  0.81824700  1
  H  H17  1  0.50235841  0.69892417  0.82089114  1
  H  H18  1  0.00008199  0.30081164  0.32204704  1
  H  H19  1  0.00446447  0.63505306  0.32256527  1
  H  H20  1  0.00998296  0.96712778  0.32141757  1
  H  H21  1  0.49611232  0.30211579  0.32070423  1
  H  H22  1  0.49269050  0.63508789  0.31723119  1
  H  H23  1  0.49409600  0.96759845  0.31823463  1
  H  H24  1  0.25840869  0.19975477  0.67816621  1
  H  H25  1  0.25710636  0.53271305  0.67812609  1
  H  H26  1  0.25495250  0.86493230  0.68139397  1
  H  H27  1  0.74341614  0.19988602  0.67955783  1
  H  H28  1  0.74393882  0.53277136  0.68046088  1
  H  H29  1  0.75036982  0.86587913  0.68139295  1
  H  H30  1  0.24947233  0.13561277  0.17877283  1
  H  H31  1  0.25774147  0.46843200  0.18017406  1
  H  H32  1  0.24583617  0.80127550  0.18045569  1
  H  H33  1  0.74375294  0.13511918  0.18025870  1
  H  H34  1  0.74294190  0.46742956  0.18216748  1
  H  H35  1  0.74514839  0.80098956  0.17743519  1
  H  H36  1  0.24698372  0.19671321  0.82063734  1
  H  H37  1  0.24919484  0.53189110  0.82112002  1
  H  H38  1  0.25773190  0.86590956  0.81918601  1
  H  H39  1  0.75318069  0.19745815  0.82025202  1
  H  H40  1  0.75236430  0.53255497  0.81724301  1
  H  H41  1  0.74033958  0.86723467  0.82245158  1
  H  H42  1  0.24532933  0.13267916  0.31994478  1
  H  H43  1  0.24021609  0.46603183  0.32066789  1
  H  H44  1  0.24150067  0.80027725  0.32062057  1
  H  H45  1  0.75003390  0.13379169  0.31909279  1
  H  H46  1  0.76031337  0.46763891  0.32085460  1
  H  H47  1  0.75707327  0.79978024  0.32056632  1
  H  H48  1  0.11619098  0.05731288  0.59753013  1
  H  H49  1  0.12415633  0.38537431  0.61122429  1
  H  H50  1  0.12816427  0.71923674  0.61554884  1
  H  H51  1  0.61464865  0.05804878  0.59890784  1
  H  H52  1  0.61878852  0.39153515  0.59568620  1
  H  H53  1  0.63006949  0.71980721  0.61466171  1
  H  H54  1  0.38009008  0.27520726  0.09794531  1
  H  H55  1  0.37532834  0.61296615  0.11410946  1
  H  H56  1  0.38134699  0.94468434  0.09923701  1
  H  H57  1  0.87423920  0.28145220  0.12057167  1
  H  H58  1  0.87437837  0.61556735  0.11297050  1
  H  H59  1  0.87420953  0.94824017  0.11633492  1
  H  H60  1  0.37529136  0.05483162  0.89270102  1
  H  H61  1  0.37574874  0.38551783  0.88799206  1
  H  H62  1  0.37384669  0.72006515  0.88868685  1
  H  H63  1  0.87556113  0.05150761  0.88782810  1
  H  H64  1  0.87575593  0.38788785  0.88926084  1
  H  H65  1  0.87162606  0.72028281  0.88758612  1
  H  H66  1  0.12937524  0.27839161  0.38839760  1
  H  H67  1  0.12544317  0.61155816  0.39564383  1
  H  H68  1  0.12253845  0.94108041  0.40092043  1
  H  H69  1  0.62968909  0.28202317  0.38306131  1
  H  H70  1  0.62756467  0.61472558  0.37974389  1
  H  H71  1  0.62613448  0.94718978  0.38140606  1
  H  H72  1  0.36420703  0.22613664  0.59331656  1
  H  H73  1  0.36857264  0.55889550  0.59787386  1
  H  H74  1  0.37092077  0.88804329  0.60317896  1
  H  H75  1  0.87121260  0.22020641  0.61405804  1
  H  H76  1  0.87785345  0.55169919  0.61986987  1
  H  H77  1  0.87593140  0.88710404  0.60994050  1
  H  H78  1  0.12576475  0.11089086  0.10844126  1
  H  H79  1  0.12335777  0.44887026  0.11823176  1
  H  H80  1  0.12490658  0.77670449  0.10583896  1
  H  H81  1  0.62676616  0.11023557  0.10410144  1
  H  H82  1  0.62911173  0.44369428  0.10214546  1
  H  H83  1  0.62946712  0.77877008  0.09910736  1
  H  H84  1  0.12925401  0.22212915  0.89825171  1
  H  H85  1  0.12540547  0.55452577  0.89185472  1
  H  H86  1  0.12258407  0.88461238  0.88014603  1
  H  H87  1  0.62284761  0.21945068  0.88527513  1
  H  H88  1  0.62481640  0.55341652  0.88507371  1
  H  H89  1  0.62825993  0.88919994  0.90139680  1
  H  H90  1  0.38462306  0.11663153  0.37515269  1
  H  H91  1  0.38146465  0.44911963  0.37143042  1
  H  H92  1  0.37073115  0.78057744  0.38429111  1
  H  H93  1  0.88303363  0.11335937  0.38326476  1
  H  H94  1  0.87156494  0.44273505  0.40305257  1
  H  H95  1  0.86321803  0.77612718  0.40378705  1
  H  H96  1  0.38115638  0.27612899  0.39901831  1
  H  H97  1  0.37954094  0.61072939  0.39683770  1
  H  H98  1  0.37667423  0.94313218  0.39525887  1
  H  H99  1  0.88054150  0.27702378  0.39549738  1
  H  H100  1  0.87644167  0.61239484  0.38949643  1
  H  H101  1  0.87503151  0.94772466  0.38210265  1
  H  H102  1  0.12490406  0.05428569  0.89170217  1
  H  H103  1  0.12456273  0.38905357  0.89240059  1
  H  H104  1  0.12038369  0.72068121  0.89483988  1
  H  H105  1  0.62430587  0.05273222  0.89208940  1
  H  H106  1  0.62562477  0.38958584  0.88828335  1
  H  H107  1  0.62282240  0.72311337  0.89427205  1
  H  H108  1  0.12232040  0.27758324  0.10295643  1
  H  H109  1  0.12381889  0.61270050  0.11098858  1
  H  H110  1  0.12335735  0.94663107  0.10772594  1
  H  H111  1  0.62721358  0.27864173  0.11852652  1
  H  H112  1  0.62439692  0.61386143  0.10837622  1
  H  H113  1  0.62917403  0.94756119  0.11523795  1
  H  H114  1  0.36700487  0.05263237  0.62136214  1
  H  H115  1  0.37209739  0.38527762  0.61723726  1
  H  H116  1  0.38213137  0.72338991  0.60221304  1
  H  H117  1  0.87019341  0.05223857  0.61999093  1
  H  H118  1  0.87567316  0.38961624  0.60849776  1
  H  H119  1  0.88027290  0.72354749  0.60106245  1
  H  H120  1  0.13754955  0.10943550  0.40194071  1
  H  H121  1  0.13631074  0.44170069  0.40524387  1
  H  H122  1  0.12172788  0.77793848  0.39578195  1
  H  H123  1  0.63411098  0.11270435  0.39648827  1
  H  H124  1  0.62394481  0.44717373  0.37906411  1
  H  H125  1  0.61713623  0.78382107  0.37357551  1
  H  H126  1  0.37758135  0.21920530  0.88538359  1
  H  H127  1  0.37483179  0.55537183  0.89044991  1
  H  H128  1  0.36950571  0.89061986  0.90150014  1
  H  H129  1  0.87181003  0.22159880  0.89522506  1
  H  H130  1  0.87423614  0.55239873  0.88873242  1
  H  H131  1  0.87520727  0.88471557  0.88111317  1
  H  H132  1  0.37497483  0.11347363  0.10817625  1
  H  H133  1  0.37057881  0.44144398  0.09937473  1
  H  H134  1  0.37330029  0.77987593  0.11192486  1
  H  H135  1  0.87535034  0.11384001  0.11551913  1
  H  H136  1  0.87745714  0.44911506  0.11892241  1
  H  H137  1  0.87783178  0.77983106  0.11485606  1
  H  H138  1  0.11868676  0.21767420  0.62494578  1
  H  H139  1  0.12164708  0.54987444  0.61789507  1
  H  H140  1  0.12212733  0.88495449  0.61626519  1
  H  H141  1  0.62210668  0.22267256  0.60583282  1
  H  H142  1  0.62980275  0.55517619  0.60322699  1
  H  H143  1  0.62765471  0.88733659  0.60767753  1
  H  H144  1  0.33517859  0.75104016  0.49807424  1
  H  H145  1  0.09110189  0.25019668  0.49545494  1
  H  H146  1  0.05568591  0.24996542  -0.00340818  1
  H  H147  1  0.30079025  0.41704471  -0.00255021  1
  H  H148  1  0.18250270  0.74988934  0.00217023  1
  H  H149  1  0.84362445  0.75266834  0.00676939  1
  H  H150  1  0.93153498  0.40011772  0.50190824  1
  H  H151  1  0.84831308  0.08676827  0.49058643  1
  H  H152  1  0.94642240  0.75078279  0.49873973  1
  H  H153  1  0.59846642  0.74960894  0.50636767  1
  H  H154  1  0.82805812  0.91389686  0.50524670  1
  H  H155  1  0.65863517  0.24574135  0.99281220  1
  H  H156  1  0.44622091  0.25028914  0.50247645  1
  H  H157  1  0.14969346  0.58524501  0.51307582  1
  H  H158  1  0.44842849  0.92024662  -0.00322349  1
  H  H159  1  0.07766573  0.58416135  -0.00036857  1
  H  H160  1  0.04526121  0.08176759  0.49629920  1
  H  H161  1  0.28914266  0.25086258  0.49319178  1
  H  H162  1  0.41682922  0.74886164  0.99444788  1
  H  H163  1  0.81844323  0.24990649  1.00331187  1
  H  H164  1  0.91652361  0.58428478  0.49557055  1
  H  H165  1  0.07359512  0.42768890  0.51194996  1
  H  H166  1  0.20977943  0.41616919  0.51068495  1
  H  H167  1  0.79298651  0.74931206  0.50945241  1
  H  H168  1  0.90682539  0.91905727  0.00437427  1
  H  H169  1  0.19395805  0.24704988  1.00129014  1
  H  H170  1  0.54728891  0.08642391  0.49299099  1
  H  H171  1  0.29819215  0.91878087  1.00169610  1
  H  H172  1  0.83309083  0.24882814  0.50075154  1
  H  H173  1  0.57269039  0.58472475  0.00068850  1
  H  H174  1  0.68735883  0.58418163  0.49544291  1
  H  H175  1  0.39730349  0.41585274  0.50712828  1
  H  H176  1  0.57567888  0.40945911  0.99583901  1
  H  H177  1  0.20628655  0.08116395  0.50837891  1
  H  H178  1  0.69244752  0.08724583  0.50565561  1
  H  H179  1  0.29830351  0.57346679  0.49489608  1
  H  H180  1  0.91657028  0.08066024  1.00021550  1
  H  H181  1  0.42284073  0.40878287  1.00065937  1
  H  H182  1  0.44500867  0.58361884  0.50307773  1
  H  H183  1  0.80053731  0.41848296  0.50520757  1
  H  H184  1  0.32803999  0.58412869  0.99569498  1
  H  H185  1  0.38936095  0.08132388  0.51079876  1
  H  H186  1  0.59258088  0.91728880  0.49289328  1
  H  H187  1  0.07382117  0.91954592  -0.00140603  1
  H  H188  1  0.82807324  0.58089616  0.99971977  1
  H  H189  1  0.30747236  0.91336641  0.49522554  1
  H  H190  1  0.69520969  0.42113024  -0.00525427  1
  H  H191  1  0.43670508  0.91602805  0.49883089  1
  Pb  Pb192  1  0.24539910  0.04704129  0.74887086  1
  Pb  Pb193  1  0.25121528  0.38004171  0.75353736  1
  Pb  Pb194  1  0.24850141  0.71339317  0.75254923  1
  Pb  Pb195  1  0.74721179  0.04660817  0.74691975  1
  Pb  Pb196  1  0.74739721  0.38091262  0.74623667  1
  Pb  Pb197  1  0.75368650  0.71446540  0.75237532  1
  Pb  Pb198  1  0.25469060  0.28383151  0.24755214  1
  Pb  Pb199  1  0.24850105  0.61810122  0.25284612  1
  Pb  Pb200  1  0.25673792  0.95221417  0.24778074  1
  Pb  Pb201  1  0.75445285  0.28686017  0.24959235  1
  Pb  Pb202  1  0.75279251  0.62000946  0.24898099  1
  Pb  Pb203  1  0.75138971  0.95376903  0.25312099  1
  Pb  Pb204  1  -0.00279299  0.21406037  0.75284575  1
  Pb  Pb205  1  0.00176469  0.54553634  0.75063009  1
  Pb  Pb206  1  -0.00160852  0.87956126  0.74897871  1
  Pb  Pb207  1  0.49778711  0.21265151  0.74167117  1
  Pb  Pb208  1  0.49960949  0.54988687  0.74653094  1
  Pb  Pb209  1  0.49799422  0.88103056  0.75111535  1
  Pb  Pb210  1  0.00442421  0.11780814  0.25342260  1
  Pb  Pb211  1  0.00008798  0.45133533  0.26190573  1
  Pb  Pb212  1  0.00056835  0.78821193  0.25587095  1
  Pb  Pb213  1  0.50744893  0.12009942  0.25059058  1
  Pb  Pb214  1  0.50362782  0.45281933  0.24096274  1
  Pb  Pb215  1  0.50156838  0.78530377  0.24512463  1
  C  C216  1  -0.00261275  0.04623566  0.63220388  1
  C  C217  1  -0.00066639  0.37994654  0.63257595  1
  C  C218  1  0.00117670  0.71378085  0.63247775  1
  C  C219  1  0.49446047  0.04763324  0.63247987  1
  C  C220  1  0.49896805  0.38094224  0.62921602  1
  C  C221  1  0.50398434  0.71395200  0.63079039  1
  C  C222  1  0.00168338  0.28757254  0.13512302  1
  C  C223  1  0.00046356  0.62071650  0.13347899  1
  C  C224  1  0.00030427  0.95377344  0.13359966  1
  C  C225  1  0.50006446  0.28498490  0.13125236  1
  C  C226  1  0.50077119  0.62042332  0.13457373  1
  C  C227  1  0.50205790  0.95468966  0.13111908  1
  C  C228  1  0.00009491  0.04673947  0.86807173  1
  C  C229  1  0.00066033  0.38071904  0.86740215  1
  C  C230  1  -0.00273305  0.71298959  0.86776628  1
  C  C231  1  0.49947641  0.04632467  0.86726185  1
  C  C232  1  0.50117313  0.37943889  0.86593448  1
  C  C233  1  0.49917288  0.71395033  0.86847277  1
  C  C234  1  0.00389597  0.28570512  0.36960907  1
  C  C235  1  0.00167003  0.61956058  0.37006722  1
  C  C236  1  0.00217266  0.95235338  0.36867655  1
  C  C237  1  0.50213989  0.28723089  0.36812691  1
  C  C238  1  0.50019389  0.62039552  0.36474839  1
  C  C239  1  0.49875293  0.95266494  0.36609634  1
  C  C240  1  0.24728390  0.21411643  0.63090436  1
  C  C241  1  0.24891396  0.54720225  0.63038703  1
  C  C242  1  0.24912852  0.87952157  0.63369388  1
  C  C243  1  0.74602328  0.21430191  0.63174396  1
  C  C244  1  0.75029523  0.54697153  0.63277938  1
  C  C245  1  0.75165622  0.88039890  0.63346965  1
  C  C246  1  0.25025329  0.12013980  0.13143831  1
  C  C247  1  0.25113031  0.45344652  0.13263735  1
  C  C248  1  0.24768723  0.78621881  0.13283850  1
  C  C249  1  0.74895596  0.11997021  0.13294856  1
  C  C250  1  0.74993517  0.45348675  0.13438733  1
  C  C251  1  0.75122986  0.78680809  0.12969281  1
  C  C252  1  0.25083852  0.21215729  0.86808876  1
  C  C253  1  0.25028349  0.54723461  0.86866648  1
  C  C254  1  0.25028680  0.88028651  0.86680070  1
  C  C255  1  0.74893596  0.21269517  0.86794383  1
  C  C256  1  0.75086864  0.54634888  0.86528440  1
  C  C257  1  0.74804816  0.88066811  0.87021534  1
  C  C258  1  0.25586270  0.11926558  0.36762769  1
  C  C259  1  0.25253411  0.45251868  0.36802974  1
  C  C260  1  0.24522947  0.78596532  0.36841349  1
  C  C261  1  0.75648462  0.11946713  0.36696966  1
  C  C262  1  0.75233039  0.45339220  0.36837833  1
  C  C263  1  0.74584991  0.78667124  0.36810778  1
  C  C264  1  0.47684353  0.59437761  0.46039824  1
  C  C265  1  0.95465074  0.73897699  0.96008330  1
  C  C266  1  0.69382807  0.42620213  0.45660035  1
  C  C267  1  0.27513123  0.90431204  0.53804710  1
  C  C268  1  0.68206770  0.76371881  0.45459496  1
  C  C269  1  0.52400885  0.40977524  0.53249341  1
  C  C270  1  0.72335377  0.57334549  0.53590166  1
  C  C271  1  0.23712818  0.09291919  0.46551431  1
  C  C272  1  0.72248816  0.90651532  0.96599057  1
  C  C273  1  0.03908247  0.59294205  0.46509325  1
  C  C274  1  0.53647519  0.74213340  0.96303130  1
  C  C275  1  0.80454026  0.57180092  0.54316558  1
  C  C276  1  0.21033217  0.75997932  0.46329852  1
  C  C277  1  0.72646421  0.42971311  0.03805113  1
  C  C278  1  0.03968911  0.07248161  0.96186201  1
  C  C279  1  0.95592897  0.59616301  0.04082643  1
  C  C280  1  0.31860618  0.42988065  0.45381988  1
  C  C281  1  0.18336443  0.23873384  0.54442450  1
  C  C282  1  0.21359438  0.09026425  0.03958336  1
  C  C283  1  0.02557907  0.92302489  0.46362014  1
  C  C284  1  0.79043502  0.23948216  0.53825107  1
  C  C285  1  0.20897396  0.57560673  0.96218865  1
  C  C286  1  0.70612512  0.57101315  0.95803511  1
  C  C287  1  0.54948991  0.92747310  0.45648062  1
  C  C288  1  0.72053883  0.76050992  0.03319748  1
  C  C289  1  0.45965059  0.40407646  0.95921634  1
  C  C290  1  0.72590956  0.09589466  0.46322001  1
  C  C291  1  0.31773179  0.09579420  0.45507828  1
  C  C292  1  0.02456739  0.26086409  0.03956654  1
  C  C293  1  0.03751358  0.59485021  0.03836963  1
  C  C294  1  0.03500046  0.92910681  0.03786614  1
  C  C295  1  0.78766526  0.57102243  0.96074104  1
  C  C296  1  0.78205575  0.23949144  0.96291293  1
  C  C297  1  0.51717414  0.07481454  0.53614310  1
  C  C298  1  0.53401700  0.59475183  0.04054952  1
  C  C299  1  0.55621956  0.26069515  0.45821161  1
  C  C300  1  0.29189157  0.76054364  0.46114780  1
  C  C301  1  0.55117195  0.25911537  0.04167943  1
  C  C302  1  0.80327208  0.90505705  0.95922153  1
  C  C303  1  0.47267551  0.74274141  0.53494185  1
  C  C304  1  0.76238338  0.76056026  0.46638516  1
  C  C305  1  0.96804946  0.25674745  0.46441970  1
  C  C306  1  0.70865690  0.24013482  0.53706133  1
  C  C307  1  0.95811809  0.07164222  0.96230538  1
  C  C308  1  0.03541988  0.40813896  0.96054289  1
  C  C309  1  0.71992771  0.09006499  0.03916271  1
  C  C310  1  0.95285343  0.92916528  0.04099750  1
  C  C311  1  0.23865676  0.42699885  0.46679759  1
  N  N312  1  0.04124872  0.39961948  0.53973643  1
  N  N313  1  0.77227455  0.42534287  0.46351367  1
  N  N314  1  0.22436293  0.24049712  0.96075423  1
  N  N315  1  0.43836897  0.07237672  0.54473823  1
  N  N316  1  0.46219993  0.07253352  0.96125405  1
  N  N317  1  0.47410799  0.25863801  0.03356166  1
  N  N318  1  0.21661269  0.76020405  0.04020389  1
  N  N319  1  0.53919299  0.40809081  0.95772182  1
  N  N320  1  0.47001796  0.92680493  0.46053202  1
  N  N321  1  0.01736544  0.07543309  0.53842512  1
  N  N322  1  0.27202043  0.57969717  0.53751505  1
  N  N323  1  0.94568359  0.26179574  0.04552504  1
  N  N324  1  0.96190602  0.41064532  0.54175386  1
  N  N325  1  0.26141922  0.24180778  0.53482639  1
  N  N326  1  0.45745710  0.74029391  0.96004200  1
  N  N327  1  0.55576511  0.59550916  0.45466183  1
  N  N328  1  0.19531421  0.42839979  0.04380036  1
  N  N329  1  0.93965849  0.07245086  0.54441719  1
  N  N330  1  0.29504023  0.76166048  0.04072857  1
  N  N331  1  0.71087186  0.90446705  0.53934846  1
  N  N332  1  0.55138479  0.74042427  0.54062197  1
  N  N333  1  0.44585030  0.40688726  0.54068284  1
  N  N334  1  0.79923546  0.76105483  0.03978019  1
  N  N335  1  0.45449102  0.59443997  0.04163356  1
  N  N336  1  0.53847702  0.07192631  0.96101833  1
  N  N337  1  0.19281458  0.90427780  0.95543689  1
  N  N338  1  0.79743292  0.09169299  0.04134833  1
  N  N339  1  0.28839443  0.57525616  0.96063943  1
  N  N340  1  0.19614556  0.90405195  0.54263963  1
  N  N341  1  0.29109263  0.09098088  0.03819348  1
  N  N342  1  0.80519118  0.09644786  0.45739282  1
  N  N343  1  0.30220532  0.23922153  0.95800902  1
  N  N344  1  0.47746720  0.25924297  0.46250738  1
  N  N345  1  0.97619170  0.73921734  0.53849134  1
  N  N346  1  0.70243315  0.23896215  0.95837525  1
  N  N347  1  0.03240168  0.73930973  0.96366447  1
  N  N348  1  0.27041715  0.90599188  0.96135230  1
  N  N349  1  0.80521823  0.43100165  0.04366816  1
  N  N350  1  0.04710447  0.25861007  0.46068801  1
  N  N351  1  0.95987223  0.59296019  0.46159221  1
  N  N352  1  0.27282596  0.42580386  0.03873271  1
  N  N353  1  0.55543599  0.92701962  0.04208746  1
  N  N354  1  0.05392822  0.73788478  0.54218120  1
  N  N355  1  0.95809582  0.40787920  0.96091901  1
  N  N356  1  0.78926881  0.90365349  0.54107196  1
  N  N357  1  0.19414770  0.56701316  0.54173216  1
  N  N358  1  0.94812643  0.92522644  0.45897381  1
  N  N359  1  0.47769540  0.92649187  0.03797207  1
  N  N360  1  0.05397988  0.05695339  0.59062151  1
  N  N361  1  0.06406709  0.39260697  0.59940488  1
  N  N362  1  0.06909516  0.72232850  0.60091699  1
  N  N363  1  0.55266596  0.05957647  0.59048633  1
  N  N364  1  0.55745536  0.39351052  0.58713896  1
  N  N365  1  0.57104439  0.72266303  0.59952098  1
  N  N366  1  0.44203397  0.27519981  0.09073069  1
  N  N367  1  0.43571069  0.61039187  0.10092090  1
  N  N368  1  0.44324595  0.94507727  0.09112628  1
  N  N369  1  0.93337404  0.27839818  0.10505647  1
  N  N370  1  0.93390446  0.61166958  0.09834916  1
  N  N371  1  0.93323098  0.94439984  0.10080250  1
  N  N372  1  0.43646322  0.05693114  0.90316946  1
  N  N373  1  0.43567678  0.38840590  0.90179215  1
  N  N374  1  0.43376324  0.72293368  0.90172944  1
  N  N375  1  0.93470162  0.05557880  0.90267910  1
  N  N376  1  0.93614871  0.39050658  0.90163365  1
  N  N377  1  0.93103860  0.72307851  0.90196033  1
  N  N378  1  0.06971079  0.27679846  0.40242230  1
  N  N379  1  0.06514662  0.60882222  0.40814186  1
  N  N380  1  0.06123987  0.93950488  0.40975330  1
  N  N381  1  0.57163407  0.27751556  0.39960926  1
  N  N382  1  0.56837757  0.61153577  0.39507253  1
  N  N383  1  0.56753053  0.94339825  0.39783248  1
  N  N384  1  0.30165481  0.22523642  0.58791413  1
  N  N385  1  0.30644912  0.55666900  0.58909414  1
  N  N386  1  0.30944563  0.88983991  0.59376399  1
  N  N387  1  0.81228104  0.22348611  0.59830148  1
  N  N388  1  0.82009036  0.55617938  0.60198313  1
  N  N389  1  0.81519260  0.89001113  0.59823629  1
  N  N390  1  0.18570137  0.10780190  0.09573990  1
  N  N391  1  0.18226549  0.44462600  0.10257607  1
  N  N392  1  0.18618140  0.77556494  0.09560682  1
  N  N393  1  0.68774663  0.10737991  0.09392221  1
  N  N394  1  0.69059778  0.44304349  0.09357877  1
  N  N395  1  0.69044134  0.77621563  0.08899703  1
  N  N396  1  0.19101336  0.22238007  0.90705554  1
  N  N397  1  0.18541896  0.55837278  0.90528347  1
  N  N398  1  0.18097794  0.88826408  0.89644932  1
  N  N399  1  0.68258447  0.22164020  0.90017740  1
  N  N400  1  0.68424800  0.55635965  0.90019542  1
  N  N401  1  0.68903960  0.89159149  0.91169688  1
  N  N402  1  0.32846540  0.11152404  0.39530958  1
  N  N403  1  0.32628943  0.44495597  0.39373857  1
  N  N404  1  0.31220879  0.77663300  0.40086231  1
  N  N405  1  0.82378703  0.11064853  0.39812278  1
  N  N406  1  0.80962611  0.44384302  0.40985659  1
  N  N407  1  0.80115868  0.77525728  0.41112766  1
  N  N408  1  0.44300570  0.27654287  0.40755413  1
  N  N409  1  0.44113094  0.60944693  0.40552721  1
  N  N410  1  0.43854411  0.94259147  0.40480958  1
  N  N411  1  0.94105546  0.27351666  0.40792226  1
  N  N412  1  0.93651868  0.60936339  0.40310153  1
  N  N413  1  0.93373187  0.94357649  0.39815556  1
  N  N414  1  0.06479955  0.05747524  0.90501502  1
  N  N415  1  0.06446122  0.39172568  0.90431157  1
  N  N416  1  0.05895719  0.72270968  0.90486033  1
  N  N417  1  0.56319403  0.05540952  0.90293507  1
  N  N418  1  0.56480468  0.38987083  0.90088095  1
  N  N419  1  0.56247480  0.72579858  0.90646567  1
  N  N420  1  0.06055435  0.27629189  0.09425628  1
  N  N421  1  0.06401620  0.61047462  0.09731149  1
  N  N422  1  0.06310921  0.94416125  0.09589171  1
  N  N423  1  0.56946991  0.27516630  0.10096910  1
  N  N424  1  0.56362116  0.61022213  0.09724459  1
  N  N425  1  0.56999087  0.94326156  0.10064226  1
  N  N426  1  0.42500207  0.05552795  0.60398261  1
  N  N427  1  0.43007089  0.38939878  0.60031122  1
  N  N428  1  0.44298443  0.72623673  0.59089668  1
  N  N429  1  0.92796807  0.05632664  0.60353150  1
  N  N430  1  0.93619792  0.38676200  0.59585878  1
  N  N431  1  0.94217101  0.72430465  0.59285071  1
  N  N432  1  0.19945743  0.10789035  0.40982900  1
  N  N433  1  0.19813301  0.44137946  0.41188318  1
  N  N434  1  0.18226286  0.77523817  0.40734047  1
  N  N435  1  0.69547275  0.11005232  0.40707798  1
  N  N436  1  0.68149774  0.44302310  0.39761216  1
  N  N437  1  0.67287553  0.77933743  0.39492717  1
  N  N438  1  0.31822074  0.22268902  0.89968070  1
  N  N439  1  0.31440866  0.55739969  0.90306662  1
  N  N440  1  0.30720857  0.89173171  0.90781115  1
  N  N441  1  0.81115625  0.22378135  0.90651342  1
  N  N442  1  0.81433671  0.55562399  0.90184612  1
  N  N443  1  0.81818943  0.88937588  0.90020777  1
  N  N444  1  0.31416734  0.10983169  0.09663133  1
  N  N445  1  0.30884369  0.44222081  0.09213549  1
  N  N446  1  0.31334529  0.77714352  0.09891824  1
  N  N447  1  0.81560505  0.11059684  0.10124854  1
  N  N448  1  0.81803856  0.44577617  0.10351307  1
  N  N449  1  0.81875478  0.77773782  0.09903116  1
  N  N450  1  0.17452056  0.22242346  0.60415754  1
  N  N451  1  0.17984317  0.55684220  0.60182799  1
  N  N452  1  0.18183177  0.88862303  0.60214232  1
  N  N453  1  0.68233740  0.22498909  0.59377357  1
  N  N454  1  0.69056520  0.55771696  0.59301547  1
  N  N455  1  0.68833060  0.88959990  0.59681817  1
  Cl  Cl456  1  0.23841916  0.05580048  0.61230988  1
  Cl  Cl457  1  0.24500956  0.38419681  0.61736861  1
  Cl  Cl458  1  0.25650152  0.71723666  0.61947938  1
  Cl  Cl459  1  0.73989804  0.05583792  0.60967299  1
  Cl  Cl460  1  0.75191041  0.39258769  0.60600689  1
  Cl  Cl461  1  0.75837347  0.72225744  0.61627258  1
  Cl  Cl462  1  0.24754775  0.27596834  0.11091904  1
  Cl  Cl463  1  0.25157114  0.61184833  0.11818528  1
  Cl  Cl464  1  0.25886193  0.94251123  0.10765904  1
  Cl  Cl465  1  0.74991463  0.27769150  0.11453845  1
  Cl  Cl466  1  0.74862335  0.61762857  0.11664628  1
  Cl  Cl467  1  0.75072133  0.95027622  0.12290640  1
  Cl  Cl468  1  0.25140282  0.05096062  0.87973752  1
  Cl  Cl469  1  0.25266754  0.39012298  0.89016943  1
  Cl  Cl470  1  0.24530069  0.71968749  0.89020024  1
  Cl  Cl471  1  0.74724987  0.05112697  0.87743085  1
  Cl  Cl472  1  0.74788479  0.38696310  0.88112584  1
  Cl  Cl473  1  0.74820988  0.72254245  0.88586100  1
  Cl  Cl474  1  0.25798474  0.27492356  0.39354706  1
  Cl  Cl475  1  0.25276442  0.60774741  0.39433028  1
  Cl  Cl476  1  0.25304706  0.94360177  0.38358269  1
  Cl  Cl477  1  0.75691527  0.28351935  0.38178220  1
  Cl  Cl478  1  0.75344514  0.61320828  0.38194013  1
  Cl  Cl479  1  0.75062120  0.94772925  0.38725082  1
  Cl  Cl480  1  -0.00426926  0.22103125  0.61845684  1
  Cl  Cl481  1  0.00150005  0.55077344  0.61387209  1
  Cl  Cl482  1  -0.00309454  0.88479307  0.61607605  1
  Cl  Cl483  1  0.48795582  0.22511911  0.60234247  1
  Cl  Cl484  1  0.49079504  0.55554461  0.61070801  1
  Cl  Cl485  1  0.49739503  0.88890890  0.60578263  1
  Cl  Cl486  1  0.00013011  0.11372255  0.12199813  1
  Cl  Cl487  1  0.00099371  0.45108783  0.13085797  1
  Cl  Cl488  1  0.00231357  0.77811111  0.12338750  1
  Cl  Cl489  1  0.50081066  0.11636563  0.12231945  1
  Cl  Cl490  1  0.49941840  0.43978566  0.10280322  1
  Cl  Cl491  1  0.49892760  0.77838641  0.10934207  1
  Cl  Cl492  1  0.00591472  0.22208091  0.88770311  1
  Cl  Cl493  1  0.00267688  0.55171374  0.88111725  1
  Cl  Cl494  1  0.00025033  0.88493452  0.88087701  1
  Cl  Cl495  1  0.50082853  0.22085197  0.87276187  1
  Cl  Cl496  1  0.49880976  0.55251441  0.88049561  1
  Cl  Cl497  1  0.49098408  0.88820131  0.89165225  1
  Cl  Cl498  1  0.01128652  0.11080883  0.39396304  1
  Cl  Cl499  1  0.00017138  0.44094287  0.40306460  1
  Cl  Cl500  1  -0.01031871  0.77603372  0.39279933  1
  Cl  Cl501  1  0.51283531  0.11474895  0.38760144  1
  Cl  Cl502  1  0.50469830  0.44633146  0.37300318  1
  Cl  Cl503  1  0.49350693  0.78344247  0.37732751  1
  Cl  Cl504  1  0.36073235  0.14604404  0.74646262  1
  Cl  Cl505  1  0.35872872  0.47726206  0.75000312  1
  Cl  Cl506  1  0.36307066  0.81112725  0.75037496  1
  Cl  Cl507  1  0.86099887  0.14475853  0.74681618  1
  Cl  Cl508  1  0.86346643  0.47760658  0.74354937  1
  Cl  Cl509  1  0.86033357  0.81049431  0.75277302  1
  Cl  Cl510  1  0.13852604  0.19000087  0.25210986  1
  Cl  Cl511  1  0.14283051  0.52196530  0.25142196  1
  Cl  Cl512  1  0.13708482  0.85525981  0.24918136  1
  Cl  Cl513  1  0.64035663  0.18880318  0.25176454  1
  Cl  Cl514  1  0.63623421  0.52259924  0.25349680  1
  Cl  Cl515  1  0.63644629  0.85502662  0.25232365  1
  Cl  Cl516  1  0.13703807  0.14428961  0.74726366  1
  Cl  Cl517  1  0.13745582  0.47929623  0.74491713  1
  Cl  Cl518  1  0.13802383  0.81141101  0.75011320  1
  Cl  Cl519  1  0.63702285  0.14617852  0.74731122  1
  Cl  Cl520  1  0.63758598  0.47699449  0.75253795  1
  Cl  Cl521  1  0.63562650  0.81227141  0.74714443  1
  Cl  Cl522  1  0.35996500  0.19074475  0.25383374  1
  Cl  Cl523  1  0.36494095  0.52143960  0.25277851  1
  Cl  Cl524  1  0.35943217  0.85640489  0.24981608  1
  Cl  Cl525  1  0.86291297  0.19078782  0.25049975  1
  Cl  Cl526  1  0.86052328  0.52212833  0.24886569  1
  Cl  Cl527  1  0.86260914  0.85511404  0.24840882  1
  Cl  Cl528  1  0.11173598  0.31102756  0.74655505  1
  Cl  Cl529  1  0.11289965  0.64466955  0.74659634  1
  Cl  Cl530  1  0.11224673  0.97711645  0.75072954  1
  Cl  Cl531  1  0.61264590  0.31217778  0.74705090  1
  Cl  Cl532  1  0.60840826  0.64340515  0.74971136  1
  Cl  Cl533  1  0.60873451  0.97799503  0.74511200  1
  Cl  Cl534  1  0.38936846  0.02228379  0.25406479  1
  Cl  Cl535  1  0.38756287  0.35529632  0.25084178  1
  Cl  Cl536  1  0.38854187  0.68862171  0.24640188  1
  Cl  Cl537  1  0.88604543  0.02403563  0.25562856  1
  Cl  Cl538  1  0.88857126  0.35681057  0.24997250  1
  Cl  Cl539  1  0.88818648  0.68742969  0.25051931  1
  Cl  Cl540  1  0.38671143  0.31313986  0.74702836  1
  Cl  Cl541  1  0.38732215  0.64414929  0.75142346  1
  Cl  Cl542  1  0.38775785  0.97694356  0.74468037  1
  Cl  Cl543  1  0.88753636  0.31149486  0.75045951  1
  Cl  Cl544  1  0.88715123  0.64464964  0.74802881  1
  Cl  Cl545  1  0.88726557  0.97845958  0.74548165  1
  Cl  Cl546  1  0.10771911  0.02279855  0.25072098  1
  Cl  Cl547  1  0.11022323  0.35636026  0.25538710  1
  Cl  Cl548  1  0.11396430  0.68803069  0.25406772  1
  Cl  Cl549  1  0.61097425  0.02189744  0.25234324  1
  Cl  Cl550  1  0.61305368  0.35570229  0.24891913  1
  Cl  Cl551  1  0.61157279  0.69071236  0.25450811  1
