# generated using pymatgen
data_H8PbC4(N3Cl2)2
_symmetry_space_group_name_H-M   'P 1'
_cell_length_a   16.63348105
_cell_length_b   22.52621631
_cell_length_c   21.60108705
_cell_angle_alpha   90.00303360
_cell_angle_beta   90.01643409
_cell_angle_gamma   90.00334758
_symmetry_Int_Tables_number   1
_chemical_formula_structural   H8PbC4(N3Cl2)2
_chemical_formula_sum   'H192 Pb24 C96 N144 Cl96'
_cell_volume   8093.69781604
_cell_formula_units_Z   24
loop_
 _symmetry_equiv_pos_site_id
 _symmetry_equiv_pos_as_xyz
  1  'x, y, z'
loop_
 _atom_site_type_symbol
 _atom_site_label
 _atom_site_symmetry_multiplicity
 _atom_site_fract_x
 _atom_site_fract_y
 _atom_site_fract_z
 _atom_site_occupancy
  H  H0  1  -0.00382231  0.02720687  0.67617233  1
  H  H1  1  0.00840492  0.36366258  0.68281657  1
  H  H2  1  0.00871918  0.69727787  0.67446337  1
  H  H3  1  0.49636041  0.02644002  0.67229188  1
  H  H4  1  0.50230378  0.35823838  0.68147405  1
  H  H5  1  0.49666432  0.69157141  0.68014453  1
  H  H6  1  -0.01156744  0.30207544  0.17943877  1
  H  H7  1  -0.01214112  0.63937278  0.17669577  1
  H  H8  1  -0.00260401  0.97584928  0.17577917  1
  H  H9  1  0.46899981  0.29944073  0.16091163  1
  H  H10  1  0.50774619  0.62611751  0.18382262  1
  H  H11  1  0.50341714  0.96628409  0.17701337  1
  H  H12  1  0.01044627  0.02711450  0.82051376  1
  H  H13  1  -0.00598098  0.35812698  0.82206522  1
  H  H14  1  0.00911446  0.69622978  0.81976872  1
  H  H15  1  0.50758293  0.02361704  0.82181058  1
  H  H16  1  0.50660136  0.36272487  0.82094437  1
  H  H17  1  0.49079266  0.69391028  0.82028581  1
  H  H18  1  0.00526199  0.30852967  0.32652583  1
  H  H19  1  0.00487298  0.64847921  0.32386638  1
  H  H20  1  -0.00993521  0.97392946  0.32713721  1
  H  H21  1  0.49760444  0.30577838  0.32326011  1
  H  H22  1  0.49338573  0.63645844  0.31661664  1
  H  H23  1  0.50407505  0.97517355  0.32435068  1
  H  H24  1  0.23987134  0.19115103  0.67435174  1
  H  H25  1  0.24898269  0.54787687  0.68601011  1
  H  H26  1  0.25512385  0.86327105  0.67562003  1
  H  H27  1  0.77482020  0.19651998  0.67066595  1
  H  H28  1  0.74523342  0.54096385  0.68658074  1
  H  H29  1  0.75203189  0.86451343  0.67727712  1
  H  H30  1  0.26007104  0.14063637  0.18312680  1
  H  H31  1  0.24682110  0.47539320  0.17628496  1
  H  H32  1  0.25809556  0.80479323  0.18058371  1
  H  H33  1  0.73895969  0.13208718  0.18053998  1
  H  H34  1  0.75476298  0.47450259  0.17611678  1
  H  H35  1  0.73761411  0.80389362  0.17761341  1
  H  H36  1  0.27770607  0.19938824  0.84146471  1
  H  H37  1  0.26709739  0.52559528  0.82294649  1
  H  H38  1  0.23155722  0.86300483  0.82321442  1
  H  H39  1  0.74651290  0.19554538  0.82467197  1
  H  H40  1  0.73144729  0.53064462  0.82010017  1
  H  H41  1  0.76025113  0.86189969  0.82352460  1
  H  H42  1  0.26269984  0.14050358  0.32044297  1
  H  H43  1  0.23710695  0.46399923  0.31728287  1
  H  H44  1  0.24418996  0.80635307  0.32464585  1
  H  H45  1  0.75486051  0.14829290  0.32566064  1
  H  H46  1  0.74610118  0.47058892  0.31711894  1
  H  H47  1  0.74832079  0.80775947  0.32358009  1
  H  H48  1  0.12773596  0.04754832  0.61572783  1
  H  H49  1  0.11634628  0.38590066  0.59958997  1
  H  H50  1  0.11652120  0.72829905  0.59426005  1
  H  H51  1  0.62977771  0.05323225  0.61316571  1
  H  H52  1  0.62219386  0.38520597  0.60721954  1
  H  H53  1  0.61372787  0.72254398  0.60447084  1
  H  H54  1  0.33230923  0.28027111  0.10608068  1
  H  H55  1  0.37641578  0.61249461  0.11780870  1
  H  H56  1  0.37144443  0.95029042  0.11579997  1
  H  H57  1  0.85796000  0.28167339  0.11474568  1
  H  H58  1  0.87463138  0.60962906  0.09877988  1
  H  H59  1  0.86345859  0.94796385  0.11942257  1
  H  H60  1  0.37056295  0.05010977  0.87471455  1
  H  H61  1  0.37908491  0.38763485  0.88893557  1
  H  H62  1  0.37191003  0.71439057  0.89624508  1
  H  H63  1  0.87480274  0.05112047  0.87967742  1
  H  H64  1  0.88511754  0.39075458  0.90206141  1
  H  H65  1  0.87064512  0.71297320  0.87503813  1
  H  H66  1  0.12287192  0.27676309  0.39952569  1
  H  H67  1  0.12139780  0.61623863  0.39810317  1
  H  H68  1  0.11650769  0.94567482  0.39380772  1
  H  H69  1  0.62661867  0.28192425  0.38642063  1
  H  H70  1  0.62325322  0.62378329  0.38271337  1
  H  H71  1  0.61481742  0.94229086  0.40415930  1
  H  H72  1  0.37432718  0.21447874  0.61651532  1
  H  H73  1  0.37560505  0.55693568  0.61612302  1
  H  H74  1  0.37920225  0.88956003  0.60486534  1
  H  H75  1  0.86958690  0.22457334  0.58248173  1
  H  H76  1  0.87296954  0.55366753  0.61832505  1
  H  H77  1  0.88680438  0.88555402  0.61815346  1
  H  H78  1  0.13719075  0.11261578  0.11068480  1
  H  H79  1  0.12148915  0.44679723  0.10816943  1
  H  H80  1  0.13085727  0.77679853  0.11623066  1
  H  H81  1  0.63468022  0.10613959  0.09659598  1
  H  H82  1  0.61985908  0.44811071  0.11979982  1
  H  H83  1  0.63090203  0.77314172  0.09512413  1
  H  H84  1  0.16288944  0.22708132  0.91614820  1
  H  H85  1  0.12512128  0.54605085  0.86964069  1
  H  H86  1  0.13217310  0.89730050  0.91000052  1
  H  H87  1  0.64571960  0.22717557  0.90997822  1
  H  H88  1  0.62638981  0.55723161  0.90501590  1
  H  H89  1  0.63303558  0.88269894  0.89170392  1
  H  H90  1  0.37262451  0.10824223  0.40171966  1
  H  H91  1  0.37641603  0.45019129  0.37220159  1
  H  H92  1  0.37969934  0.78690578  0.37999581  1
  H  H93  1  0.87120107  0.11388161  0.40055497  1
  H  H94  1  0.87679466  0.44482947  0.38327324  1
  H  H95  1  0.88011091  0.78267965  0.38680460  1
  H  H96  1  0.37789957  0.28009596  0.39569022  1
  H  H97  1  0.37501521  0.61180193  0.39054876  1
  H  H98  1  0.36823368  0.94749022  0.38103261  1
  H  H99  1  0.87448450  0.27967357  0.38813901  1
  H  H100  1  0.87378729  0.61751342  0.38275026  1
  H  H101  1  0.86788578  0.94620248  0.39775484  1
  H  H102  1  0.12235650  0.05617177  0.89935856  1
  H  H103  1  0.13171164  0.38377919  0.87769723  1
  H  H104  1  0.11654630  0.72421059  0.90001328  1
  H  H105  1  0.61696140  0.05463906  0.90255572  1
  H  H106  1  0.62726673  0.38824771  0.89704682  1
  H  H107  1  0.61830971  0.72629724  0.88256790  1
  H  H108  1  0.10551010  0.27841209  0.10278504  1
  H  H109  1  0.12198882  0.61385858  0.11691651  1
  H  H110  1  0.10996650  0.94190619  0.09808155  1
  H  H111  1  0.57901166  0.27269291  0.08089476  1
  H  H112  1  0.62457230  0.61154899  0.10563075  1
  H  H113  1  0.61889117  0.94201356  0.10029107  1
  H  H114  1  0.38224587  0.05592583  0.59650420  1
  H  H115  1  0.37406158  0.38498273  0.61280654  1
  H  H116  1  0.36516643  0.71855082  0.61820210  1
  H  H117  1  0.87974409  0.05490959  0.60105837  1
  H  H118  1  0.86989176  0.37758135  0.62781359  1
  H  H119  1  0.87078334  0.72003412  0.61889044  1
  H  H120  1  0.12654703  0.11756010  0.37993553  1
  H  H121  1  0.13059662  0.43763668  0.40179312  1
  H  H122  1  0.13314951  0.77974902  0.40458968  1
  H  H123  1  0.62427069  0.11678424  0.38532383  1
  H  H124  1  0.62876330  0.44344736  0.39402760  1
  H  H125  1  0.63122099  0.77933035  0.39696407  1
  H  H126  1  0.41035339  0.22210721  0.90096067  1
  H  H127  1  0.36880558  0.55445394  0.90820200  1
  H  H128  1  0.37395324  0.88073044  0.87335843  1
  H  H129  1  0.88953723  0.21362714  0.87655689  1
  H  H130  1  0.87221600  0.55172222  0.87421681  1
  H  H131  1  0.88101601  0.89086414  0.89512172  1
  H  H132  1  0.38570564  0.11199162  0.11260080  1
  H  H133  1  0.37036383  0.44789251  0.10687098  1
  H  H134  1  0.37930884  0.78259158  0.10528327  1
  H  H135  1  0.87914476  0.11673555  0.12980299  1
  H  H136  1  0.86689685  0.44446579  0.09712404  1
  H  H137  1  0.87687910  0.78158093  0.12242889  1
  H  H138  1  0.12711027  0.22208631  0.59506789  1
  H  H139  1  0.12721942  0.55737418  0.60881178  1
  H  H140  1  0.13043511  0.88690623  0.60619878  1
  H  H141  1  0.62976766  0.21099997  0.62828335  1
  H  H142  1  0.62454463  0.55041621  0.61153506  1
  H  H143  1  0.63860039  0.88973274  0.60023292  1
  H  H144  1  0.32228808  0.77217205  -0.00125053  1
  H  H145  1  0.04731390  0.75152833  1.00738824  1
  H  H146  1  0.13530835  0.57568299  -0.01566217  1
  H  H147  1  0.86591782  0.08799321  1.01504297  1
  H  H148  1  0.72329944  0.25096578  1.00860578  1
  H  H149  1  0.83499451  0.54685245  0.50203487  1
  H  H150  1  0.54131081  0.91295597  0.50412631  1
  H  H151  1  0.42989185  0.58128641  0.49932841  1
  H  H152  1  0.58496914  0.61215292  0.49891137  1
  H  H153  1  0.39284134  0.08507831  0.98593825  1
  H  H154  1  0.55838989  0.78861068  0.96711608  1
  H  H155  1  0.70461517  0.74031307  -0.00601271  1
  H  H156  1  0.43136698  0.56161206  0.02360683  1
  H  H157  1  0.92543517  0.61198995  0.49239577  1
  H  H158  1  0.59487269  0.25092605  0.49884141  1
  H  H159  1  0.20393335  0.40595499  0.49908000  1
  H  H160  1  0.42653229  0.24918605  0.50383440  1
  H  H161  1  0.21689015  0.26063054  1.02318169  1
  H  H162  1  0.55875514  0.56984015  0.01116303  1
  H  H163  1  0.09709765  0.08102267  0.50308649  1
  H  H164  1  0.79702107  0.41509027  -0.00399146  1
  H  H165  1  0.70744443  0.08075576  -0.00854271  1
  H  H166  1  0.70248600  0.58874791  1.00603424  1
  H  H167  1  0.87347370  0.25007802  0.98488342  1
  H  H168  1  0.88856915  0.40466777  0.51338340  1
  H  H169  1  0.35846936  0.75676539  0.49518536  1
  H  H170  1  0.05548155  0.08781325  1.00363049  1
  H  H171  1  0.54587026  0.07900140  1.00365794  1
  H  H172  1  0.31476080  0.59877470  0.51744683  1
  H  H173  1  0.68806308  0.74749198  0.50512235  1
  H  H174  1  0.05333577  0.59847223  0.50029461  1
  H  H175  1  0.70009658  0.92047708  0.49212833  1
  H  H176  1  0.21523823  0.92110157  1.00668623  1
  H  H177  1  0.80688242  0.08410343  0.50170308  1
  H  H178  1  0.29261435  0.58336760  1.01067671  1
  H  H179  1  0.40162566  0.92439548  1.00080357  1
  H  H180  1  0.68042123  0.92680007  0.98935909  1
  H  H181  1  0.51699659  0.24662877  -0.02607614  1
  H  H182  1  0.83392886  0.90751857  0.99957040  1
  H  H183  1  0.95608282  0.42563221  1.00339431  1
  H  H184  1  0.18897522  0.58655087  0.50865418  1
  H  H185  1  0.67487284  0.54635286  0.49690663  1
  H  H186  1  0.44488192  0.71634574  0.99985279  1
  H  H187  1  0.17257869  0.74295063  0.00592227  1
  H  H188  1  0.04787743  0.41075765  0.49336033  1
  H  H189  1  0.59658031  0.08621495  0.50689522  1
  H  H190  1  0.84436076  0.75740234  0.49389789  1
  H  H191  1  0.35766554  0.42028734  0.48539484  1
  Pb  Pb192  1  0.24911516  0.04734115  0.74878076  1
  Pb  Pb193  1  0.24878068  0.38175001  0.73814149  1
  Pb  Pb194  1  0.25136378  0.71900162  0.75355366  1
  Pb  Pb195  1  0.75425904  0.05184666  0.74716445  1
  Pb  Pb196  1  0.75046273  0.38132691  0.75944607  1
  Pb  Pb197  1  0.74531068  0.71460191  0.74566725  1
  Pb  Pb198  1  0.24791742  0.28682644  0.25969161  1
  Pb  Pb199  1  0.24877266  0.61778276  0.25825113  1
  Pb  Pb200  1  0.24238884  0.95098518  0.24340795  1
  Pb  Pb201  1  0.74108703  0.28327820  0.23683739  1
  Pb  Pb202  1  0.75043101  0.62003170  0.24664680  1
  Pb  Pb203  1  0.74877656  0.95098512  0.24886608  1
  Pb  Pb204  1  0.00711606  0.21476803  0.74394802  1
  Pb  Pb205  1  -0.00059195  0.54980399  0.73904224  1
  Pb  Pb206  1  0.00075849  0.88154599  0.75828698  1
  Pb  Pb207  1  0.49867385  0.21365698  0.74964493  1
  Pb  Pb208  1  0.49806063  0.54697907  0.76011110  1
  Pb  Pb209  1  0.50656653  0.88448664  0.74332218  1
  Pb  Pb210  1  0.00066055  0.11983596  0.25023399  1
  Pb  Pb211  1  -0.00497826  0.44909830  0.24807883  1
  Pb  Pb212  1  0.00292332  0.78676049  0.25360980  1
  Pb  Pb213  1  0.49621015  0.11496148  0.24881389  1
  Pb  Pb214  1  0.50123609  0.45167137  0.24852401  1
  Pb  Pb215  1  0.50085978  0.78524039  0.24052754  1
  C  C216  1  0.00193715  0.04314021  0.62909580  1
  C  C217  1  -0.00222165  0.37601363  0.63483379  1
  C  C218  1  -0.00178497  0.71524165  0.62881927  1
  C  C219  1  0.50336834  0.04425262  0.62601575  1
  C  C220  1  0.49920923  0.37592971  0.63471308  1
  C  C221  1  0.49221902  0.71057697  0.63425880  1
  C  C222  1  -0.01628166  0.28820779  0.13161783  1
  C  C223  1  -0.00481757  0.62202978  0.13040517  1
  C  C224  1  -0.00969959  0.95632680  0.13041674  1
  C  C225  1  0.45980136  0.28398240  0.11366783  1
  C  C226  1  0.50258084  0.61631867  0.13483161  1
  C  C227  1  0.49714333  0.95327790  0.12901714  1
  C  C228  1  0.00218592  0.04410163  0.86710853  1
  C  C229  1  0.00376390  0.37655398  0.86781261  1
  C  C230  1  -0.00120296  0.71039502  0.86704668  1
  C  C231  1  0.49844878  0.04091948  0.86831377  1
  C  C232  1  0.50462379  0.37854022  0.86841707  1
  C  C233  1  0.49378486  0.71046428  0.86739741  1
  C  C234  1  0.00067236  0.28910444  0.37210122  1
  C  C235  1  -0.00009106  0.62853192  0.36947903  1
  C  C236  1  -0.00837056  0.95598522  0.37352304  1
  C  C237  1  0.50080235  0.28950996  0.37054159  1
  C  C238  1  0.49740559  0.62368548  0.36501673  1
  C  C239  1  0.49626207  0.95655020  0.37023311  1
  C  C240  1  0.24693434  0.20915672  0.62833596  1
  C  C241  1  0.25031532  0.55407862  0.63623385  1
  C  C242  1  0.25522769  0.87940343  0.62849298  1
  C  C243  1  0.75729386  0.21098948  0.62474683  1
  C  C244  1  0.74792787  0.54747990  0.63684447  1
  C  C245  1  0.75900446  0.87976507  0.63002622  1
  C  C246  1  0.26115106  0.12339340  0.13615907  1
  C  C247  1  0.24595349  0.45674688  0.13024815  1
  C  C248  1  0.25678307  0.78948547  0.13283056  1
  C  C249  1  0.75168771  0.11861036  0.13319218  1
  C  C250  1  0.74741631  0.45640116  0.13006299  1
  C  C251  1  0.74874465  0.78705091  0.13134784  1
  C  C252  1  0.28377483  0.21665958  0.88834374  1
  C  C253  1  0.25302020  0.54193906  0.86906852  1
  C  C254  1  0.24561457  0.87955499  0.86905411  1
  C  C255  1  0.76103197  0.21147667  0.87091311  1
  C  C256  1  0.74358441  0.54623108  0.86666804  1
  C  C257  1  0.75803361  0.87826961  0.87093790  1
  C  C258  1  0.25417719  0.12342899  0.36692262  1
  C  C259  1  0.24807834  0.45045089  0.36494434  1
  C  C260  1  0.25313056  0.79127862  0.37172438  1
  C  C261  1  0.75054867  0.12789190  0.37099114  1
  C  C262  1  0.75073027  0.45428774  0.36430195  1
  C  C263  1  0.75390614  0.79088960  0.37061127  1
  C  C264  1  0.93841943  0.26413464  0.03983174  1
  C  C265  1  0.76276845  0.24082221  0.52894861  1
  C  C266  1  0.43947958  0.07414785  0.95246563  1
  C  C267  1  0.52781559  0.92959194  0.03261979  1
  C  C268  1  0.47413559  0.07928807  0.53251770  1
  C  C269  1  0.79379471  0.55096104  0.54065984  1
  C  C270  1  0.93819356  0.92044382  0.04490354  1
  C  C271  1  0.29925118  0.24183957  0.54183313  1
  C  C272  1  0.73578566  0.09226684  0.03527638  1
  C  C273  1  0.01785557  0.73818959  0.96466844  1
  C  C274  1  0.30996519  0.42832096  0.45189978  1
  C  C275  1  0.44522288  0.74248047  0.54560537  1
  C  C276  1  0.98571040  0.41171542  0.96083607  1
  C  C277  1  0.95671806  0.92348793  0.46514019  1
  C  C278  1  0.01794599  0.40013768  0.53670540  1
  C  C279  1  0.93790010  0.73306608  0.95436348  1
  C  C280  1  0.02443533  0.07541960  0.96112347  1
  C  C281  1  0.18573144  0.56735380  0.95329249  1
  C  C282  1  0.81640091  0.09587526  0.04700689  1
  C  C283  1  0.01714081  0.75043043  0.53530807  1
  C  C284  1  0.72217733  0.76013488  0.46416902  1
  C  C285  1  0.54503000  0.60859176  0.45936628  1
  C  C286  1  0.69024204  0.42031810  0.04500637  1
  C  C287  1  0.46632844  0.26053579  0.46488668  1
  C  C288  1  0.28217090  0.42166263  0.04029306  1
  C  C289  1  0.93686368  0.39677298  0.54648975  1
  C  C290  1  0.26589414  0.57087407  0.96659510  1
  C  C291  1  0.02965244  0.25143004  0.46248257  1
  C  C292  1  0.21140504  0.75984942  0.04231060  1
  C  C293  1  0.72964723  0.57601531  0.96214684  1
  C  C294  1  0.21723716  0.90887687  0.53691150  1
  C  C295  1  0.40076508  0.25901486  0.02402571  1
  C  C296  1  0.33660616  0.24600995  0.97882050  1
  C  C297  1  0.68482686  0.23654105  0.54402633  1
  C  C298  1  0.25356092  0.24788570  0.98367696  1
  C  C299  1  0.48343540  0.25656149  0.01616275  1
  C  C300  1  0.81453757  0.90724300  0.54147137  1
  C  C301  1  0.97095186  0.07314545  0.53481580  1
  C  C302  1  0.97037552  0.58941359  0.03677572  1
  C  C303  1  0.46402153  0.59929953  0.46091450  1
  C  C304  1  0.73305037  0.75449644  0.03695282  1
  C  C305  1  0.71174716  0.55033167  0.53815516  1
  C  C306  1  0.22882244  0.76330222  0.46773735  1
  C  C307  1  0.05225397  0.07108001  0.53836808  1
  C  C308  1  0.73330605  0.90874008  0.53383023  1
  C  C309  1  0.54854183  0.26174847  0.46200353  1
  C  C310  1  0.44651353  0.93220491  0.03662823  1
  C  C311  1  0.30981511  0.76542112  0.46104990  1
  N  N312  1  0.22455620  0.09436975  0.04294084  1
  N  N313  1  0.22229617  0.24480234  0.53398998  1
  N  N314  1  0.45767144  0.74032980  0.96039189  1
  N  N315  1  0.80764396  0.57374279  0.95216215  1
  N  N316  1  0.01609331  0.26194356  0.03534688  1
  N  N317  1  0.55281739  0.07726354  0.53938397  1
  N  N318  1  0.03398306  0.92293967  0.46503604  1
  N  N319  1  0.21364777  0.55593583  0.53874678  1
  N  N320  1  0.74784094  0.24689700  0.96358275  1
  N  N321  1  0.69799950  0.09386812  0.45769669  1
  N  N322  1  0.29441427  0.90999488  0.53528014  1
  N  N323  1  0.80158193  0.76131675  0.45914516  1
  N  N324  1  0.71570353  0.89848567  0.96377684  1
  N  N325  1  0.45675689  0.40873968  0.54428822  1
  N  N326  1  0.51842092  0.07566823  0.96109211  1
  N  N327  1  0.19997339  0.09302576  0.45427500  1
  N  N328  1  0.51576413  0.92040839  0.46107703  1
  N  N329  1  0.01529010  0.91802258  0.03713591  1
  N  N330  1  0.31352286  0.90661906  0.95158003  1
  N  N331  1  0.29086271  0.76467763  0.03878325  1
  N  N332  1  0.79637104  0.42450706  0.45482900  1
  N  N333  1  0.52225941  0.74361011  0.53953242  1
  N  N334  1  0.23734977  0.91297843  0.96224425  1
  N  N335  1  0.20492997  0.42129181  0.03934721  1
  N  N336  1  0.94572507  0.07416818  0.95448982  1
  N  N337  1  0.77615443  0.09156607  0.46105384  1
  N  N338  1  0.95259554  0.25256451  0.46028816  1
  N  N339  1  0.27536503  0.08973673  0.46125141  1
  N  N340  1  0.72062072  0.42407162  0.45860442  1
  N  N341  1  0.30077975  0.09479612  0.04363715  1
  N  N342  1  0.03137517  0.58598352  0.45740992  1
  N  N343  1  0.29655640  0.56114818  0.54094381  1
  N  N344  1  0.81134506  0.75736609  0.04594997  1
  N  N345  1  0.46170724  0.40560397  0.96067068  1
  N  N346  1  0.94021331  0.74731703  0.54226107  1
  N  N347  1  0.53284402  0.40861030  0.54202305  1
  N  N348  1  0.45260871  0.60103487  0.04176044  1
  N  N349  1  0.43845242  0.92226673  0.45449115  1
  N  N350  1  0.79449060  0.91091445  0.96135580  1
  N  N351  1  0.53580386  0.60427435  0.03730305  1
  N  N352  1  0.53788931  0.40566380  0.96303194  1
  N  N353  1  0.94865212  0.59005313  0.45447509  1
  N  N354  1  0.04734672  0.59136871  0.04141333  1
  N  N355  1  0.06404513  0.40980142  0.95282612  1
  N  N356  1  0.76855305  0.42144750  0.03779320  1
  N  N357  1  0.82412859  0.23441348  0.95507807  1
  N  N358  1  0.54061113  0.74637791  0.95493092  1
  N  N359  1  0.23138233  0.42498886  0.46125946  1
  N  N360  1  0.07018284  0.05232945  0.59816467  1
  N  N361  1  0.05454706  0.38730642  0.59225076  1
  N  N362  1  0.05481673  0.73085847  0.58701537  1
  N  N363  1  0.57141431  0.05487512  0.59664013  1
  N  N364  1  0.56067435  0.38798699  0.59766530  1
  N  N365  1  0.55180071  0.72342223  0.59622584  1
  N  N366  1  0.38900609  0.27624585  0.08573038  1
  N  N367  1  0.43579427  0.60932113  0.10286043  1
  N  N368  1  0.42858986  0.94673852  0.09769356  1
  N  N369  1  0.91596844  0.27988031  0.09875377  1
  N  N370  1  0.93593259  0.60787673  0.09028665  1
  N  N371  1  0.92077854  0.94322359  0.10189193  1
  N  N372  1  0.42727203  0.05431013  0.89438393  1
  N  N373  1  0.43952287  0.38861757  0.90225898  1
  N  N374  1  0.43312263  0.71313319  0.90682401  1
  N  N375  1  0.93331204  0.05471085  0.89571476  1
  N  N376  1  0.94699631  0.39177779  0.90897122  1
  N  N377  1  0.92672483  0.71689711  0.89542529  1
  N  N378  1  0.06212362  0.27324393  0.40948640  1
  N  N379  1  0.05980333  0.61554068  0.40743388  1
  N  N380  1  0.05614234  0.94368266  0.40679982  1
  N  N381  1  0.56800204  0.27945904  0.40299948  1
  N  N382  1  0.56470786  0.62242054  0.39929298  1
  N  N383  1  0.55287088  0.94359990  0.41119398  1
  N  N384  1  0.31676698  0.22073811  0.59913744  1
  N  N385  1  0.31579165  0.56011956  0.60222569  1
  N  N386  1  0.31852846  0.89114996  0.59364655  1
  N  N387  1  0.80740740  0.22539105  0.57782047  1
  N  N388  1  0.81481708  0.54965996  0.60231725  1
  N  N389  1  0.82911418  0.88997454  0.59983082  1
  N  N390  1  0.19857896  0.11219950  0.09991657  1
  N  N391  1  0.18196008  0.44358593  0.09665565  1
  N  N392  1  0.19029713  0.77397455  0.10072494  1
  N  N393  1  0.69674885  0.10656249  0.08944562  1
  N  N394  1  0.67695417  0.44137975  0.10228579  1
  N  N395  1  0.69297744  0.77287758  0.08884441  1
  N  N396  1  0.22325471  0.22955165  0.92741456  1
  N  N397  1  0.17937693  0.55003428  0.89275351  1
  N  N398  1  0.19436083  0.89366604  0.91352078  1
  N  N399  1  0.70818212  0.22430503  0.91502804  1
  N  N400  1  0.68857196  0.55924079  0.91014106  1
  N  N401  1  0.69301481  0.88996230  0.90394953  1
  N  N402  1  0.31060484  0.10894415  0.40751913  1
  N  N403  1  0.32045006  0.44519875  0.39253558  1
  N  N404  1  0.32336393  0.78248690  0.39990342  1
  N  N405  1  0.80948001  0.11448264  0.40958348  1
  N  N406  1  0.81682887  0.44346143  0.39654492  1
  N  N407  1  0.82082631  0.78218914  0.40222213  1
  N  N408  1  0.43830763  0.27750738  0.40749474  1
  N  N409  1  0.43543507  0.60942504  0.40187594  1
  N  N410  1  0.42670651  0.94315974  0.39737651  1
  N  N411  1  0.93415629  0.27663976  0.40285089  1
  N  N412  1  0.93255815  0.61671195  0.39920627  1
  N  N413  1  0.92788927  0.94304405  0.40973975  1
  N  N414  1  0.06039770  0.05731759  0.90781422  1
  N  N415  1  0.07358477  0.38768392  0.89506429  1
  N  N416  1  0.05523733  0.72374755  0.90883989  1
  N  N417  1  0.55464339  0.05160609  0.91028585  1
  N  N418  1  0.56602984  0.38894823  0.90595910  1
  N  N419  1  0.55823770  0.73132588  0.89549626  1
  N  N420  1  0.04354813  0.27738012  0.09332195  1
  N  N421  1  0.06325726  0.61181737  0.10078006  1
  N  N422  1  0.04769380  0.94135459  0.09128243  1
  N  N423  1  0.51753150  0.27179345  0.07205618  1
  N  N424  1  0.56323656  0.60861478  0.09616433  1
  N  N425  1  0.55789850  0.94207010  0.08864061  1
  N  N426  1  0.44333506  0.05901474  0.58605765  1
  N  N427  1  0.43443084  0.38930114  0.60201963  1
  N  N428  1  0.42405404  0.72300265  0.60305045  1
  N  N429  1  0.94077060  0.05646742  0.58957734  1
  N  N430  1  0.92600587  0.38200497  0.60741579  1
  N  N431  1  0.92838620  0.72549291  0.60193081  1
  N  N432  1  0.18512750  0.11405562  0.39584841  1
  N  N433  1  0.19328450  0.43679037  0.40692965  1
  N  N434  1  0.19462215  0.77872726  0.41394818  1
  N  N435  1  0.68308515  0.11411577  0.40062615  1
  N  N436  1  0.69063560  0.44280197  0.40271347  1
  N  N437  1  0.69219594  0.77756110  0.40891078  1
  N  N438  1  0.35256674  0.22675784  0.91835301  1
  N  N439  1  0.30668787  0.55513044  0.91341271  1
  N  N440  1  0.31831297  0.88797820  0.89296806  1
  N  N441  1  0.83293658  0.22063930  0.89523007  1
  N  N442  1  0.81448143  0.55551752  0.89275921  1
  N  N443  1  0.82059300  0.88844516  0.90723108  1
  N  N444  1  0.32501203  0.11307208  0.10118858  1
  N  N445  1  0.31025355  0.44258933  0.09514759  1
  N  N446  1  0.31837342  0.78593024  0.09433092  1
  N  N447  1  0.82461965  0.11198353  0.10768296  1
  N  N448  1  0.80486875  0.44561060  0.08930227  1
  N  N449  1  0.81926057  0.77729777  0.10465015  1
  N  N450  1  0.18948158  0.22384304  0.58899084  1
  N  N451  1  0.18830642  0.55722850  0.59824827  1
  N  N452  1  0.19026569  0.89049992  0.59292688  1
  N  N453  1  0.68169079  0.21842204  0.60328874  1
  N  N454  1  0.68460341  0.54866967  0.59831496  1
  N  N455  1  0.69971710  0.89138070  0.59006178  1
  Cl  Cl456  1  0.26059635  0.05048538  0.62088854  1
  Cl  Cl457  1  0.24342800  0.38989004  0.60069022  1
  Cl  Cl458  1  0.23951970  0.71483241  0.61993389  1
  Cl  Cl459  1  0.75811651  0.05833994  0.60897323  1
  Cl  Cl460  1  0.74242514  0.38157066  0.62955280  1
  Cl  Cl461  1  0.73832448  0.72302768  0.61088347  1
  Cl  Cl462  1  0.21871794  0.28074872  0.12642305  1
  Cl  Cl463  1  0.25314728  0.61040982  0.12399261  1
  Cl  Cl464  1  0.23350592  0.93887772  0.10299398  1
  Cl  Cl465  1  0.71132594  0.27317856  0.09772251  1
  Cl  Cl466  1  0.74707617  0.60827112  0.11055676  1
  Cl  Cl467  1  0.73921980  0.93896629  0.11156842  1
  Cl  Cl468  1  0.24409563  0.05490121  0.88341873  1
  Cl  Cl469  1  0.25818952  0.38873996  0.86938332  1
  Cl  Cl470  1  0.24942635  0.73068995  0.89437256  1
  Cl  Cl471  1  0.73797936  0.05318010  0.88297781  1
  Cl  Cl472  1  0.75854571  0.39179246  0.89894775  1
  Cl  Cl473  1  0.74035134  0.72283446  0.88087686  1
  Cl  Cl474  1  0.25039301  0.28358456  0.38734390  1
  Cl  Cl475  1  0.24435289  0.61345685  0.40274573  1
  Cl  Cl476  1  0.24255663  0.94496159  0.37412089  1
  Cl  Cl477  1  0.75161074  0.27760685  0.36783356  1
  Cl  Cl478  1  0.75024005  0.61441717  0.37925721  1
  Cl  Cl479  1  0.73768657  0.94421174  0.38418742  1
  Cl  Cl480  1  0.00098760  0.22071267  0.60846111  1
  Cl  Cl481  1  0.00540764  0.57113469  0.60112384  1
  Cl  Cl482  1  0.00926600  0.88320862  0.62748781  1
  Cl  Cl483  1  0.49546230  0.21065936  0.62218770  1
  Cl  Cl484  1  0.49857547  0.56050206  0.62588124  1
  Cl  Cl485  1  0.51141005  0.89400106  0.60483178  1
  Cl  Cl486  1  0.01646077  0.10814638  0.11629520  1
  Cl  Cl487  1  -0.01039578  0.44505221  0.11229024  1
  Cl  Cl488  1  0.00724133  0.77807234  0.12136095  1
  Cl  Cl489  1  0.51206395  0.10415576  0.10684941  1
  Cl  Cl490  1  0.49330055  0.46140001  0.11570270  1
  Cl  Cl491  1  0.50394218  0.77100570  0.10172047  1
  Cl  Cl492  1  0.01797870  0.21781622  0.87445929  1
  Cl  Cl493  1  -0.00393900  0.55394884  0.86586290  1
  Cl  Cl494  1  0.00702476  0.89622167  0.89032756  1
  Cl  Cl495  1  0.53247398  0.21487476  0.88352244  1
  Cl  Cl496  1  0.49836863  0.55639774  0.90210439  1
  Cl  Cl497  1  0.51000651  0.87903966  0.87891580  1
  Cl  Cl498  1  -0.00632584  0.11048150  0.38365676  1
  Cl  Cl499  1  0.00790992  0.44137467  0.38481626  1
  Cl  Cl500  1  0.00680964  0.77541350  0.38768807  1
  Cl  Cl501  1  0.49826619  0.10629915  0.38401783  1
  Cl  Cl502  1  0.50632830  0.44360251  0.37970309  1
  Cl  Cl503  1  0.51043262  0.78216806  0.37072178  1
  Cl  Cl504  1  0.36277493  0.14701477  0.76256800  1
  Cl  Cl505  1  0.35756506  0.48458316  0.74231899  1
  Cl  Cl506  1  0.36072784  0.81167720  0.75122162  1
  Cl  Cl507  1  0.86083844  0.14410668  0.76012134  1
  Cl  Cl508  1  0.86377441  0.48025122  0.74695589  1
  Cl  Cl509  1  0.86191318  0.81198275  0.75210089  1
  Cl  Cl510  1  0.14330787  0.18149376  0.25797549  1
  Cl  Cl511  1  0.14530983  0.51696766  0.24878357  1
  Cl  Cl512  1  0.14771956  0.84721354  0.24927345  1
  Cl  Cl513  1  0.64819309  0.18044661  0.25147366  1
  Cl  Cl514  1  0.64240256  0.51657524  0.24392437  1
  Cl  Cl515  1  0.64326395  0.84672201  0.24923987  1
  Cl  Cl516  1  0.14491106  0.15232436  0.74537753  1
  Cl  Cl517  1  0.13601692  0.48266171  0.74443684  1
  Cl  Cl518  1  0.14148443  0.81916956  0.75519357  1
  Cl  Cl519  1  0.64087255  0.15160797  0.74223327  1
  Cl  Cl520  1  0.63949511  0.48347465  0.75148273  1
  Cl  Cl521  1  0.64435225  0.82115999  0.75177645  1
  Cl  Cl522  1  0.36672753  0.18956284  0.25095519  1
  Cl  Cl523  1  0.36784437  0.52241780  0.26137387  1
  Cl  Cl524  1  0.36640929  0.85676261  0.24821555  1
  Cl  Cl525  1  0.87028068  0.19328546  0.23213105  1
  Cl  Cl526  1  0.86334550  0.52045589  0.25602740  1
  Cl  Cl527  1  0.86322801  0.85179394  0.24834183  1
  Cl  Cl528  1  0.10966742  0.31863558  0.75170843  1
  Cl  Cl529  1  0.10580264  0.64975758  0.74864125  1
  Cl  Cl530  1  0.10513219  0.98601952  0.74611306  1
  Cl  Cl531  1  0.61057583  0.31484007  0.75416702  1
  Cl  Cl532  1  0.60333966  0.65156793  0.75507243  1
  Cl  Cl533  1  0.60330788  0.98432232  0.74522907  1
  Cl  Cl534  1  0.38959123  0.02260845  0.24308848  1
  Cl  Cl535  1  0.38704327  0.35285586  0.24431882  1
  Cl  Cl536  1  0.38374823  0.68789794  0.24127661  1
  Cl  Cl537  1  0.88081458  0.02377259  0.24519062  1
  Cl  Cl538  1  0.88735441  0.35556122  0.24881986  1
  Cl  Cl539  1  0.89057857  0.68617397  0.25214808  1
  Cl  Cl540  1  0.38852296  0.31478827  0.74760543  1
  Cl  Cl541  1  0.38275956  0.64604630  0.75552569  1
  Cl  Cl542  1  0.38505508  0.97835529  0.75592338  1
  Cl  Cl543  1  0.88558680  0.31102819  0.75370370  1
  Cl  Cl544  1  0.88041018  0.64595715  0.73884109  1
  Cl  Cl545  1  0.88232375  0.97831160  0.75390495  1
  Cl  Cl546  1  0.10234829  0.01259652  0.25147685  1
  Cl  Cl547  1  0.10747656  0.34906295  0.25271146  1
  Cl  Cl548  1  0.11151537  0.68337757  0.24660146  1
  Cl  Cl549  1  0.60791190  0.01418490  0.24862441  1
  Cl  Cl550  1  0.60324153  0.34573136  0.23839587  1
  Cl  Cl551  1  0.60638444  0.68036817  0.24832227  1
