# generated using pymatgen
data_H8PbC4(N3Cl2)2
_symmetry_space_group_name_H-M   'P 1'
_cell_length_a   16.62031280
_cell_length_b   22.49912741
_cell_length_c   21.58813985
_cell_angle_alpha   90.00034743
_cell_angle_beta   90.00317401
_cell_angle_gamma   90.00120334
_symmetry_Int_Tables_number   1
_chemical_formula_structural   H8PbC4(N3Cl2)2
_chemical_formula_sum   'H192 Pb24 C96 N144 Cl96'
_cell_volume   8072.72372884
_cell_formula_units_Z   24
loop_
 _symmetry_equiv_pos_site_id
 _symmetry_equiv_pos_as_xyz
  1  'x, y, z'
loop_
 _atom_site_type_symbol
 _atom_site_label
 _atom_site_symmetry_multiplicity
 _atom_site_fract_x
 _atom_site_fract_y
 _atom_site_fract_z
 _atom_site_occupancy
  H  H0  1  0.00262271  0.03360048  0.68061537  1
  H  H1  1  0.00156068  0.36469780  0.68109659  1
  H  H2  1  -0.00635842  0.69962686  0.68260091  1
  H  H3  1  0.49962905  0.03211142  0.68341914  1
  H  H4  1  0.49793026  0.36499933  0.68146187  1
  H  H5  1  0.50047616  0.69879761  0.68120357  1
  H  H6  1  0.00253430  0.30040900  0.18000360  1
  H  H7  1  -0.00114497  0.63427252  0.18205685  1
  H  H8  1  -0.00210915  0.96719215  0.18445988  1
  H  H9  1  0.50405831  0.30023712  0.18138960  1
  H  H10  1  0.49901566  0.63439071  0.18048584  1
  H  H11  1  0.50846637  0.96688499  0.18402833  1
  H  H12  1  0.00368738  0.03335644  0.81955326  1
  H  H13  1  0.00040343  0.36636582  0.81761671  1
  H  H14  1  0.00234811  0.69937152  0.82062163  1
  H  H15  1  0.49595426  0.03263592  0.81882673  1
  H  H16  1  0.50140837  0.36610994  0.81938775  1
  H  H17  1  0.50236105  0.69890736  0.81678088  1
  H  H18  1  -0.00104818  0.30143887  0.31986276  1
  H  H19  1  0.00044566  0.63373801  0.31740718  1
  H  H20  1  0.00039435  0.96935608  0.31821349  1
  H  H21  1  0.50600541  0.29948147  0.32100265  1
  H  H22  1  0.49744730  0.63464327  0.32212005  1
  H  H23  1  0.50022820  0.96784081  0.31903797  1
  H  H24  1  0.25168071  0.19957310  0.68083526  1
  H  H25  1  0.24349147  0.53271520  0.68178518  1
  H  H26  1  0.24233623  0.86531745  0.67978388  1
  H  H27  1  0.74793632  0.20000830  0.68075852  1
  H  H28  1  0.75759007  0.53297979  0.67932245  1
  H  H29  1  0.75843812  0.86616839  0.68024864  1
  H  H30  1  0.25447538  0.13321628  0.18074444  1
  H  H31  1  0.24623498  0.46733307  0.17909160  1
  H  H32  1  0.25480144  0.80034727  0.18310295  1
  H  H33  1  0.74946338  0.13559073  0.18048288  1
  H  H34  1  0.75082368  0.46802422  0.18278940  1
  H  H35  1  0.74563833  0.79903761  0.17916374  1
  H  H36  1  0.24620398  0.19952826  0.81914697  1
  H  H37  1  0.25092353  0.53175123  0.81893988  1
  H  H38  1  0.24534851  0.86602465  0.81596576  1
  H  H39  1  0.75019549  0.20007665  0.81972682  1
  H  H40  1  0.75105366  0.53208765  0.82037134  1
  H  H41  1  0.75179220  0.86434489  0.81819264  1
  H  H42  1  0.24955777  0.13474606  0.31820130  1
  H  H43  1  0.25398005  0.46577751  0.31954422  1
  H  H44  1  0.25128825  0.80041828  0.31980066  1
  H  H45  1  0.74933197  0.13447356  0.31818177  1
  H  H46  1  0.75254508  0.46637856  0.31775331  1
  H  H47  1  0.75235237  0.80055076  0.31733496  1
  H  H48  1  0.12150958  0.05581913  0.60385530  1
  H  H49  1  0.12609877  0.38719083  0.61116114  1
  H  H50  1  0.12790034  0.71967456  0.61977853  1
  H  H51  1  0.62381435  0.05357539  0.61026307  1
  H  H52  1  0.62520634  0.38576100  0.61230892  1
  H  H53  1  0.62513376  0.72119176  0.60822035  1
  H  H54  1  0.37367086  0.27995479  0.11451793  1
  H  H55  1  0.37494229  0.61136365  0.11055825  1
  H  H56  1  0.37309961  0.94882306  0.12113837  1
  H  H57  1  0.87045318  0.27990467  0.11674896  1
  H  H58  1  0.87454026  0.61353704  0.10944977  1
  H  H59  1  0.87404586  0.94579307  0.11438913  1
  H  H60  1  0.37982869  0.05786238  0.89672920  1
  H  H61  1  0.37228295  0.38686937  0.88663097  1
  H  H62  1  0.37580037  0.71998290  0.88764880  1
  H  H63  1  0.87473373  0.05467810  0.88731256  1
  H  H64  1  0.87471809  0.38572475  0.88839910  1
  H  H65  1  0.87375900  0.72189078  0.88665066  1
  H  H66  1  0.12802256  0.28020914  0.38780059  1
  H  H67  1  0.12491192  0.61085246  0.38935166  1
  H  H68  1  0.12540842  0.94708183  0.38775797  1
  H  H69  1  0.62370187  0.27838789  0.39559222  1
  H  H70  1  0.62568194  0.61226966  0.38926399  1
  H  H71  1  0.62504367  0.94614159  0.38829066  1
  H  H72  1  0.37056241  0.22108224  0.60721757  1
  H  H73  1  0.37749507  0.55159373  0.62192948  1
  H  H74  1  0.37728427  0.88455507  0.62088546  1
  H  H75  1  0.87403799  0.22114368  0.60986983  1
  H  H76  1  0.86759749  0.55722555  0.59640726  1
  H  H77  1  0.86934832  0.89190319  0.59818908  1
  H  H78  1  0.12185286  0.11407189  0.11773454  1
  H  H79  1  0.13044310  0.44306105  0.10045984  1
  H  H80  1  0.12611738  0.77945331  0.11429987  1
  H  H81  1  0.62569747  0.11301586  0.10774818  1
  H  H82  1  0.62668747  0.44578988  0.10972488  1
  H  H83  1  0.62998530  0.77759120  0.10333416  1
  H  H84  1  0.12950102  0.22352402  0.89718835  1
  H  H85  1  0.12838469  0.55423501  0.89171709  1
  H  H86  1  0.12920060  0.88782456  0.89236981  1
  H  H87  1  0.62691264  0.22108995  0.89160830  1
  H  H88  1  0.62413687  0.55381509  0.89025494  1
  H  H89  1  0.62500000  0.88545746  0.88636671  1
  H  H90  1  0.37520564  0.11428656  0.38885505  1
  H  H91  1  0.37488766  0.44533120  0.39349213  1
  H  H92  1  0.37234212  0.77805897  0.39387823  1
  H  H93  1  0.87617551  0.11374021  0.38544357  1
  H  H94  1  0.87357158  0.44615818  0.38951703  1
  H  H95  1  0.87129824  0.77804312  0.39274136  1
  H  H96  1  0.37560957  0.28175442  0.38421115  1
  H  H97  1  0.37713736  0.61125563  0.39500691  1
  H  H98  1  0.37585504  0.94608911  0.38824200  1
  H  H99  1  0.87956646  0.27837067  0.39545673  1
  H  H100  1  0.87482722  0.61237703  0.38649177  1
  H  H101  1  0.87535743  0.94442660  0.38855186  1
  H  H102  1  0.12272916  0.05593314  0.89635886  1
  H  H103  1  0.12414618  0.38790578  0.89046343  1
  H  H104  1  0.12208402  0.71934954  0.89659862  1
  H  H105  1  0.62888983  0.05252512  0.88098702  1
  H  H106  1  0.62187688  0.38669392  0.89367534  1
  H  H107  1  0.62505617  0.72029575  0.88929075  1
  H  H108  1  0.11932283  0.27700912  0.10198020  1
  H  H109  1  0.12376985  0.61105897  0.11190368  1
  H  H110  1  0.12399402  0.94833354  0.11613587  1
  H  H111  1  0.62232308  0.27695948  0.10584866  1
  H  H112  1  0.62393178  0.61358582  0.10875187  1
  H  H113  1  0.62135643  0.94357533  0.10418529  1
  H  H114  1  0.37533782  0.05402588  0.61032300  1
  H  H115  1  0.37598125  0.38697013  0.60617680  1
  H  H116  1  0.37636673  0.72182905  0.60836165  1
  H  H117  1  0.87302531  0.05377486  0.61477401  1
  H  H118  1  0.87695076  0.38758642  0.60949416  1
  H  H119  1  0.87959803  0.72221528  0.60346791  1
  H  H120  1  0.12551403  0.11266873  0.39080743  1
  H  H121  1  0.12570522  0.44709130  0.38462693  1
  H  H122  1  0.12363848  0.77911183  0.38935602  1
  H  H123  1  0.62651491  0.11437545  0.38950925  1
  H  H124  1  0.62391167  0.44753418  0.38533622  1
  H  H125  1  0.62209204  0.77997249  0.38506366  1
  H  H126  1  0.37870104  0.21900259  0.88158291  1
  H  H127  1  0.37697200  0.55383752  0.88969154  1
  H  H128  1  0.37772835  0.88461782  0.87750241  1
  H  H129  1  0.87584550  0.22144371  0.89105907  1
  H  H130  1  0.87254298  0.55490309  0.89395619  1
  H  H131  1  0.87499174  0.88840093  0.89033020  1
  H  H132  1  0.37046257  0.11102129  0.10186120  1
  H  H133  1  0.37822057  0.44686634  0.11669809  1
  H  H134  1  0.37518385  0.77806007  0.10868807  1
  H  H135  1  0.87443972  0.11394194  0.11088169  1
  H  H136  1  0.87542449  0.44552993  0.10997829  1
  H  H137  1  0.87786193  0.78056141  0.11774637  1
  H  H138  1  0.12126998  0.21872667  0.61568954  1
  H  H139  1  0.12921820  0.55461187  0.60359615  1
  H  H140  1  0.13004231  0.89179565  0.59921117  1
  H  H141  1  0.62510338  0.22137354  0.60663564  1
  H  H142  1  0.62079652  0.55120971  0.62205928  1
  H  H143  1  0.62202420  0.88441228  0.62196249  1
  H  H144  1  0.44208203  0.07942200  1.00120561  1
  H  H145  1  0.16193344  0.41784236  0.49815505  1
  H  H146  1  0.32108480  0.75118502  0.00061144  1
  H  H147  1  0.58566694  0.58383571  0.49573896  1
  H  H148  1  0.79682064  0.58161774  0.49473735  1
  H  H149  1  0.67220380  0.08647252  0.49972643  1
  H  H150  1  0.57434015  0.74742985  0.99829050  1
  H  H151  1  0.82361297  0.24964117  0.50489003  1
  H  H152  1  0.05577216  0.25244061  -0.00231208  1
  H  H153  1  0.06393098  0.75609869  0.99497509  1
  H  H154  1  0.17047936  0.75115165  0.49457188  1
  H  H155  1  0.07340597  0.58959501  0.49643583  1
  H  H156  1  0.91018975  0.74258555  0.99383856  1
  H  H157  1  0.41684631  0.91781168  0.49901838  1
  H  H158  1  0.66991527  0.91026926  0.99956260  1
  H  H159  1  0.81301349  0.75119373  0.50147775  1
  H  H160  1  0.34600528  0.24923791  0.99352080  1
  H  H161  1  0.92242930  0.92793842  -0.00020912  1
  H  H162  1  0.59712158  0.08305133  0.99251847  1
  H  H163  1  0.57021785  0.41494529  1.00271254  1
  H  H164  1  0.35156084  0.57959804  0.50848895  1
  H  H165  1  0.07798444  0.92396603  0.50058124  1
  H  H166  1  0.19018814  0.57752124  0.49346799  1
  H  H167  1  0.82481191  0.41782469  0.50061220  1
  H  H168  1  0.58376085  0.91773966  0.49913462  1
  H  H169  1  0.81895358  0.89943139  0.99861691  1
  H  H170  1  0.31981554  0.25047369  0.49773284  1
  H  H171  1  0.08701061  0.25093638  0.49263338  1
  H  H172  1  0.79826821  0.91592359  0.49595999  1
  H  H173  1  0.92621913  0.92648669  0.49652096  1
  H  H174  1  0.32876559  0.58120999  0.99431823  1
  H  H175  1  0.32674297  0.08674052  0.49842643  1
  H  H176  1  0.55512974  0.91755594  -0.00287638  1
  H  H177  1  0.83854193  0.08590783  0.49698651  1
  H  H178  1  0.07524849  0.58279798  0.00264887  1
  H  H179  1  0.58162895  0.41292003  0.50240557  1
  H  H180  1  0.41087889  0.41370102  0.99339233  1
  H  H181  1  0.18834866  0.91012810  1.00367259  1
  H  H182  1  0.92014269  0.58580244  0.49857992  1
  H  H183  1  0.19892986  0.91630542  0.49648326  1
  H  H184  1  0.07924404  0.92761985  0.00124475  1
  H  H185  1  0.30588592  0.08407305  -0.00168661  1
  H  H186  1  0.91823538  0.08367805  0.99292610  1
  H  H187  1  0.67240363  0.58283209  0.99497671  1
  H  H188  1  0.19097307  0.24758912  1.00115102  1
  H  H189  1  0.94344741  0.74892997  0.49658808  1
  H  H190  1  0.92233575  0.41453553  0.99748941  1
  H  H191  1  0.34784141  0.91228448  0.99061601  1
  Pb  Pb192  1  0.25321882  0.04953767  0.75199691  1
  Pb  Pb193  1  0.24863083  0.38146057  0.74819498  1
  Pb  Pb194  1  0.25012564  0.71221738  0.74984742  1
  Pb  Pb195  1  0.74960375  0.04773074  0.74800953  1
  Pb  Pb196  1  0.75052991  0.37913841  0.74966970  1
  Pb  Pb197  1  0.75060966  0.71440995  0.74684347  1
  Pb  Pb198  1  0.24454132  0.28592767  0.24405493  1
  Pb  Pb199  1  0.25151951  0.61687646  0.24857539  1
  Pb  Pb200  1  0.25019647  0.95376349  0.25305311  1
  Pb  Pb201  1  0.75101308  0.28703575  0.25334586  1
  Pb  Pb202  1  0.74554014  0.61910695  0.25037045  1
  Pb  Pb203  1  0.74589484  0.95115019  0.24807060  1
  Pb  Pb204  1  -0.00029471  0.21442522  0.75318057  1
  Pb  Pb205  1  -0.00368974  0.54750402  0.74609243  1
  Pb  Pb206  1  0.00194535  0.88280766  0.74686046  1
  Pb  Pb207  1  0.50212961  0.21595933  0.74891157  1
  Pb  Pb208  1  0.50139690  0.54633144  0.75045347  1
  Pb  Pb209  1  0.50052003  0.87900715  0.75162147  1
  Pb  Pb210  1  -0.00319057  0.11945450  0.24806691  1
  Pb  Pb211  1  -0.00202158  0.45396582  0.24721512  1
  Pb  Pb212  1  0.00124991  0.78454102  0.24892262  1
  Pb  Pb213  1  0.49896226  0.12190992  0.24388079  1
  Pb  Pb214  1  0.49843948  0.44992103  0.24764785  1
  Pb  Pb215  1  0.49739898  0.78509732  0.24728133  1
  C  C216  1  -0.00079464  0.04767790  0.63283596  1
  C  C217  1  0.00126465  0.37984127  0.63367222  1
  C  C218  1  0.00080407  0.71391669  0.63488116  1
  C  C219  1  0.49958194  0.04669439  0.63552519  1
  C  C220  1  0.49956075  0.37936796  0.63355221  1
  C  C221  1  0.50079824  0.71368229  0.63349018  1
  C  C222  1  -0.00222209  0.28642548  0.13224266  1
  C  C223  1  -0.00099666  0.61958999  0.13426161  1
  C  C224  1  -0.00137856  0.95292305  0.13642769  1
  C  C225  1  0.49957553  0.28605741  0.13371792  1
  C  C226  1  0.49950556  0.61975498  0.13286247  1
  C  C227  1  0.50067123  0.95298604  0.13625910  1
  C  C228  1  0.00012760  0.04825482  0.86729625  1
  C  C229  1  -0.00021037  0.38048235  0.86557877  1
  C  C230  1  -0.00049192  0.71382811  0.86865792  1
  C  C231  1  0.50129796  0.04718071  0.86669302  1
  C  C232  1  0.49805377  0.38067151  0.86736775  1
  C  C233  1  0.50082454  0.71318859  0.86470191  1
  C  C234  1  0.00256530  0.28665814  0.36760808  1
  C  C235  1  0.00060859  0.61941124  0.36551431  1
  C  C236  1  -0.00013063  0.95406664  0.36596739  1
  C  C237  1  0.50166664  0.28609549  0.36897843  1
  C  C238  1  0.50057978  0.61955055  0.36973807  1
  C  C239  1  0.50041516  0.95335208  0.36700634  1
  C  C240  1  0.24813376  0.21338581  0.63289700  1
  C  C241  1  0.25037742  0.54682447  0.63392795  1
  C  C242  1  0.24947169  0.87985683  0.63226377  1
  C  C243  1  0.74938740  0.21435986  0.63277949  1
  C  C244  1  0.74901579  0.54676851  0.63158868  1
  C  C245  1  0.75034008  0.88012912  0.63256832  1
  C  C246  1  0.24918696  0.11955451  0.13293520  1
  C  C247  1  0.25150653  0.45254697  0.13164345  1
  C  C248  1  0.25175127  0.78594641  0.13524883  1
  C  C249  1  0.74947955  0.12047201  0.13303519  1
  C  C250  1  0.75093342  0.45358169  0.13489607  1
  C  C251  1  0.75136041  0.78564346  0.13124068  1
  C  C252  1  0.25118957  0.21372954  0.86715252  1
  C  C253  1  0.25248450  0.54670285  0.86665186  1
  C  C254  1  0.25106303  0.88000192  0.86388802  1
  C  C255  1  0.75136804  0.21415250  0.86759585  1
  C  C256  1  0.74888698  0.54693175  0.86806275  1
  C  C257  1  0.75125376  0.87896284  0.86617542  1
  C  C258  1  0.25000062  0.12008814  0.36600930  1
  C  C259  1  0.25093607  0.45228183  0.36764776  1
  C  C260  1  0.24860665  0.78570043  0.36756052  1
  C  C261  1  0.75069825  0.12008812  0.36620636  1
  C  C262  1  0.75042943  0.45300304  0.36590194  1
  C  C263  1  0.74842573  0.78622686  0.36518236  1
  C  C264  1  0.53594025  0.73773757  0.95856309  1
  C  C265  1  0.70717519  0.90468808  0.95846275  1
  C  C266  1  0.03627646  0.59371685  0.04142778  1
  C  C267  1  0.19929793  0.23795387  0.54142324  1
  C  C268  1  0.77830843  0.76102837  0.45996543  1
  C  C269  1  0.95907299  0.93152902  0.04128866  1
  C  C270  1  0.45293499  0.26184114  0.45968890  1
  C  C271  1  0.30277848  0.23994248  0.95692760  1
  C  C272  1  0.78613096  0.42807156  0.46146895  1
  C  C273  1  0.29997618  0.42598754  0.04152117  1
  C  C274  1  0.20547709  0.42763256  0.46098997  1
  C  C275  1  0.80319103  0.76043029  0.04120355  1
  C  C276  1  0.30734171  0.90616422  0.54343654  1
  C  C277  1  0.28706949  0.42763770  0.46243779  1
  C  C278  1  0.71238558  0.09564662  0.46114195  1
  C  C279  1  0.28411253  0.76138027  0.04073722  1
  C  C280  1  0.72211146  0.75978730  0.03609150  1
  C  C281  1  0.45920151  0.92794757  0.46115210  1
  C  C282  1  0.95803012  0.59451288  0.45846625  1
  C  C283  1  0.53363455  0.26061189  0.46333854  1
  C  C284  1  0.22291818  0.57035276  0.53649891  1
  C  C285  1  0.78922256  0.09357678  0.04021674  1
  C  C286  1  0.54005604  0.40348777  0.54084999  1
  C  C287  1  0.71488876  0.24045464  0.96082787  1
  C  C288  1  0.46118612  0.59248126  0.03996389  1
  C  C289  1  0.94527613  0.25976253  0.04168893  1
  C  C290  1  0.28081310  0.23941408  0.53705046  1
  C  C291  1  0.30465939  0.57014769  0.54334286  1
  C  C292  1  0.22147467  0.90320755  0.96086106  1
  C  C293  1  0.04140396  0.92878405  0.45903209  1
  C  C294  1  0.04120683  0.93200725  0.04194099  1
  C  C295  1  0.53331240  0.40531298  0.96239071  1
  C  C296  1  0.69087407  0.90550371  0.54396550  1
  C  C297  1  0.96182683  0.40473993  0.95868118  1
  C  C298  1  0.52406967  0.92813596  0.04022994  1
  C  C299  1  0.79476460  0.09524251  0.45971727  1
  C  C300  1  0.70464839  0.42908549  0.45836091  1
  C  C301  1  0.46357209  0.59152091  0.46445458  1
  C  C302  1  0.53042142  0.25855383  0.03935673  1
  C  C303  1  0.97631262  0.73885508  0.53901145  1
  C  C304  1  0.54152891  0.92798710  0.46118917  1
  C  C305  1  0.28759579  0.09579616  0.45921295  1
  C  C306  1  0.19575784  0.09353613  0.04236332  1
  C  C307  1  0.55337568  0.07346658  0.95629724  1
  C  C308  1  0.95433007  0.07391359  0.54146885  1
  C  C309  1  0.30311916  0.90292673  0.95516666  1
  C  C310  1  0.03995253  0.40761941  0.54106687  1
  C  C311  1  0.68874774  0.57159800  0.54311653  1
  N  N312  1  0.78710201  0.23723758  0.54072305  1
  N  N313  1  0.96641376  0.25979085  0.46192853  1
  N  N314  1  0.22259662  0.42461910  0.03506734  1
  N  N315  1  0.03145411  0.73042239  0.96459742  1
  N  N316  1  0.44529225  0.92990298  0.04590023  1
  N  N317  1  0.29030426  0.57239274  0.95799852  1
  N  N318  1  0.96205081  0.40780600  0.53936426  1
  N  N319  1  0.20472233  0.76222063  0.04195580  1
  N  N320  1  0.53808588  0.07148890  0.54121638  1
  N  N321  1  0.46131905  0.07164716  0.54120665  1
  N  N322  1  0.20906712  0.76190654  0.45897930  1
  N  N323  1  0.96172532  0.92558903  0.45782924  1
  N  N324  1  0.47388131  0.07563469  0.96064875  1
  N  N325  1  0.02395518  0.25967744  0.03765911  1
  N  N326  1  0.20830551  0.09482007  0.46019825  1
  N  N327  1  0.22330134  0.24214693  0.96103112  1
  N  N328  1  0.45358556  0.40581367  0.95868869  1
  N  N329  1  0.53904606  0.73935276  0.53943715  1
  N  N330  1  0.03758133  0.59290708  0.45814006  1
  N  N331  1  0.78824034  0.57344072  0.96179214  1
  N  N332  1  0.95361625  0.74316025  0.95763945  1
  N  N333  1  0.54262819  0.59241036  0.46112276  1
  N  N334  1  0.03185611  0.07424749  0.53651333  1
  N  N335  1  0.45654502  0.73793614  0.95841716  1
  N  N336  1  0.95696088  0.59486550  0.03994234  1
  N  N337  1  0.05547501  0.73769389  0.54404013  1
  N  N338  1  0.04112720  0.40523290  0.96004911  1
  N  N339  1  0.69921688  0.76144527  0.45733070  1
  N  N340  1  0.53920945  0.59295846  0.03829447  1
  N  N341  1  0.76944626  0.90756371  0.53706767  1
  N  N342  1  0.04487115  0.26053257  0.45779792  1
  N  N343  1  0.71257940  0.42753580  0.04105724  1
  N  N344  1  0.78954054  0.42750938  0.04116387  1
  N  N345  1  0.46278305  0.73967194  0.53948174  1
  N  N346  1  0.79224690  0.24063430  0.96197260  1
  N  N347  1  0.70910384  0.23841620  0.53862764  1
  N  N348  1  0.46084802  0.40425293  0.53846220  1
  N  N349  1  0.21193150  0.57233579  0.96048340  1
  N  N350  1  0.95808185  0.07163919  0.95842645  1
  N  N351  1  0.03612608  0.07218267  0.96264526  1
  N  N352  1  0.78714970  0.90745415  0.95892270  1
  N  N353  1  0.71019434  0.57306081  0.95884345  1
  N  N354  1  0.76740218  0.57349518  0.53560148  1
  N  N355  1  0.28722944  0.76051615  0.46181948  1
  N  N356  1  0.71128510  0.09278531  0.03839296  1
  N  N357  1  0.45284486  0.26002036  0.04084899  1
  N  N358  1  0.22860990  0.90809287  0.53723757  1
  N  N359  1  0.27448569  0.09328284  0.03806493  1
  N  N360  1  0.05999976  0.05776802  0.59487327  1
  N  N361  1  0.06614769  0.39074463  0.59802636  1
  N  N362  1  0.06866935  0.72247423  0.60428389  1
  N  N363  1  0.56283164  0.05624159  0.59955213  1
  N  N364  1  0.56529927  0.38878827  0.59901660  1
  N  N365  1  0.56424630  0.72365259  0.59779722  1
  N  N366  1  0.43342412  0.27738000  0.10113699  1
  N  N367  1  0.43486287  0.60856441  0.09711958  1
  N  N368  1  0.43236966  0.94495706  0.10600410  1
  N  N369  1  0.92880573  0.27592298  0.10022559  1
  N  N370  1  0.93545495  0.61083944  0.09825133  1
  N  N371  1  0.93379904  0.94418398  0.10044533  1
  N  N372  1  0.44174126  0.05668665  0.90609274  1
  N  N373  1  0.43242245  0.39054365  0.90018182  1
  N  N374  1  0.43643355  0.72258915  0.89952050  1
  N  N375  1  0.93480787  0.05849170  0.90046870  1
  N  N376  1  0.93478812  0.38971689  0.90103725  1
  N  N377  1  0.93336438  0.72262456  0.90147505  1
  N  N378  1  0.06787302  0.27703849  0.40096812  1
  N  N379  1  0.06392620  0.61071854  0.40142380  1
  N  N380  1  0.06537406  0.94418675  0.40155286  1
  N  N381  1  0.56355813  0.27540223  0.40813290  1
  N  N382  1  0.56591524  0.60999032  0.40280794  1
  N  N383  1  0.56544321  0.94384785  0.40226755  1
  N  N384  1  0.31011976  0.22383148  0.59520403  1
  N  N385  1  0.31979464  0.55556827  0.60402529  1
  N  N386  1  0.32011348  0.88934212  0.60234627  1
  N  N387  1  0.81343542  0.22391646  0.59791140  1
  N  N388  1  0.80547934  0.55674531  0.58985550  1
  N  N389  1  0.80729327  0.89023906  0.59120243  1
  N  N390  1  0.17988772  0.10964413  0.10108720  1
  N  N391  1  0.19233084  0.44153757  0.09249488  1
  N  N392  1  0.18657111  0.77729483  0.10129353  1
  N  N393  1  0.68658684  0.10991732  0.09739643  1
  N  N394  1  0.68770065  0.44358328  0.09903682  1
  N  N395  1  0.69071610  0.77501367  0.09120211  1
  N  N396  1  0.19148029  0.22338381  0.90632547  1
  N  N397  1  0.18912242  0.55652655  0.90305630  1
  N  N398  1  0.19006582  0.88924981  0.90349818  1
  N  N399  1  0.68703180  0.22436339  0.90418370  1
  N  N400  1  0.68447215  0.55699536  0.90231422  1
  N  N401  1  0.68488492  0.88928198  0.90070409  1
  N  N402  1  0.31487680  0.11089297  0.40162193  1
  N  N403  1  0.31440176  0.44232563  0.40620753  1
  N  N404  1  0.31130696  0.77578642  0.40465426  1
  N  N405  1  0.81673793  0.11022052  0.40015522  1
  N  N406  1  0.81349077  0.44320387  0.40270926  1
  N  N407  1  0.81037775  0.77590670  0.40362034  1
  N  N408  1  0.43357351  0.27745082  0.40180394  1
  N  N409  1  0.43725210  0.60817544  0.40775203  1
  N  N410  1  0.43540815  0.94375424  0.40222229  1
  N  N411  1  0.94096072  0.27599648  0.40541768  1
  N  N412  1  0.93470073  0.60984701  0.40070468  1
  N  N413  1  0.93620903  0.94494504  0.40127976  1
  N  N414  1  0.06172080  0.05724169  0.90574143  1
  N  N415  1  0.06305575  0.39040006  0.90155530  1
  N  N416  1  0.06093202  0.72427408  0.90611184  1
  N  N417  1  0.57051165  0.05701582  0.89766194  1
  N  N418  1  0.56106866  0.39017563  0.90554289  1
  N  N419  1  0.56458377  0.72286027  0.90141416  1
  N  N420  1  0.05762029  0.27743881  0.09300416  1
  N  N421  1  0.06372391  0.60881392  0.09894386  1
  N  N422  1  0.06446641  0.94496319  0.10134582  1
  N  N423  1  0.56135972  0.27445029  0.09492812  1
  N  N424  1  0.56296228  0.61030870  0.09746137  1
  N  N425  1  0.55967019  0.94231280  0.09527359  1
  N  N426  1  0.43638094  0.05652915  0.59957355  1
  N  N427  1  0.43739829  0.38901057  0.59639973  1
  N  N428  1  0.43748939  0.72357873  0.59763677  1
  N  N429  1  0.93190456  0.05774494  0.59968462  1
  N  N430  1  0.93797081  0.39026482  0.59842322  1
  N  N431  1  0.94134727  0.72452623  0.59432737  1
  N  N432  1  0.18665542  0.10998277  0.40184382  1
  N  N433  1  0.18436687  0.44320901  0.40069224  1
  N  N434  1  0.18393720  0.77626507  0.40175307  1
  N  N435  1  0.68657708  0.11093256  0.40264992  1
  N  N436  1  0.68333441  0.44397855  0.40050298  1
  N  N437  1  0.68236553  0.77703216  0.39822670  1
  N  N438  1  0.32025820  0.22350201  0.89835051  1
  N  N439  1  0.31641546  0.55680204  0.90146833  1
  N  N440  1  0.31992634  0.88865562  0.89482612  1
  N  N441  1  0.81524601  0.22390901  0.90248966  1
  N  N442  1  0.81189609  0.55717340  0.90478691  1
  N  N443  1  0.81412428  0.88693701  0.90270078  1
  N  N444  1  0.30865439  0.10996678  0.09352504  1
  N  N445  1  0.32012558  0.44270585  0.10021175  1
  N  N446  1  0.31441552  0.77566864  0.09755509  1
  N  N447  1  0.81449257  0.10988610  0.09755965  1
  N  N448  1  0.81433654  0.44366552  0.09914734  1
  N  N449  1  0.82019464  0.77652374  0.09978927  1
  N  N450  1  0.18017473  0.22234979  0.59965361  1
  N  N451  1  0.19029670  0.55604048  0.59342252  1
  N  N452  1  0.19174712  0.89026220  0.59167584  1
  N  N453  1  0.68614916  0.22340430  0.59599733  1
  N  N454  1  0.67770409  0.55565799  0.60278040  1
  N  N455  1  0.67913903  0.88915577  0.60324391  1
  Cl  Cl456  1  0.25096929  0.05117868  0.61827466  1
  Cl  Cl457  1  0.24996558  0.38664821  0.61509499  1
  Cl  Cl458  1  0.25216508  0.72221933  0.61641161  1
  Cl  Cl459  1  0.74781867  0.05120571  0.61365660  1
  Cl  Cl460  1  0.75229574  0.38669838  0.61471717  1
  Cl  Cl461  1  0.75472680  0.71918743  0.61178141  1
  Cl  Cl462  1  0.24278375  0.27410537  0.10471183  1
  Cl  Cl463  1  0.25170556  0.61144906  0.11557803  1
  Cl  Cl464  1  0.24812598  0.95059652  0.12041732  1
  Cl  Cl465  1  0.74561266  0.28050254  0.12264273  1
  Cl  Cl466  1  0.74725176  0.61482010  0.11695161  1
  Cl  Cl467  1  0.74674216  0.94259957  0.11226623  1
  Cl  Cl468  1  0.25553878  0.05948803  0.89476430  1
  Cl  Cl469  1  0.24924526  0.38387010  0.88016612  1
  Cl  Cl470  1  0.24714962  0.71924501  0.88408912  1
  Cl  Cl471  1  0.75355594  0.04971129  0.87979338  1
  Cl  Cl472  1  0.74650863  0.38336278  0.87982177  1
  Cl  Cl473  1  0.75074367  0.71991178  0.87914875  1
  Cl  Cl474  1  0.24828745  0.28181866  0.37660633  1
  Cl  Cl475  1  0.24900571  0.61203648  0.38447980  1
  Cl  Cl476  1  0.24713186  0.94249703  0.38996548  1
  Cl  Cl477  1  0.75646933  0.27890524  0.38886132  1
  Cl  Cl478  1  0.75216254  0.60949975  0.39060591  1
  Cl  Cl479  1  0.75448358  0.94170417  0.38887264  1
  Cl  Cl480  1  -0.00335893  0.21970717  0.62032867  1
  Cl  Cl481  1  -0.00254467  0.55795530  0.60480721  1
  Cl  Cl482  1  -0.00319574  0.89346009  0.60265556  1
  Cl  Cl483  1  0.50067174  0.21953392  0.61725224  1
  Cl  Cl484  1  0.50085987  0.55401114  0.61649513  1
  Cl  Cl485  1  0.49970101  0.88604336  0.61943313  1
  Cl  Cl486  1  -0.00406956  0.11607095  0.11327405  1
  Cl  Cl487  1  0.00090042  0.44454398  0.11359584  1
  Cl  Cl488  1  0.00377604  0.77758236  0.11212581  1
  Cl  Cl489  1  0.49455606  0.10939985  0.10312156  1
  Cl  Cl490  1  0.50280563  0.44488784  0.11109327  1
  Cl  Cl491  1  0.50261881  0.77969718  0.11463880  1
  Cl  Cl492  1  0.00699218  0.22363358  0.89344253  1
  Cl  Cl493  1  0.00210548  0.55559166  0.87986026  1
  Cl  Cl494  1  -0.00004559  0.88741550  0.88299852  1
  Cl  Cl495  1  0.50308062  0.21733509  0.88142964  1
  Cl  Cl496  1  0.50027678  0.55081219  0.88314470  1
  Cl  Cl497  1  0.50536126  0.88716624  0.88491849  1
  Cl  Cl498  1  0.00128907  0.11554728  0.37843472  1
  Cl  Cl499  1  -0.00057445  0.45088498  0.37791822  1
  Cl  Cl500  1  -0.00141503  0.77999928  0.38432541  1
  Cl  Cl501  1  0.49940673  0.11692441  0.37442750  1
  Cl  Cl502  1  0.49932875  0.45007522  0.37895458  1
  Cl  Cl503  1  0.49606232  0.78047769  0.37790478  1
  Cl  Cl504  1  0.36044038  0.14183108  0.75292439  1
  Cl  Cl505  1  0.36348759  0.47613362  0.74990334  1
  Cl  Cl506  1  0.36361970  0.81116534  0.75120497  1
  Cl  Cl507  1  0.86275545  0.14307198  0.75057839  1
  Cl  Cl508  1  0.86188053  0.47877249  0.75007647  1
  Cl  Cl509  1  0.86189042  0.80961300  0.75004060  1
  Cl  Cl510  1  0.13879443  0.19068053  0.24708397  1
  Cl  Cl511  1  0.13729170  0.52420341  0.25093873  1
  Cl  Cl512  1  0.13638636  0.85656886  0.24932224  1
  Cl  Cl513  1  0.63613771  0.18906941  0.24873311  1
  Cl  Cl514  1  0.63912908  0.52529170  0.25147208  1
  Cl  Cl515  1  0.63839933  0.85770192  0.25147593  1
  Cl  Cl516  1  0.13782286  0.14298187  0.74976539  1
  Cl  Cl517  1  0.14173418  0.47619814  0.75058158  1
  Cl  Cl518  1  0.13646549  0.81092422  0.74825243  1
  Cl  Cl519  1  0.63908239  0.14239069  0.74976273  1
  Cl  Cl520  1  0.63618236  0.47748417  0.74887875  1
  Cl  Cl521  1  0.63895035  0.81031371  0.74795463  1
  Cl  Cl522  1  0.36262617  0.18991065  0.24713622  1
  Cl  Cl523  1  0.36176179  0.52440798  0.24871350  1
  Cl  Cl524  1  0.36153878  0.85711570  0.25049873  1
  Cl  Cl525  1  0.86313329  0.18995382  0.25040997  1
  Cl  Cl526  1  0.86437541  0.52429965  0.25070275  1
  Cl  Cl527  1  0.86332341  0.85708009  0.24760861  1
  Cl  Cl528  1  0.11324632  0.30895830  0.75055310  1
  Cl  Cl529  1  0.11373110  0.64468294  0.74775033  1
  Cl  Cl530  1  0.10907598  0.97614461  0.75194761  1
  Cl  Cl531  1  0.61136946  0.30951551  0.74968400  1
  Cl  Cl532  1  0.61272672  0.64263479  0.74897702  1
  Cl  Cl533  1  0.61383384  0.97677669  0.75153843  1
  Cl  Cl534  1  0.38631279  0.02232832  0.24734870  1
  Cl  Cl535  1  0.38917569  0.35818405  0.24877244  1
  Cl  Cl536  1  0.38815463  0.69061245  0.25026779  1
  Cl  Cl537  1  0.88895777  0.02395297  0.25032566  1
  Cl  Cl538  1  0.88790310  0.35566898  0.24946770  1
  Cl  Cl539  1  0.89011025  0.69080055  0.25024172  1
  Cl  Cl540  1  0.38815905  0.30956207  0.75257954  1
  Cl  Cl541  1  0.38639500  0.64342636  0.75124142  1
  Cl  Cl542  1  0.38752579  0.97633458  0.75152903  1
  Cl  Cl543  1  0.88762572  0.30945750  0.74940129  1
  Cl  Cl544  1  0.89053108  0.64351898  0.75085051  1
  Cl  Cl545  1  0.88734027  0.97597684  0.75048586  1
  Cl  Cl546  1  0.11224475  0.02311751  0.24925280  1
  Cl  Cl547  1  0.11290680  0.35615647  0.25063388  1
  Cl  Cl548  1  0.11084522  0.69168674  0.25058332  1
  Cl  Cl549  1  0.61251791  0.02258861  0.25043370  1
  Cl  Cl550  1  0.61158732  0.35795278  0.25179395  1
  Cl  Cl551  1  0.61248218  0.69001868  0.25153636  1
