# generated using pymatgen
data_H8PbC4(N3Cl2)2
_symmetry_space_group_name_H-M   'P 1'
_cell_length_a   16.61995766
_cell_length_b   22.50157577
_cell_length_c   21.58739770
_cell_angle_alpha   89.99951496
_cell_angle_beta   89.97609399
_cell_angle_gamma   90.00096422
_symmetry_Int_Tables_number   1
_chemical_formula_structural   H8PbC4(N3Cl2)2
_chemical_formula_sum   'H192 Pb24 C96 N144 Cl96'
_cell_volume   8073.15145839
_cell_formula_units_Z   24
loop_
 _symmetry_equiv_pos_site_id
 _symmetry_equiv_pos_as_xyz
  1  'x, y, z'
loop_
 _atom_site_type_symbol
 _atom_site_label
 _atom_site_symmetry_multiplicity
 _atom_site_fract_x
 _atom_site_fract_y
 _atom_site_fract_z
 _atom_site_occupancy
  H  H0  1  -0.00340264  0.03251391  0.67989174  1
  H  H1  1  -0.00105200  0.36502551  0.68149285  1
  H  H2  1  -0.00055941  0.69894947  0.67839924  1
  H  H3  1  0.49854486  0.03134045  0.67970641  1
  H  H4  1  0.49308344  0.36497747  0.68126494  1
  H  H5  1  0.49482381  0.69800048  0.67790466  1
  H  H6  1  0.00123257  0.29875708  0.17680314  1
  H  H7  1  -0.00226193  0.63432671  0.18069388  1
  H  H8  1  -0.00225728  0.96781536  0.17942388  1
  H  H9  1  0.49421351  0.29947986  0.17981455  1
  H  H10  1  0.50589454  0.63375249  0.17890461  1
  H  H11  1  0.49502732  0.96765766  0.17783064  1
  H  H12  1  0.00030273  0.03117029  0.82002153  1
  H  H13  1  0.00969578  0.36345695  0.82094142  1
  H  H14  1  -0.00091715  0.70041888  0.82326200  1
  H  H15  1  0.50131913  0.03260824  0.81798390  1
  H  H16  1  0.49569075  0.36609286  0.81550540  1
  H  H17  1  0.49947470  0.69839569  0.81660721  1
  H  H18  1  -0.00013128  0.30136564  0.32052527  1
  H  H19  1  -0.00403118  0.63375726  0.31997894  1
  H  H20  1  0.00040749  0.96912267  0.32281268  1
  H  H21  1  0.50285641  0.30094388  0.31956215  1
  H  H22  1  0.50489085  0.63340616  0.31918776  1
  H  H23  1  0.50388726  0.96774165  0.32219348  1
  H  H24  1  0.25668793  0.19842276  0.68005550  1
  H  H25  1  0.25653117  0.53280534  0.67864654  1
  H  H26  1  0.24859482  0.86560162  0.67978268  1
  H  H27  1  0.74324092  0.20009512  0.67976725  1
  H  H28  1  0.74056983  0.53139612  0.68264570  1
  H  H29  1  0.74542588  0.86634589  0.67907316  1
  H  H30  1  0.24779456  0.13574734  0.17984992  1
  H  H31  1  0.25222812  0.47456580  0.17798725  1
  H  H32  1  0.25644306  0.80020879  0.17910756  1
  H  H33  1  0.75588224  0.13525188  0.18306296  1
  H  H34  1  0.74405705  0.46925334  0.18016054  1
  H  H35  1  0.74258159  0.80319858  0.17930955  1
  H  H36  1  0.24850342  0.20024794  0.81967601  1
  H  H37  1  0.24332244  0.53350045  0.82105970  1
  H  H38  1  0.25240090  0.86411220  0.82031842  1
  H  H39  1  0.75425382  0.19913980  0.82221320  1
  H  H40  1  0.75392884  0.53337411  0.81876373  1
  H  H41  1  0.75363271  0.86639953  0.82152051  1
  H  H42  1  0.24639332  0.13540949  0.31831876  1
  H  H43  1  0.25727423  0.46688185  0.31829729  1
  H  H44  1  0.25561555  0.80125784  0.31977315  1
  H  H45  1  0.75495831  0.13310578  0.32143971  1
  H  H46  1  0.75096853  0.46747911  0.32215060  1
  H  H47  1  0.74695587  0.80141156  0.32092574  1
  H  H48  1  0.12689262  0.05374228  0.61512260  1
  H  H49  1  0.12902658  0.38667088  0.61607132  1
  H  H50  1  0.12834733  0.72153739  0.61301900  1
  H  H51  1  0.62947097  0.05214661  0.61424782  1
  H  H52  1  0.62924956  0.38480065  0.62105789  1
  H  H53  1  0.63062828  0.71749309  0.61839328  1
  H  H54  1  0.38370545  0.27651724  0.09873387  1
  H  H55  1  0.37338067  0.61419743  0.11417153  1
  H  H56  1  0.38682297  0.93865083  0.09586153  1
  H  H57  1  0.87891007  0.27943551  0.10651421  1
  H  H58  1  0.88020603  0.61380131  0.10589170  1
  H  H59  1  0.88167748  0.94406839  0.10120843  1
  H  H60  1  0.37469639  0.05445340  0.88818364  1
  H  H61  1  0.37266509  0.38741989  0.88680231  1
  H  H62  1  0.37519415  0.72012531  0.88588250  1
  H  H63  1  0.87808757  0.05430499  0.89378427  1
  H  H64  1  0.87092298  0.38332938  0.87657830  1
  H  H65  1  0.87636281  0.72094984  0.89370123  1
  H  H66  1  0.11990115  0.27831731  0.39479240  1
  H  H67  1  0.12675958  0.61290720  0.38551638  1
  H  H68  1  0.12141649  0.94173569  0.39435628  1
  H  H69  1  0.61964367  0.27707000  0.39806284  1
  H  H70  1  0.62115768  0.61003776  0.39833094  1
  H  H71  1  0.62137633  0.94274341  0.39801126  1
  H  H72  1  0.37512878  0.22302922  0.60335360  1
  H  H73  1  0.36990943  0.55756455  0.59771220  1
  H  H74  1  0.37713178  0.88701189  0.61171317  1
  H  H75  1  0.88273870  0.21512273  0.62567326  1
  H  H76  1  0.87626399  0.55180157  0.62155360  1
  H  H77  1  0.87847476  0.88543910  0.61715318  1
  H  H78  1  0.12259403  0.11396769  0.10831595  1
  H  H79  1  0.12652712  0.44596186  0.11070715  1
  H  H80  1  0.12172472  0.78074492  0.11859263  1
  H  H81  1  0.62746261  0.11270490  0.11447013  1
  H  H82  1  0.63150621  0.44340064  0.09974847  1
  H  H83  1  0.62971717  0.77600337  0.09908448  1
  H  H84  1  0.11727826  0.21976360  0.88444764  1
  H  H85  1  0.13005895  0.55796822  0.90194750  1
  H  H86  1  0.11648579  0.88297836  0.87973311  1
  H  H87  1  0.61861000  0.21849883  0.88133377  1
  H  H88  1  0.62201355  0.55296350  0.88185726  1
  H  H89  1  0.61802533  0.88652930  0.88065354  1
  H  H90  1  0.37134865  0.11212683  0.38937919  1
  H  H91  1  0.36681993  0.44520947  0.39912869  1
  H  H92  1  0.36692263  0.77785255  0.40050411  1
  H  H93  1  0.86851119  0.10999880  0.40206755  1
  H  H94  1  0.87023083  0.44398283  0.39617224  1
  H  H95  1  0.86804138  0.77786149  0.39529826  1
  H  H96  1  0.37142764  0.28140552  0.38522539  1
  H  H97  1  0.37307446  0.61428035  0.38440206  1
  H  H98  1  0.37278528  0.94598677  0.38621944  1
  H  H99  1  0.87071615  0.27989833  0.38762439  1
  H  H100  1  0.87766882  0.61117263  0.39544477  1
  H  H101  1  0.87313131  0.95034904  0.39189951  1
  H  H102  1  0.12686783  0.05423332  0.88730920  1
  H  H103  1  0.11755921  0.39083409  0.90444083  1
  H  H104  1  0.12512844  0.71908063  0.89089379  1
  H  H105  1  0.62462133  0.05488020  0.88887704  1
  H  H106  1  0.62219540  0.38767121  0.88243727  1
  H  H107  1  0.62513167  0.71910808  0.88555817  1
  H  H108  1  0.12744183  0.27887031  0.10965543  1
  H  H109  1  0.12923928  0.61632793  0.11596931  1
  H  H110  1  0.12975357  0.94654865  0.11583037  1
  H  H111  1  0.63158847  0.28147060  0.12107142  1
  H  H112  1  0.62122102  0.61010505  0.09972098  1
  H  H113  1  0.63309254  0.95075304  0.12013172  1
  H  H114  1  0.37994992  0.05553343  0.60503391  1
  H  H115  1  0.38171208  0.38918476  0.60111486  1
  H  H116  1  0.38393910  0.72561987  0.59801136  1
  H  H117  1  0.87830275  0.05590315  0.60315664  1
  H  H118  1  0.88046404  0.38856319  0.60452200  1
  H  H119  1  0.87950621  0.72314256  0.60401027  1
  H  H120  1  0.12210413  0.11308703  0.38951461  1
  H  H121  1  0.11942167  0.44996177  0.37544232  1
  H  H122  1  0.11925903  0.78167429  0.37946306  1
  H  H123  1  0.62105550  0.11328266  0.38230242  1
  H  H124  1  0.62129158  0.44584254  0.38816769  1
  H  H125  1  0.61945755  0.78057719  0.38850063  1
  H  H126  1  0.36665937  0.22094658  0.89369663  1
  H  H127  1  0.37732014  0.55336223  0.88101734  1
  H  H128  1  0.36473112  0.89258758  0.89999607  1
  H  H129  1  0.86593470  0.22388327  0.90365893  1
  H  H130  1  0.87107472  0.55525213  0.89380929  1
  H  H131  1  0.86510575  0.88963150  0.90341284  1
  H  H132  1  0.37119656  0.11208933  0.10801526  1
  H  H133  1  0.37503800  0.44579919  0.10832835  1
  H  H134  1  0.36985837  0.77499877  0.09934636  1
  H  H135  1  0.87654271  0.11401627  0.10847311  1
  H  H136  1  0.87884050  0.44754238  0.12151334  1
  H  H137  1  0.87691273  0.78220288  0.11742006  1
  H  H138  1  0.12662935  0.21950767  0.61499102  1
  H  H139  1  0.12278526  0.55225574  0.61785682  1
  H  H140  1  0.12838294  0.89047600  0.60664331  1
  H  H141  1  0.63661821  0.22332512  0.59696453  1
  H  H142  1  0.62850573  0.55686902  0.60254998  1
  H  H143  1  0.63102541  0.89073445  0.59946813  1
  H  H144  1  0.40950365  0.58614017  0.00752547  1
  H  H145  1  0.18286728  0.42973606  0.00367450  1
  H  H146  1  0.81415783  0.58344833  1.00434271  1
  H  H147  1  0.30060495  0.41877213  0.50709325  1
  H  H148  1  0.42056389  0.08588013  0.99193239  1
  H  H149  1  0.06883268  0.24876047  0.50269139  1
  H  H150  1  0.42118258  0.74263335  0.99954039  1
  H  H151  1  0.45050083  0.25084156  -0.00859239  1
  H  H152  1  0.30144259  0.75132163  0.50742016  1
  H  H153  1  0.91397800  0.91454314  0.49398041  1
  H  H154  1  0.82268179  0.08457378  0.00108602  1
  H  H155  1  0.14169739  0.91452833  0.99173652  1
  H  H156  1  0.06723474  0.92719301  0.49963724  1
  H  H157  1  0.90497092  0.25003939  0.49422929  1
  H  H158  1  0.58072903  0.74125050  0.99894583  1
  H  H159  1  0.42082767  0.40668015  0.99999632  1
  H  H160  1  0.57818636  0.08165290  0.99904212  1
  H  H161  1  0.85346502  0.41708506  0.00892706  1
  H  H162  1  0.16986654  0.08438195  0.49843091  1
  H  H163  1  0.66180559  0.41661964  0.49469693  1
  H  H164  1  0.60346081  0.75264372  0.51292011  1
  H  H165  1  0.29842520  0.91305940  1.00347053  1
  H  H166  1  0.93126508  0.58180244  0.50334927  1
  H  H167  1  0.09116271  0.58325488  0.49176520  1
  H  H168  1  0.61021476  0.91766838  0.01214561  1
  H  H169  1  0.55471798  0.25120428  0.50096014  1
  H  H170  1  0.04310364  0.41170377  1.00616229  1
  H  H171  1  0.70575330  0.24976891  0.49099727  1
  H  H172  1  0.60774473  0.25313666  0.01172388  1
  H  H173  1  0.09336737  0.41611599  0.50474245  1
  H  H174  1  0.59427799  0.08092901  0.50786086  1
  H  H175  1  0.40993933  0.91746381  0.49304693  1
  H  H176  1  0.69887093  0.42496759  -0.00410489  1
  H  H177  1  0.44898680  0.41534519  0.49467095  1
  H  H178  1  0.46113647  0.92457604  -0.00655098  1
  H  H179  1  0.70030730  0.75168179  -0.00341635  1
  H  H180  1  0.43446893  0.08511461  0.49679601  1
  H  H181  1  0.31118121  0.43576734  0.00140645  1
  H  H182  1  0.14501056  0.75411823  0.48783874  1
  H  H183  1  0.31147676  0.24746272  1.00549143  1
  H  H184  1  0.17108472  0.08742648  0.00395506  1
  H  H185  1  0.93608486  0.58913077  -0.00597172  1
  H  H186  1  0.58024377  0.41134244  0.99624144  1
  H  H187  1  0.30203725  0.74814446  -0.00369756  1
  H  H188  1  0.93480414  0.75207700  0.50048013  1
  H  H189  1  0.55510788  0.58489423  0.50122062  1
  H  H190  1  0.45449215  0.73739877  0.49507993  1
  H  H191  1  0.69589789  0.58360590  0.49641093  1
  Pb  Pb192  1  0.25037264  0.04615874  0.75015663  1
  Pb  Pb193  1  0.24934286  0.37966779  0.75449077  1
  Pb  Pb194  1  0.25014164  0.71669308  0.74883190  1
  Pb  Pb195  1  0.75397756  0.04664776  0.75148397  1
  Pb  Pb196  1  0.75325446  0.38129166  0.74969814  1
  Pb  Pb197  1  0.75063814  0.71227604  0.75279931  1
  Pb  Pb198  1  0.25222265  0.28606486  0.24884460  1
  Pb  Pb199  1  0.24974119  0.62135851  0.25053613  1
  Pb  Pb200  1  0.24534107  0.95083771  0.24608341  1
  Pb  Pb201  1  0.74897346  0.28645615  0.25312709  1
  Pb  Pb202  1  0.74846068  0.61618500  0.25147738  1
  Pb  Pb203  1  0.75331571  0.95425512  0.25178799  1
  Pb  Pb204  1  0.00053100  0.21122111  0.75018394  1
  Pb  Pb205  1  0.00404217  0.54827532  0.75301119  1
  Pb  Pb206  1  -0.00357106  0.88016574  0.74594274  1
  Pb  Pb207  1  0.50209372  0.21412957  0.74618663  1
  Pb  Pb208  1  0.49797877  0.54707620  0.74223487  1
  Pb  Pb209  1  0.50245874  0.88203513  0.74903119  1
  Pb  Pb210  1  0.00004919  0.12172655  0.25100974  1
  Pb  Pb211  1  0.00137934  0.45197560  0.24584057  1
  Pb  Pb212  1  -0.00529973  0.78532776  0.25618503  1
  Pb  Pb213  1  0.49871086  0.11598602  0.24902507  1
  Pb  Pb214  1  0.49816199  0.45221719  0.24885915  1
  Pb  Pb215  1  0.50131205  0.78624865  0.24920921  1
  C  C216  1  0.00042342  0.04735904  0.63241435  1
  C  C217  1  0.00279366  0.38003674  0.63391201  1
  C  C218  1  0.00206778  0.71454006  0.63091660  1
  C  C219  1  0.50304648  0.04661905  0.63201984  1
  C  C220  1  0.50170950  0.37969866  0.63384443  1
  C  C221  1  0.50325790  0.71349494  0.63057553  1
  C  C222  1  0.00259328  0.28532130  0.12866476  1
  C  C223  1  0.00216579  0.62096289  0.13262735  1
  C  C224  1  0.00303151  0.95311862  0.13197696  1
  C  C225  1  0.50392273  0.28510532  0.13219020  1
  C  C226  1  0.49984910  0.61888882  0.13125425  1
  C  C227  1  0.50522163  0.95269220  0.13051654  1
  C  C228  1  0.00150920  0.04640229  0.86741973  1
  C  C229  1  -0.00025129  0.37781391  0.86833032  1
  C  C230  1  0.00023769  0.71363138  0.87149016  1
  C  C231  1  0.49968700  0.04778129  0.86581349  1
  C  C232  1  0.49675704  0.38040876  0.86355610  1
  C  C233  1  0.49999314  0.71300668  0.86456594  1
  C  C234  1  -0.00368709  0.28608089  0.36828538  1
  C  C235  1  0.00057061  0.61878365  0.36780821  1
  C  C236  1  -0.00165269  0.95373656  0.37054479  1
  C  C237  1  0.49828024  0.28631885  0.36732840  1
  C  C238  1  0.49999941  0.61916278  0.36705555  1
  C  C239  1  0.49886544  0.95230663  0.36958634  1
  C  C240  1  0.25310425  0.21356438  0.63262096  1
  C  C241  1  0.24997667  0.54696700  0.63106972  1
  C  C242  1  0.25170659  0.88076815  0.63240416  1
  C  C243  1  0.75413912  0.21305601  0.63218024  1
  C  C244  1  0.74875485  0.54608029  0.63518714  1
  C  C245  1  0.75158322  0.88065965  0.63151880  1
  C  C246  1  0.24696683  0.12027249  0.13227532  1
  C  C247  1  0.25133533  0.45671544  0.13117182  1
  C  C248  1  0.24972995  0.78593708  0.13146961  1
  C  C249  1  0.75302741  0.12064612  0.13523156  1
  C  C250  1  0.75118013  0.45433707  0.13249784  1
  C  C251  1  0.74921993  0.78783942  0.13194479  1
  C  C252  1  0.24442950  0.21402169  0.86762121  1
  C  C253  1  0.25004280  0.54793269  0.86854951  1
  C  C254  1  0.24483184  0.87903964  0.86791218  1
  C  C255  1  0.74633991  0.21382530  0.86949400  1
  C  C256  1  0.74925382  0.54729169  0.86663530  1
  C  C257  1  0.74565217  0.88060843  0.86893967  1
  C  C258  1  0.24673561  0.12021844  0.36593753  1
  C  C259  1  0.24807624  0.45396084  0.36613734  1
  C  C260  1  0.24653536  0.78668695  0.36732960  1
  C  C261  1  0.74823459  0.11895471  0.36903460  1
  C  C262  1  0.74709306  0.45252426  0.36974690  1
  C  C263  1  0.74497290  0.78656616  0.36848505  1
  C  C264  1  0.04594055  0.07435535  0.54161028  1
  C  C265  1  0.03054292  0.25908673  0.46280901  1
  C  C266  1  0.20784639  0.24084585  0.54200891  1
  C  C267  1  0.26877073  0.42910641  0.46438552  1
  C  C268  1  0.72684965  0.57265107  0.53943168  1
  C  C269  1  0.54166892  0.73487124  0.95914206  1
  C  C270  1  0.05216249  0.59838026  0.04118670  1
  C  C271  1  0.21833365  0.90982707  0.53877838  1
  C  C272  1  0.04326779  0.07459742  0.95912233  1
  C  C273  1  0.19337780  0.75932139  0.04214206  1
  C  C274  1  0.48081180  0.26014073  0.03512870  1
  C  C275  1  0.81729220  0.23586254  0.54547426  1
  C  C276  1  0.96759592  0.59241205  0.46290766  1
  C  C277  1  0.18872033  0.90559958  0.95613922  1
  C  C278  1  0.93802421  0.40355308  0.95525289  1
  C  C279  1  0.05055086  0.74187273  0.53922561  1
  C  C280  1  0.73703434  0.23883764  0.53384789  1
  C  C281  1  0.96207505  0.73783882  0.96478108  1
  C  C282  1  0.53943152  0.07246127  0.95962953  1
  C  C283  1  0.70231924  0.76184655  0.46120455  1
  C  C284  1  0.96467621  0.26082566  0.03543727  1
  C  C285  1  0.27597265  0.23854201  0.96416294  1
  C  C286  1  0.04763062  0.40561192  0.54248144  1
  C  C287  1  0.20989731  0.09421889  0.45919070  1
  C  C288  1  0.69808451  0.57161687  0.95742732  1
  C  C289  1  0.80146388  0.90538314  0.54114738  1
  C  C290  1  0.04291447  0.73718777  0.96387942  1
  C  C291  1  0.18791239  0.43087611  0.45439357  1
  C  C292  1  0.47019308  0.07415578  0.53736380  1
  C  C293  1  0.27078648  0.76094768  0.46403804  1
  C  C294  1  0.19444436  0.23848770  0.95901195  1
  C  C295  1  0.53173389  0.92264877  0.46460477  1
  C  C296  1  0.97115472  0.59739592  0.03564484  1
  C  C297  1  0.78253825  0.42418993  0.46459439  1
  C  C298  1  0.54029971  0.40269148  0.95743006  1
  C  C299  1  0.48015131  0.40549750  0.53780048  1
  C  C300  1  0.78556163  0.09488159  0.04115067  1
  C  C301  1  0.80717651  0.42721937  0.04437671  1
  C  C302  1  0.04548505  0.26067733  0.03662029  1
  C  C303  1  0.30175668  0.57335828  0.95816459  1
  C  C304  1  0.45830846  0.40165240  0.95911833  1
  C  C305  1  0.05047116  0.92675101  0.04152576  1
  C  C306  1  0.77924071  0.57284097  0.96321834  1
  C  C307  1  0.69739347  0.09375664  0.45899279  1
  C  C308  1  0.69379375  0.23981376  0.95827276  1
  C  C309  1  0.19881727  0.57125701  0.54093557  1
  C  C310  1  0.45952806  0.73549048  0.95937267  1
  C  C311  1  0.69319467  0.90457343  0.95835998  1
  N  N312  1  0.80485006  0.76057174  0.04379986  1
  N  N313  1  0.77078404  0.24248532  0.96651739  1
  N  N314  1  0.44749308  0.59728375  0.45815586  1
  N  N315  1  0.48559623  0.92000318  0.03715241  1
  N  N316  1  0.77017039  0.90656306  0.96682186  1
  N  N317  1  0.55968490  0.26117186  0.04422873  1
  N  N318  1  0.56289725  0.93273770  0.04306754  1
  N  N319  1  0.97123253  0.74237335  0.53729181  1
  N  N320  1  0.52444060  0.26013622  0.46077721  1
  N  N321  1  0.54984991  0.07287381  0.54174923  1
  N  N322  1  0.20894727  0.41688155  0.04488238  1
  N  N323  1  0.96845349  0.40613568  0.53809036  1
  N  N324  1  0.20988280  0.09502364  0.04056621  1
  N  N325  1  0.77448575  0.09245940  0.46649655  1
  N  N326  1  0.03337173  0.91926997  0.46061177  1
  N  N327  1  0.53091794  0.59398223  0.03520552  1
  N  N328  1  0.28926467  0.09352179  0.45967674  1
  N  N329  1  0.01605187  0.40616172  0.96376296  1
  N  N330  1  0.44657668  0.26210748  0.45810875  1
  N  N331  1  0.72733832  0.75789500  0.03887002  1
  N  N332  1  0.96553275  0.07482792  0.96244900  1
  N  N333  1  0.45282054  0.92498597  0.45972240  1
  N  N334  1  0.72428181  0.90786737  0.53441004  1
  N  N335  1  0.45301811  0.59529819  0.04155471  1
  N  N336  1  0.27202287  0.75835122  0.03639249  1
  N  N337  1  0.48005326  0.74622971  0.53750314  1
  N  N338  1  0.78017205  0.75970553  0.46430065  1
  N  N339  1  0.97337107  0.92526207  0.03543379  1
  N  N340  1  0.22450899  0.57477063  0.96605647  1
  N  N341  1  0.96846277  0.07506853  0.53648542  1
  N  N342  1  0.04722146  0.59258741  0.45821142  1
  N  N343  1  0.52534577  0.59575505  0.46132897  1
  N  N344  1  0.80577736  0.57091204  0.54566100  1
  N  N345  1  0.28844381  0.09531328  0.03861017  1
  N  N346  1  0.70363260  0.42572340  0.46075951  1
  N  N347  1  0.26808675  0.90915467  0.96202721  1
  N  N348  1  0.70618696  0.09419049  0.04275482  1
  N  N349  1  0.72795945  0.42584867  0.03779627  1
  N  N350  1  0.45962663  0.07055694  0.95880764  1
  N  N351  1  0.29624377  0.90795226  0.53914883  1
  N  N352  1  0.19183237  0.76080639  0.45520056  1
  N  N353  1  0.55840229  0.73501313  0.54245395  1
  N  N354  1  0.29072477  0.41841547  0.04279833  1
  N  N355  1  0.28514762  0.24227039  0.53700483  1
  N  N356  1  0.95535278  0.93348521  0.46294010  1
  N  N357  1  0.95094073  0.25999943  0.45937195  1
  N  N358  1  0.55906634  0.40435198  0.54437986  1
  N  N359  1  0.27590943  0.57325803  0.53339913  1
  N  N360  1  0.06808232  0.05763105  0.59963026  1
  N  N361  1  0.06993869  0.38978602  0.60110979  1
  N  N362  1  0.06967361  0.72501839  0.59742681  1
  N  N363  1  0.56952791  0.05572103  0.59998082  1
  N  N364  1  0.57061448  0.38849012  0.60472612  1
  N  N365  1  0.57240102  0.72412342  0.60234904  1
  N  N366  1  0.44572523  0.27483471  0.08975921  1
  N  N367  1  0.43293604  0.60962360  0.09978471  1
  N  N368  1  0.44902679  0.94213470  0.08828959  1
  N  N369  1  0.93834726  0.27568366  0.09160826  1
  N  N370  1  0.94069397  0.61146975  0.09400135  1
  N  N371  1  0.94362615  0.94239431  0.09308535  1
  N  N372  1  0.43535324  0.05745684  0.90028005  1
  N  N373  1  0.43238313  0.38799676  0.90024589  1
  N  N374  1  0.43503317  0.72221193  0.90013229  1
  N  N375  1  0.93943467  0.05673458  0.90397455  1
  N  N376  1  0.92756453  0.38739387  0.89580957  1
  N  N377  1  0.93584184  0.72357516  0.90843382  1
  N  N378  1  0.05900476  0.27515500  0.40625514  1
  N  N379  1  0.06691644  0.60845233  0.39955480  1
  N  N380  1  0.06081441  0.94294225  0.40674223  1
  N  N381  1  0.55781764  0.27535265  0.40625303  1
  N  N382  1  0.55925617  0.60896723  0.40644645  1
  N  N383  1  0.56055161  0.93953753  0.40890443  1
  N  N384  1  0.31369666  0.22485360  0.59468971  1
  N  N385  1  0.30797875  0.55760614  0.59078123  1
  N  N386  1  0.31688038  0.88970291  0.59876859  1
  N  N387  1  0.82688977  0.22033367  0.60505648  1
  N  N388  1  0.81740683  0.55449562  0.60530977  1
  N  N389  1  0.82059992  0.88922651  0.60025491  1
  N  N390  1  0.18351290  0.11077209  0.09679817  1
  N  N391  1  0.18692739  0.44516043  0.09735571  1
  N  N392  1  0.17950950  0.77618851  0.10090739  1
  N  N393  1  0.68767539  0.11023069  0.10175645  1
  N  N394  1  0.69337635  0.44557819  0.09136520  1
  N  N395  1  0.69137087  0.77697422  0.09139597  1
  N  N396  1  0.17607788  0.22378492  0.90056716  1
  N  N397  1  0.19216709  0.55880908  0.90887553  1
  N  N398  1  0.17443443  0.88833621  0.89725678  1
  N  N399  1  0.67620586  0.22289498  0.89900168  1
  N  N400  1  0.68041585  0.55644878  0.89912512  1
  N  N401  1  0.67543307  0.88931592  0.89854494  1
  N  N402  1  0.31043923  0.10991902  0.40114664  1
  N  N403  1  0.30526646  0.44388696  0.40813052  1
  N  N404  1  0.30511426  0.77657122  0.40945928  1
  N  N405  1  0.80636550  0.10860683  0.40923919  1
  N  N406  1  0.80972086  0.44081952  0.40835286  1
  N  N407  1  0.80656721  0.77552666  0.40516186  1
  N  N408  1  0.43082378  0.27755113  0.39936684  1
  N  N409  1  0.43231294  0.61115160  0.39897335  1
  N  N410  1  0.43199890  0.94356302  0.40119623  1
  N  N411  1  0.93052565  0.27662864  0.40114718  1
  N  N412  1  0.93831064  0.60865907  0.40672161  1
  N  N413  1  0.93314165  0.94435530  0.40426856  1
  N  N414  1  0.06749060  0.05759041  0.90164606  1
  N  N415  1  0.05530469  0.38728096  0.91092913  1
  N  N416  1  0.06625074  0.72260779  0.90680740  1
  N  N417  1  0.56453560  0.05756567  0.90216204  1
  N  N418  1  0.56283051  0.38952869  0.89774416  1
  N  N419  1  0.56537332  0.72118011  0.89984824  1
  N  N420  1  0.06878376  0.27554131  0.09360421  1
  N  N421  1  0.07058715  0.61226741  0.09970030  1
  N  N422  1  0.07139130  0.94333411  0.10016035  1
  N  N423  1  0.57331909  0.27594758  0.10412157  1
  N  N424  1  0.55958402  0.60862856  0.09134635  1
  N  N425  1  0.57537346  0.94375538  0.10312031  1
  N  N426  1  0.44080754  0.05816597  0.59357164  1
  N  N427  1  0.44355258  0.39080541  0.59235919  1
  N  N428  1  0.44569450  0.72282787  0.58926729  1
  N  N429  1  0.93999891  0.05799919  0.59432923  1
  N  N430  1  0.94223181  0.39022815  0.59550896  1
  N  N431  1  0.94080448  0.72525860  0.59384659  1
  N  N432  1  0.18242617  0.11007872  0.40185594  1
  N  N433  1  0.17629999  0.44577451  0.39487718  1
  N  N434  1  0.17751455  0.77690608  0.39572789  1
  N  N435  1  0.67889782  0.10980182  0.39957890  1
  N  N436  1  0.68093556  0.44348779  0.40222683  1
  N  N437  1  0.67865769  0.77749600  0.40280223  1
  N  N438  1  0.30614675  0.22337383  0.90598238  1
  N  N439  1  0.31952116  0.55728068  0.89880634  1
  N  N440  1  0.30266306  0.88960647  0.90855869  1
  N  N441  1  0.80360028  0.22576924  0.90994890  1
  N  N442  1  0.81042619  0.55756907  0.90527340  1
  N  N443  1  0.80283266  0.89114333  0.90988885  1
  N  N444  1  0.31053095  0.10994464  0.09633691  1
  N  N445  1  0.31463163  0.44563193  0.09587217  1
  N  N446  1  0.30819827  0.77570899  0.09120026  1
  N  N447  1  0.81571764  0.11098375  0.09745170  1
  N  N448  1  0.82142673  0.44363474  0.10349199  1
  N  N449  1  0.81796807  0.77748259  0.10225144  1
  N  N450  1  0.18565812  0.22370515  0.59975150  1
  N  N451  1  0.18066816  0.55566840  0.60041189  1
  N  N452  1  0.18901223  0.89312223  0.59489762  1
  N  N453  1  0.69854746  0.22437069  0.58936201  1
  N  N454  1  0.69034332  0.55762814  0.59402596  1
  N  N455  1  0.69300093  0.89196427  0.59195110  1
  Cl  Cl456  1  0.25251289  0.05203291  0.61878121  1
  Cl  Cl457  1  0.25771153  0.38688237  0.62165188  1
  Cl  Cl458  1  0.25870580  0.72502318  0.61146796  1
  Cl  Cl459  1  0.75271769  0.05151494  0.61953360  1
  Cl  Cl460  1  0.75507331  0.38689714  0.61650592  1
  Cl  Cl461  1  0.75442805  0.71800867  0.62076608  1
  Cl  Cl462  1  0.26043521  0.27898173  0.11451328  1
  Cl  Cl463  1  0.25403251  0.61798501  0.11840439  1
  Cl  Cl464  1  0.26403262  0.93890479  0.10333068  1
  Cl  Cl465  1  0.75368655  0.28541106  0.12327912  1
  Cl  Cl466  1  0.74824734  0.61217472  0.11686982  1
  Cl  Cl467  1  0.75658566  0.94753740  0.11940931  1
  Cl  Cl468  1  0.25046869  0.05390297  0.88612082  1
  Cl  Cl469  1  0.24133230  0.39799584  0.89868326  1
  Cl  Cl470  1  0.25295870  0.72291831  0.88507729  1
  Cl  Cl471  1  0.75301314  0.05360980  0.88493913  1
  Cl  Cl472  1  0.74541857  0.39200346  0.88695172  1
  Cl  Cl473  1  0.74776863  0.72286000  0.88931900  1
  Cl  Cl474  1  0.24569112  0.28339300  0.37935304  1
  Cl  Cl475  1  0.24889442  0.61697554  0.38170657  1
  Cl  Cl476  1  0.24507771  0.94512607  0.37856060  1
  Cl  Cl477  1  0.74251400  0.28131590  0.38927995  1
  Cl  Cl478  1  0.74456774  0.61082293  0.38764393  1
  Cl  Cl479  1  0.74934539  0.94885250  0.38301801  1
  Cl  Cl480  1  0.00710810  0.21998447  0.61527129  1
  Cl  Cl481  1  0.00045533  0.55713383  0.61690570  1
  Cl  Cl482  1  0.00481494  0.88878651  0.60782657  1
  Cl  Cl483  1  0.50854849  0.22254858  0.60904971  1
  Cl  Cl484  1  0.50331234  0.55946113  0.60496080  1
  Cl  Cl485  1  0.50253625  0.88800737  0.61417664  1
  Cl  Cl486  1  0.00219947  0.11557410  0.11770867  1
  Cl  Cl487  1  0.00654927  0.44147442  0.10705575  1
  Cl  Cl488  1  -0.00059814  0.78368278  0.12602293  1
  Cl  Cl489  1  0.49608496  0.11088412  0.11012180  1
  Cl  Cl490  1  0.50299897  0.44304174  0.11218698  1
  Cl  Cl491  1  0.50040920  0.77690623  0.11232410  1
  Cl  Cl492  1  -0.00907211  0.21802136  0.88092060  1
  Cl  Cl493  1  0.00141026  0.55263353  0.88541273  1
  Cl  Cl494  1  -0.00869872  0.88286041  0.87626203  1
  Cl  Cl495  1  0.49244700  0.22000625  0.88373753  1
  Cl  Cl496  1  0.49873057  0.55294085  0.87405293  1
  Cl  Cl497  1  0.48753747  0.89606021  0.89265425  1
  Cl  Cl498  1  -0.00435826  0.11364613  0.38315975  1
  Cl  Cl499  1  -0.00707917  0.44917312  0.37653041  1
  Cl  Cl500  1  -0.00783351  0.77867141  0.39401032  1
  Cl  Cl501  1  0.49593909  0.11098066  0.38475702  1
  Cl  Cl502  1  0.49475826  0.44543367  0.38462299  1
  Cl  Cl503  1  0.49212854  0.77540398  0.39291646  1
  Cl  Cl504  1  0.36280746  0.14434844  0.75058562  1
  Cl  Cl505  1  0.36353376  0.47826682  0.75366374  1
  Cl  Cl506  1  0.36109470  0.80992058  0.75079802  1
  Cl  Cl507  1  0.86120179  0.14401575  0.74679992  1
  Cl  Cl508  1  0.86160455  0.47610391  0.74759324  1
  Cl  Cl509  1  0.86245867  0.81240968  0.74625844  1
  Cl  Cl510  1  0.13760762  0.18909612  0.24847158  1
  Cl  Cl511  1  0.13609089  0.52185970  0.25054812  1
  Cl  Cl512  1  0.14108168  0.85663585  0.25090232  1
  Cl  Cl513  1  0.63666735  0.18956096  0.24820622  1
  Cl  Cl514  1  0.63927922  0.52254888  0.25110864  1
  Cl  Cl515  1  0.63613268  0.85616769  0.24968121  1
  Cl  Cl516  1  0.13738044  0.14465961  0.75114153  1
  Cl  Cl517  1  0.13743699  0.47893253  0.74812259  1
  Cl  Cl518  1  0.14159896  0.80917828  0.74897906  1
  Cl  Cl519  1  0.63554570  0.14374720  0.75255423  1
  Cl  Cl520  1  0.63744145  0.47746644  0.75276192  1
  Cl  Cl521  1  0.63472636  0.81104849  0.75204058  1
  Cl  Cl522  1  0.36032868  0.18900866  0.24966329  1
  Cl  Cl523  1  0.36042750  0.52070017  0.24749107  1
  Cl  Cl524  1  0.36274007  0.85404520  0.25029136  1
  Cl  Cl525  1  0.86179016  0.18872840  0.25405027  1
  Cl  Cl526  1  0.86038022  0.52282505  0.24815473  1
  Cl  Cl527  1  0.86113837  0.85432783  0.25167090  1
  Cl  Cl528  1  0.11203005  0.31208306  0.75227057  1
  Cl  Cl529  1  0.11013057  0.64477356  0.74883587  1
  Cl  Cl530  1  0.11454996  0.97735989  0.74904931  1
  Cl  Cl531  1  0.61101569  0.31095333  0.74826341  1
  Cl  Cl532  1  0.61425736  0.64464989  0.74742789  1
  Cl  Cl533  1  0.60672386  0.97676671  0.75081264  1
  Cl  Cl534  1  0.39146779  0.02264987  0.24968291  1
  Cl  Cl535  1  0.38992780  0.35407531  0.24925356  1
  Cl  Cl536  1  0.38639887  0.68801165  0.25149704  1
  Cl  Cl537  1  0.88954995  0.02061184  0.25088048  1
  Cl  Cl538  1  0.88786018  0.35491540  0.24897137  1
  Cl  Cl539  1  0.89316751  0.68892711  0.25260519  1
  Cl  Cl540  1  0.38661866  0.31270303  0.75337330  1
  Cl  Cl541  1  0.39323417  0.64450878  0.74826199  1
  Cl  Cl542  1  0.38672631  0.97825581  0.75164480  1
  Cl  Cl543  1  0.88729803  0.31132280  0.74906656  1
  Cl  Cl544  1  0.88698862  0.64498453  0.74982289  1
  Cl  Cl545  1  0.88935290  0.97748247  0.74758599  1
  Cl  Cl546  1  0.11304497  0.02109151  0.24890128  1
  Cl  Cl547  1  0.11060777  0.35678029  0.24813117  1
  Cl  Cl548  1  0.11399236  0.68941582  0.25234547  1
  Cl  Cl549  1  0.60825206  0.02321982  0.24614585  1
  Cl  Cl550  1  0.61307583  0.35569453  0.24687465  1
  Cl  Cl551  1  0.60594842  0.68805461  0.24886591  1
