# generated using pymatgen
data_H8PbC4(N3Cl2)2
_symmetry_space_group_name_H-M   'P 1'
_cell_length_a   16.62239982
_cell_length_b   22.50184064
_cell_length_c   21.58904496
_cell_angle_alpha   89.99990254
_cell_angle_beta   90.01145495
_cell_angle_gamma   90.00248527
_symmetry_Int_Tables_number   1
_chemical_formula_structural   H8PbC4(N3Cl2)2
_chemical_formula_sum   'H192 Pb24 C96 N144 Cl96'
_cell_volume   8075.04944994
_cell_formula_units_Z   24
loop_
 _symmetry_equiv_pos_site_id
 _symmetry_equiv_pos_as_xyz
  1  'x, y, z'
loop_
 _atom_site_type_symbol
 _atom_site_label
 _atom_site_symmetry_multiplicity
 _atom_site_fract_x
 _atom_site_fract_y
 _atom_site_fract_z
 _atom_site_occupancy
  H  H0  1  -0.00438971  0.03269482  0.68044277  1
  H  H1  1  0.00114032  0.36658959  0.68072392  1
  H  H2  1  0.00148218  0.69759171  0.68284701  1
  H  H3  1  0.50441769  0.03361369  0.68063371  1
  H  H4  1  0.50780975  0.36454944  0.68158932  1
  H  H5  1  0.49539986  0.69923584  0.68120071  1
  H  H6  1  0.00248088  0.30152552  0.18324719  1
  H  H7  1  -0.00145537  0.63302317  0.18027220  1
  H  H8  1  0.00180960  0.96679230  0.18114167  1
  H  H9  1  0.49497185  0.30293821  0.17966878  1
  H  H10  1  0.50672834  0.63680445  0.17891547  1
  H  H11  1  0.49645146  0.96865264  0.17792033  1
  H  H12  1  -0.00474905  0.03092682  0.81913776  1
  H  H13  1  0.00923745  0.36654675  0.82147835  1
  H  H14  1  -0.00064287  0.69463992  0.82135301  1
  H  H15  1  0.50143645  0.03229916  0.82399697  1
  H  H16  1  0.48930067  0.36618857  0.82271851  1
  H  H17  1  0.49753910  0.69992037  0.82020626  1
  H  H18  1  -0.00275552  0.30032643  0.31939036  1
  H  H19  1  0.00314538  0.63596863  0.32166697  1
  H  H20  1  -0.00593174  0.96705467  0.31776516  1
  H  H21  1  0.50169001  0.30126976  0.31923535  1
  H  H22  1  0.49796699  0.63422254  0.31796361  1
  H  H23  1  0.49831308  0.96767137  0.32026489  1
  H  H24  1  0.24418825  0.19857001  0.67894613  1
  H  H25  1  0.24962511  0.53081238  0.68232684  1
  H  H26  1  0.25601091  0.86556454  0.68057693  1
  H  H27  1  0.75500362  0.19815908  0.68083801  1
  H  H28  1  0.74812901  0.53191419  0.67810654  1
  H  H29  1  0.75278616  0.86644406  0.68125414  1
  H  H30  1  0.25350751  0.13440830  0.18183675  1
  H  H31  1  0.25138688  0.46701306  0.17642440  1
  H  H32  1  0.24177332  0.80173860  0.18144001  1
  H  H33  1  0.75133893  0.13301164  0.18040533  1
  H  H34  1  0.75138159  0.46766717  0.17966995  1
  H  H35  1  0.75549171  0.80052202  0.18109282  1
  H  H36  1  0.24228026  0.19751491  0.82038787  1
  H  H37  1  0.25278876  0.53077704  0.82010309  1
  H  H38  1  0.24815018  0.86726213  0.81898805  1
  H  H39  1  0.74645397  0.19843192  0.81675060  1
  H  H40  1  0.74405593  0.53120027  0.82164513  1
  H  H41  1  0.75863814  0.86559912  0.82142976  1
  H  H42  1  0.24977612  0.13636310  0.31889554  1
  H  H43  1  0.25144409  0.46772800  0.31817844  1
  H  H44  1  0.25296108  0.80100558  0.31752346  1
  H  H45  1  0.75296185  0.13438508  0.31792797  1
  H  H46  1  0.74227335  0.46889784  0.31851691  1
  H  H47  1  0.75227816  0.80208299  0.31885570  1
  H  H48  1  0.13010279  0.05184216  0.61808067  1
  H  H49  1  0.12517679  0.38569088  0.60907855  1
  H  H50  1  0.12695022  0.72069687  0.61147749  1
  H  H51  1  0.62762015  0.05320386  0.60812137  1
  H  H52  1  0.61929567  0.39082257  0.59950168  1
  H  H53  1  0.63020157  0.71827232  0.61930737  1
  H  H54  1  0.37159539  0.28077276  0.10604869  1
  H  H55  1  0.37000500  0.61444733  0.12193319  1
  H  H56  1  0.37729552  0.94583700  0.10197883  1
  H  H57  1  0.87154975  0.28090956  0.12013647  1
  H  H58  1  0.86755967  0.61335166  0.11595803  1
  H  H59  1  0.87032745  0.94685701  0.11735187  1
  H  H60  1  0.37838221  0.05224165  0.89370649  1
  H  H61  1  0.37746724  0.38954321  0.90128408  1
  H  H62  1  0.37589516  0.72359314  0.89285087  1
  H  H63  1  0.87862325  0.05470080  0.89680352  1
  H  H64  1  0.87392315  0.38627933  0.88179216  1
  H  H65  1  0.87536329  0.72214723  0.89091389  1
  H  H66  1  0.12938723  0.28196347  0.38276160  1
  H  H67  1  0.12221163  0.61055698  0.39630696  1
  H  H68  1  0.13230500  0.94877551  0.37451594  1
  H  H69  1  0.62396738  0.27824028  0.39270422  1
  H  H70  1  0.62482028  0.61270596  0.38504837  1
  H  H71  1  0.63139662  0.94832423  0.38348411  1
  H  H72  1  0.37522224  0.21881761  0.61269747  1
  H  H73  1  0.37348576  0.55445496  0.60971110  1
  H  H74  1  0.36660444  0.89245180  0.59872340  1
  H  H75  1  0.87054333  0.22417412  0.60300892  1
  H  H76  1  0.87621963  0.55357838  0.61030634  1
  H  H77  1  0.86889124  0.88953588  0.60221969  1
  H  H78  1  0.12371714  0.11203940  0.11361325  1
  H  H79  1  0.12645698  0.44691261  0.10812933  1
  H  H80  1  0.12812834  0.77707472  0.10155092  1
  H  H81  1  0.61863511  0.11489266  0.11706590  1
  H  H82  1  0.62596003  0.44543890  0.11100261  1
  H  H83  1  0.62201867  0.78135014  0.11979783  1
  H  H84  1  0.13259688  0.22519549  0.90285965  1
  H  H85  1  0.12951177  0.55189316  0.89134466  1
  H  H86  1  0.13042320  0.88797287  0.89363112  1
  H  H87  1  0.62626360  0.21997359  0.89167504  1
  H  H88  1  0.63462054  0.55959018  0.90286431  1
  H  H89  1  0.62508760  0.88512782  0.88420839  1
  H  H90  1  0.36901118  0.11150165  0.39533944  1
  H  H91  1  0.37551816  0.44514886  0.38990997  1
  H  H92  1  0.36941724  0.77886120  0.39376880  1
  H  H93  1  0.87072674  0.11080374  0.39409318  1
  H  H94  1  0.87758254  0.44939594  0.37968035  1
  H  H95  1  0.87163698  0.77769452  0.39266923  1
  H  H96  1  0.37537277  0.27900657  0.38688547  1
  H  H97  1  0.37530117  0.61259272  0.38900146  1
  H  H98  1  0.38294832  0.94336344  0.39867310  1
  H  H99  1  0.88057412  0.27910576  0.39476722  1
  H  H100  1  0.87362819  0.61344382  0.38567589  1
  H  H101  1  0.88481194  0.94346581  0.39863872  1
  H  H102  1  0.12785967  0.05101791  0.88180580  1
  H  H103  1  0.12134930  0.39083507  0.90209758  1
  H  H104  1  0.12419485  0.72018796  0.89063310  1
  H  H105  1  0.62720293  0.05325904  0.89132539  1
  H  H106  1  0.62441382  0.38430519  0.88043072  1
  H  H107  1  0.62472071  0.72091290  0.88973532  1
  H  H108  1  0.12061357  0.28133200  0.10768340  1
  H  H109  1  0.11556209  0.60887659  0.10269631  1
  H  H110  1  0.11952415  0.94567880  0.10656217  1
  H  H111  1  0.62002484  0.27965811  0.10923960  1
  H  H112  1  0.61515955  0.60979236  0.09513755  1
  H  H113  1  0.62561637  0.94703906  0.11017630  1
  H  H114  1  0.37831670  0.05329694  0.61346146  1
  H  H115  1  0.37251658  0.38452650  0.62112252  1
  H  H116  1  0.38168415  0.72238786  0.60249858  1
  H  H117  1  0.88127432  0.05524344  0.60238315  1
  H  H118  1  0.87603844  0.38783289  0.61277991  1
  H  H119  1  0.87856862  0.72039553  0.60869739  1
  H  H120  1  0.12053649  0.11347626  0.38696889  1
  H  H121  1  0.12645073  0.44598932  0.38988049  1
  H  H122  1  0.12053143  0.78162097  0.37912205  1
  H  H123  1  0.62163752  0.11380392  0.38490596  1
  H  H124  1  0.63088937  0.44172744  0.40035405  1
  H  H125  1  0.62275841  0.78101200  0.38641407  1
  H  H126  1  0.37852952  0.21639760  0.87953613  1
  H  H127  1  0.37913124  0.55311669  0.89050547  1
  H  H128  1  0.37944856  0.88575652  0.88335020  1
  H  H129  1  0.87536072  0.22092195  0.88518396  1
  H  H130  1  0.88120577  0.54824799  0.88035415  1
  H  H131  1  0.87303409  0.88991399  0.89992599  1
  H  H132  1  0.37199570  0.11136612  0.10418967  1
  H  H133  1  0.37546220  0.44533410  0.10803709  1
  H  H134  1  0.37639511  0.78209700  0.11875656  1
  H  H135  1  0.86768214  0.11025684  0.10518132  1
  H  H136  1  0.87582793  0.44533014  0.10827567  1
  H  H137  1  0.87027612  0.77969775  0.10369372  1
  H  H138  1  0.12724607  0.22375896  0.60196120  1
  H  H139  1  0.12522231  0.55306652  0.60961653  1
  H  H140  1  0.11940954  0.88430296  0.62309610  1
  H  H141  1  0.62163060  0.21683490  0.61900185  1
  H  H142  1  0.62738138  0.55637115  0.60589625  1
  H  H143  1  0.62128334  0.88815069  0.61623987  1
  H  H144  1  0.09759115  0.08135647  0.51127850  1
  H  H145  1  0.20566223  0.25172709  1.00294286  1
  H  H146  1  0.68030767  0.24657790  0.99953829  1
  H  H147  1  0.93171954  0.73998961  0.99857029  1
  H  H148  1  0.83526026  0.58213986  0.50468421  1
  H  H149  1  0.42329743  0.25190617  0.00319624  1
  H  H150  1  0.33497673  0.24665190  0.50675177  1
  H  H151  1  0.58653850  0.58504149  0.49667664  1
  H  H152  1  0.85678986  0.58298019  0.98728260  1
  H  H153  1  0.93758859  0.25324542  0.50591324  1
  H  H154  1  0.42144331  0.58393727  0.49912493  1
  H  H155  1  0.81611749  0.74892051  0.50079862  1
  H  H156  1  0.06647619  0.25572190  -0.00224508  1
  H  H157  1  0.31296555  0.75029648  0.50259022  1
  H  H158  1  0.59858835  0.74777414  0.51216400  1
  H  H159  1  0.44733843  0.91916251  0.50273918  1
  H  H160  1  0.19458865  0.75321731  -0.00557587  1
  H  H161  1  0.65239698  0.24528177  0.50673516  1
  H  H162  1  0.70189488  0.41764200  0.50149173  1
  H  H163  1  0.29815294  0.91501440  0.49691377  1
  H  H164  1  0.41981967  0.08319255  0.50090488  1
  H  H165  1  0.90472552  0.25408641  0.00724349  1
  H  H166  1  0.80976436  0.08366463  -0.00588786  1
  H  H167  1  0.93994289  0.07469884  1.00157127  1
  H  H168  1  0.14140080  0.91477768  0.50941734  1
  H  H169  1  0.82872120  0.41691563  0.00383391  1
  H  H170  1  0.17722894  0.57845257  1.00212068  1
  H  H171  1  0.44363374  0.74692643  0.49383448  1
  H  H172  1  0.95193539  0.91509184  0.50594369  1
  H  H173  1  0.54774712  0.41390215  0.49788347  1
  H  H174  1  0.80321800  0.91553089  0.49926635  1
  H  H175  1  0.06966264  0.74125674  0.99782770  1
  H  H176  1  0.15131059  0.75259735  0.49187317  1
  H  H177  1  0.06342898  0.91909498  -0.00484949  1
  H  H178  1  0.66596194  0.41530417  0.00068817  1
  H  H179  1  0.58231814  0.91936980  0.00471452  1
  H  H180  1  0.33458794  0.57893419  0.99583538  1
  H  H181  1  0.81059662  0.08367604  0.50238335  1
  H  H182  1  0.81054436  0.75624973  -0.00709626  1
  H  H183  1  0.70730484  0.57740949  1.00512291  1
  H  H184  1  0.91849285  0.41510477  0.50012309  1
  H  H185  1  0.32600185  0.41811649  0.49879292  1
  H  H186  1  0.18620105  0.91563604  1.00483376  1
  H  H187  1  0.09503405  0.08059889  0.99358640  1
  H  H188  1  0.54108265  0.58461669  -0.00482597  1
  H  H189  1  0.94230605  0.08113373  0.49344557  1
  H  H190  1  0.80787776  0.24681148  0.49885925  1
  H  H191  1  0.06556918  0.58132565  0.49932032  1
  Pb  Pb192  1  0.25224073  0.04592279  0.75056986  1
  Pb  Pb193  1  0.25081002  0.37825632  0.75347935  1
  Pb  Pb194  1  0.24724478  0.71604186  0.74907715  1
  Pb  Pb195  1  0.75191454  0.04783922  0.74940595  1
  Pb  Pb196  1  0.74686363  0.38147311  0.74722206  1
  Pb  Pb197  1  0.75191198  0.71303935  0.75044565  1
  Pb  Pb198  1  0.24949151  0.28718250  0.24578149  1
  Pb  Pb199  1  0.24390510  0.61917430  0.24732227  1
  Pb  Pb200  1  0.25528097  0.95202597  0.25111966  1
  Pb  Pb201  1  0.74897024  0.28688981  0.25557932  1
  Pb  Pb202  1  0.74860667  0.61879928  0.24728744  1
  Pb  Pb203  1  0.74680780  0.95276114  0.25598336  1
  Pb  Pb204  1  0.00171965  0.21505815  0.75080144  1
  Pb  Pb205  1  0.00145506  0.54451997  0.74558737  1
  Pb  Pb206  1  -0.00290353  0.88246028  0.75190555  1
  Pb  Pb207  1  0.50030585  0.21152254  0.75236821  1
  Pb  Pb208  1  0.49750033  0.54917932  0.75196569  1
  Pb  Pb209  1  0.50173743  0.88053130  0.74561505  1
  Pb  Pb210  1  -0.00118141  0.11773903  0.24832435  1
  Pb  Pb211  1  0.00053482  0.45361140  0.24919559  1
  Pb  Pb212  1  -0.00160291  0.78778570  0.24093126  1
  Pb  Pb213  1  0.49862894  0.12205907  0.25349341  1
  Pb  Pb214  1  0.49694513  0.45282578  0.25654068  1
  Pb  Pb215  1  0.49678606  0.78486413  0.25688089  1
  C  C216  1  0.00297167  0.04753891  0.63279800  1
  C  C217  1  0.00021001  0.38017248  0.63262066  1
  C  C218  1  0.00222658  0.71256247  0.63504292  1
  C  C219  1  0.50288462  0.04708700  0.63253102  1
  C  C220  1  0.50021440  0.37933648  0.63412885  1
  C  C221  1  0.50307610  0.71404948  0.63357322  1
  C  C222  1  -0.00203608  0.28747881  0.13526098  1
  C  C223  1  -0.00601964  0.61882017  0.13255883  1
  C  C224  1  -0.00250933  0.95287627  0.13324308  1
  C  C225  1  0.49508136  0.28808709  0.13184067  1
  C  C226  1  0.49751092  0.62133111  0.13184541  1
  C  C227  1  0.50019107  0.95415891  0.13007716  1
  C  C228  1  0.00036296  0.04560264  0.86704345  1
  C  C229  1  0.00110248  0.38078295  0.86889576  1
  C  C230  1  -0.00037716  0.71119260  0.86867041  1
  C  C231  1  0.50236819  0.04656854  0.87211993  1
  C  C232  1  0.49728538  0.38018189  0.87033478  1
  C  C233  1  0.49966059  0.71451914  0.86786104  1
  C  C234  1  0.00220781  0.28702677  0.36738927  1
  C  C235  1  0.00000525  0.62042854  0.36906048  1
  C  C236  1  0.00357019  0.95331874  0.36532979  1
  C  C237  1  0.50063503  0.28650510  0.36678409  1
  C  C238  1  0.49947076  0.61968150  0.36595875  1
  C  C239  1  0.50415501  0.95405454  0.36812310  1
  C  C240  1  0.24920597  0.21337398  0.63128771  1
  C  C241  1  0.24949779  0.54582091  0.63455888  1
  C  C242  1  0.24747139  0.87999476  0.63291471  1
  C  C243  1  0.74929514  0.21315787  0.63313749  1
  C  C244  1  0.75105110  0.54711341  0.63053100  1
  C  C245  1  0.74760281  0.88063345  0.63339903  1
  C  C246  1  0.24961675  0.11990817  0.13401584  1
  C  C247  1  0.25110601  0.45257237  0.12833956  1
  C  C248  1  0.24886133  0.78717947  0.13386754  1
  C  C249  1  0.74616368  0.11938427  0.13246914  1
  C  C250  1  0.75151345  0.45257327  0.13180691  1
  C  C251  1  0.74953203  0.78683241  0.13324974  1
  C  C252  1  0.25078520  0.21244002  0.86771495  1
  C  C253  1  0.25431705  0.54568951  0.86799191  1
  C  C254  1  0.25240024  0.88041097  0.86710609  1
  C  C255  1  0.74968210  0.21317257  0.86453885  1
  C  C256  1  0.75360845  0.54609367  0.86909341  1
  C  C257  1  0.75190979  0.87995264  0.86892593  1
  C  C258  1  0.24633394  0.12094036  0.36642257  1
  C  C259  1  0.25121193  0.45305225  0.36598026  1
  C  C260  1  0.24733175  0.78672017  0.36536832  1
  C  C261  1  0.74813492  0.11980666  0.36568025  1
  C  C262  1  0.74987336  0.45388762  0.36589911  1
  C  C263  1  0.74857113  0.78686115  0.36647974  1
  C  C264  1  0.06360729  0.92957960  0.45310818  1
  C  C265  1  0.30237716  0.90366845  0.95825900  1
  C  C266  1  0.77675471  0.09393445  0.46051204  1
  C  C267  1  0.97235549  0.26261735  0.46435441  1
  C  C268  1  0.02408607  0.40873678  0.96444922  1
  C  C269  1  0.05163435  0.07139675  0.95706788  1
  C  C270  1  0.55291221  0.40492563  0.95891497  1
  C  C271  1  0.95033439  0.59244022  0.46006346  1
  C  C272  1  0.69649405  0.23768604  0.54325200  1
  C  C273  1  0.77799049  0.90811459  0.96401873  1
  C  C274  1  0.21045614  0.42634761  0.03667283  1
  C  C275  1  0.02830444  0.92811676  0.03661394  1
  C  C276  1  0.22133437  0.90508624  0.96374656  1
  C  C277  1  0.94849342  0.26374096  0.04336628  1
  C  C278  1  0.46387605  0.07215630  0.96456516  1
  C  C279  1  0.95906281  0.40483042  0.53807386  1
  C  C280  1  0.19601006  0.76201035  0.45633123  1
  C  C281  1  0.47241663  0.40710887  0.96565619  1
  C  C282  1  0.97451001  0.07237418  0.53646834  1
  C  C283  1  0.46536509  0.74201895  0.96116123  1
  C  C284  1  0.46061864  0.07243447  0.53857661  1
  C  C285  1  0.18924777  0.90550109  0.54503942  1
  C  C286  1  0.46117768  0.59445643  0.46070719  1
  C  C287  1  0.71745109  0.23729274  0.95915454  1
  C  C288  1  0.94673947  0.59500398  0.04093142  1
  C  C289  1  0.94704176  0.92845789  0.04215808  1
  C  C290  1  0.70896764  0.42594943  0.03899302  1
  C  C291  1  0.28730704  0.42779166  0.45943048  1
  C  C292  1  0.05348434  0.26388413  0.45829849  1
  C  C293  1  0.47553808  0.73850384  0.53703689  1
  C  C294  1  0.71343782  0.57563308  0.53597237  1
  C  C295  1  0.54425786  0.07257533  0.96370085  1
  C  C296  1  0.29068836  0.42578048  0.03659596  1
  C  C297  1  0.98310855  0.92688368  0.46323635  1
  C  C298  1  0.77976072  0.75975298  0.46040165  1
  C  C299  1  0.54221075  0.07144536  0.53825206  1
  C  C300  1  0.04057854  0.40364081  0.53841977  1
  C  C301  1  0.45907827  0.25905185  0.45888974  1
  C  C302  1  0.69412398  0.09570704  0.04168987  1
  C  C303  1  0.21504229  0.57026417  0.96195502  1
  C  C304  1  0.27789225  0.76087814  0.46149558  1
  C  C305  1  0.77697497  0.76364235  0.03544980  1
  C  C306  1  0.77541362  0.09408848  0.03563008  1
  C  C307  1  0.69607369  0.76361147  0.04301895  1
  C  C308  1  0.54344925  0.59464396  0.45936272  1
  C  C309  1  0.03045527  0.26418667  0.03883800  1
  C  C310  1  0.22566261  0.76215131  0.03781117  1
  C  C311  1  0.55756681  0.92829881  0.45869967  1
  N  N312  1  0.47889028  0.92729558  0.46283059  1
  N  N313  1  0.02427670  0.59322501  0.03533797  1
  N  N314  1  0.69556269  0.90553450  0.54298789  1
  N  N315  1  0.23264145  0.24191858  0.96140643  1
  N  N316  1  0.28770865  0.57312989  0.54103445  1
  N  N317  1  0.04011378  0.74733938  0.95646636  1
  N  N318  1  0.54216987  0.92883419  0.03972471  1
  N  N319  1  0.29359844  0.23818042  0.54140317  1
  N  N320  1  0.55458089  0.73783262  0.54432526  1
  N  N321  1  0.96042202  0.74730872  0.95695288  1
  N  N322  1  0.21077475  0.57271534  0.54106109  1
  N  N323  1  0.70053074  0.90673849  0.96013136  1
  N  N324  1  0.79265071  0.57390093  0.53894716  1
  N  N325  1  0.77584823  0.24158372  0.53907390  1
  N  N326  1  0.04228526  0.73959504  0.54193850  1
  N  N327  1  0.20808314  0.42711049  0.45966825  1
  N  N328  1  0.80717268  0.42977253  0.45444632  1
  N  N329  1  0.54275916  0.74077080  0.96166028  1
  N  N330  1  0.02964469  0.59157200  0.46242994  1
  N  N331  1  0.46409525  0.92839745  0.03533888  1
  N  N332  1  0.26828027  0.90856760  0.53809203  1
  N  N333  1  0.43729868  0.59321528  0.04564878  1
  N  N334  1  0.70036010  0.76060385  0.45861633  1
  N  N335  1  0.79671688  0.23773950  0.95749242  1
  N  N336  1  0.21565048  0.24019628  0.53627571  1
  N  N337  1  0.27865903  0.09365189  0.46118320  1
  N  N338  1  0.73265129  0.58039394  0.96155608  1
  N  N339  1  0.81009063  0.56741774  0.95667436  1
  N  N340  1  0.51480191  0.59123487  0.03809249  1
  N  N341  1  0.20197757  0.09446685  0.45849046  1
  N  N342  1  0.52043561  0.40740596  0.54021205  1
  N  N343  1  0.05363177  0.07199381  0.54355320  1
  N  N344  1  0.44271958  0.40487328  0.54606381  1
  N  N345  1  0.31016187  0.23830218  0.95497987  1
  N  N346  1  0.77338947  0.90552465  0.53945463  1
  N  N347  1  0.94675466  0.40695453  0.95948455  1
  N  N348  1  0.69760531  0.09468526  0.45728749  1
  N  N349  1  0.96581272  0.73990815  0.54108699  1
  N  N350  1  0.30444839  0.76285385  0.04372148  1
  N  N351  1  0.72971706  0.42623890  0.45997975  1
  N  N352  1  0.28100451  0.09411457  0.03855882  1
  N  N353  1  0.78898281  0.42624684  0.03914034  1
  N  N354  1  0.29471663  0.57142994  0.96004912  1
  N  N355  1  0.53881651  0.26171855  0.03928604  1
  N  N356  1  0.20483650  0.09490841  0.04148638  1
  N  N357  1  0.97210839  0.07340803  0.96111582  1
  N  N358  1  0.53706343  0.25898440  0.46192777  1
  N  N359  1  0.46048003  0.26249737  0.03967806  1
  N  N360  1  0.07091057  0.05756801  0.60300107  1
  N  N361  1  0.06514273  0.38902279  0.59542966  1
  N  N362  1  0.06628362  0.72253275  0.59996998  1
  N  N363  1  0.56771083  0.05640451  0.59491067  1
  N  N364  1  0.55703265  0.38959589  0.59266783  1
  N  N365  1  0.57131115  0.72372508  0.60395273  1
  N  N366  1  0.43244194  0.27862301  0.09546120  1
  N  N367  1  0.42741954  0.61037391  0.10461883  1
  N  N368  1  0.43837942  0.94424569  0.09198313  1
  N  N369  1  0.92989099  0.27794597  0.10345361  1
  N  N370  1  0.92592638  0.61025133  0.10013093  1
  N  N371  1  0.92895616  0.94321537  0.10058224  1
  N  N372  1  0.43760301  0.05646775  0.90879385  1
  N  N373  1  0.43850681  0.39217744  0.91169383  1
  N  N374  1  0.43600735  0.72605197  0.90486991  1
  N  N375  1  0.94063582  0.05467365  0.90636426  1
  N  N376  1  0.93254571  0.38921449  0.89832077  1
  N  N377  1  0.93600434  0.72244157  0.90360963  1
  N  N378  1  0.07105019  0.27837865  0.39980118  1
  N  N379  1  0.06092325  0.60961201  0.40645173  1
  N  N380  1  0.07566486  0.94521228  0.39381082  1
  N  N381  1  0.56290244  0.27637479  0.40323449  1
  N  N382  1  0.56551413  0.61022007  0.40004365  1
  N  N383  1  0.57348205  0.94436700  0.39994399  1
  N  N384  1  0.31542872  0.22162719  0.59863454  1
  N  N385  1  0.31268864  0.55666815  0.59889437  1
  N  N386  1  0.30424338  0.89045599  0.59142575  1
  N  N387  1  0.80859078  0.22427108  0.59397774  1
  N  N388  1  0.81626703  0.55595282  0.59702281  1
  N  N389  1  0.80690153  0.88967618  0.59366944  1
  N  N390  1  0.18389370  0.11107890  0.10069323  1
  N  N391  1  0.18546763  0.44255009  0.09272365  1
  N  N392  1  0.18976796  0.77662172  0.09297708  1
  N  N393  1  0.67708238  0.11075708  0.10019675  1
  N  N394  1  0.68587739  0.44228403  0.09670768  1
  N  N395  1  0.68000065  0.77743080  0.10188255  1
  N  N396  1  0.19478489  0.22454480  0.90925727  1
  N  N397  1  0.18971155  0.55517148  0.90458450  1
  N  N398  1  0.19090084  0.89016902  0.90558003  1
  N  N399  1  0.68723754  0.22259098  0.90251367  1
  N  N400  1  0.69685554  0.55721785  0.91069958  1
  N  N401  1  0.68433442  0.88866837  0.89953623  1
  N  N402  1  0.30726228  0.10962364  0.40425404  1
  N  N403  1  0.31545944  0.44337280  0.40214915  1
  N  N404  1  0.30847966  0.77632935  0.40445427  1
  N  N405  1  0.80949842  0.10912177  0.40455875  1
  N  N406  1  0.81904912  0.44507243  0.39540955  1
  N  N407  1  0.81065777  0.77551339  0.40430663  1
  N  N408  1  0.43488436  0.27573229  0.40139582  1
  N  N409  1  0.43533488  0.61005845  0.40230154  1
  N  N410  1  0.44477107  0.94478261  0.40770569  1
  N  N411  1  0.94122615  0.27709298  0.40627883  1
  N  N412  1  0.93211135  0.60988009  0.40213776  1
  N  N413  1  0.94667089  0.94225399  0.40719815  1
  N  N414  1  0.06923048  0.05572111  0.89823845  1
  N  N415  1  0.05969999  0.39283768  0.91042469  1
  N  N416  1  0.06366682  0.72125433  0.90358006  1
  N  N417  1  0.56845444  0.05709237  0.90716436  1
  N  N418  1  0.56770565  0.38870964  0.90009197  1
  N  N419  1  0.56436058  0.72360814  0.90208489  1
  N  N420  1  0.05984355  0.27882727  0.09652133  1
  N  N421  1  0.05365931  0.60840234  0.09384902  1
  N  N422  1  0.05900047  0.94323627  0.09469610  1
  N  N423  1  0.55953148  0.27784437  0.09674872  1
  N  N424  1  0.55284242  0.61087664  0.08932165  1
  N  N425  1  0.56551889  0.94460574  0.09678081  1
  N  N426  1  0.43745267  0.05698738  0.59836480  1
  N  N427  1  0.43094201  0.38911870  0.60509269  1
  N  N428  1  0.44311061  0.72399542  0.59253404  1
  N  N429  1  0.94275415  0.05736494  0.59199481  1
  N  N430  1  0.93504146  0.38999338  0.59797524  1
  N  N431  1  0.93975861  0.72343147  0.59870277  1
  N  N432  1  0.18073080  0.11162849  0.39984202  1
  N  N433  1  0.18739992  0.44284527  0.40123623  1
  N  N434  1  0.17858696  0.77793235  0.39645316  1
  N  N435  1  0.68159594  0.11054608  0.39819756  1
  N  N436  1  0.69305321  0.44295179  0.40714457  1
  N  N437  1  0.68269332  0.77743288  0.39939972  1
  N  N438  1  0.32059111  0.22106015  0.89626244  1
  N  N439  1  0.31873724  0.55543160  0.90241136  1
  N  N440  1  0.32080245  0.88902168  0.90003493  1
  N  N441  1  0.81520661  0.22270284  0.89802564  1
  N  N442  1  0.82336192  0.55507280  0.89701153  1
  N  N443  1  0.81182426  0.89196411  0.90931990  1
  N  N444  1  0.31025538  0.10948367  0.09558506  1
  N  N445  1  0.31635645  0.44159864  0.09254442  1
  N  N446  1  0.31703415  0.77842369  0.10337534  1
  N  N447  1  0.80700226  0.10906028  0.09348387  1
  N  N448  1  0.81487109  0.44271361  0.09638482  1
  N  N449  1  0.80953140  0.77786789  0.09320022  1
  N  N450  1  0.18840881  0.22501342  0.59276676  1
  N  N451  1  0.18616450  0.55572222  0.59883037  1
  N  N452  1  0.17633494  0.88879806  0.60428720  1
  N  N453  1  0.67984150  0.22151026  0.60203621  1
  N  N454  1  0.68752453  0.55918195  0.59279852  1
  N  N455  1  0.68006371  0.89042219  0.60189588  1
  Cl  Cl456  1  0.25217398  0.04900187  0.61809832  1
  Cl  Cl457  1  0.24936539  0.38409127  0.61947030  1
  Cl  Cl458  1  0.25499522  0.72295792  0.61470589  1
  Cl  Cl459  1  0.75833274  0.05350228  0.61511819  1
  Cl  Cl460  1  0.73946911  0.39201513  0.60604470  1
  Cl  Cl461  1  0.75512747  0.71720320  0.61482039  1
  Cl  Cl462  1  0.24654616  0.27804783  0.10694278  1
  Cl  Cl463  1  0.24122260  0.60962736  0.11045178  1
  Cl  Cl464  1  0.24957781  0.94508995  0.11836677  1
  Cl  Cl465  1  0.74281199  0.28098482  0.12257241  1
  Cl  Cl466  1  0.73774762  0.60678726  0.10384093  1
  Cl  Cl467  1  0.74617668  0.94856840  0.12430947  1
  Cl  Cl468  1  0.25142372  0.04868022  0.87849239  1
  Cl  Cl469  1  0.24776839  0.38548001  0.88570526  1
  Cl  Cl470  1  0.24586909  0.72052363  0.88474589  1
  Cl  Cl471  1  0.75786415  0.05228818  0.88337391  1
  Cl  Cl472  1  0.75047249  0.39062024  0.88170760  1
  Cl  Cl473  1  0.75323744  0.71956829  0.88448366  1
  Cl  Cl474  1  0.25418594  0.28053590  0.37788525  1
  Cl  Cl475  1  0.24685256  0.61381956  0.37797184  1
  Cl  Cl476  1  0.26275911  0.94030169  0.39188092  1
  Cl  Cl477  1  0.75255825  0.27640974  0.39472215  1
  Cl  Cl478  1  0.75074911  0.61151149  0.38035050  1
  Cl  Cl479  1  0.76151089  0.94317137  0.39258725  1
  Cl  Cl480  1  -0.00376359  0.22071329  0.61504827  1
  Cl  Cl481  1  0.00159704  0.55523555  0.60785503  1
  Cl  Cl482  1  -0.01083712  0.88902141  0.61589850  1
  Cl  Cl483  1  0.49698289  0.21826089  0.62049924  1
  Cl  Cl484  1  0.50054503  0.55391016  0.61775219  1
  Cl  Cl485  1  0.48891476  0.89109256  0.60509145  1
  Cl  Cl486  1  -0.00419494  0.10662793  0.11087858  1
  Cl  Cl487  1  -0.00144841  0.44867279  0.11819285  1
  Cl  Cl488  1  0.00206591  0.77147103  0.09885511  1
  Cl  Cl489  1  0.49392761  0.11712121  0.12129591  1
  Cl  Cl490  1  0.50286296  0.44976579  0.12556096  1
  Cl  Cl491  1  0.49915788  0.78413618  0.12732751  1
  Cl  Cl492  1  0.00878281  0.22163687  0.88652492  1
  Cl  Cl493  1  0.00439004  0.55016778  0.87694354  1
  Cl  Cl494  1  0.00077692  0.88667596  0.88460239  1
  Cl  Cl495  1  0.50214657  0.22020491  0.88627938  1
  Cl  Cl496  1  0.51144429  0.55842120  0.89536162  1
  Cl  Cl497  1  0.50298952  0.88593364  0.87757678  1
  Cl  Cl498  1  -0.00427464  0.11078794  0.38716007  1
  Cl  Cl499  1  0.00187178  0.45024450  0.38375780  1
  Cl  Cl500  1  -0.00654837  0.78127670  0.37134488  1
  Cl  Cl501  1  0.49287402  0.11262968  0.38778715  1
  Cl  Cl502  1  0.50972535  0.43981933  0.39557180  1
  Cl  Cl503  1  0.49561545  0.78041228  0.39322760  1
  Cl  Cl504  1  0.36104000  0.14659083  0.75071431  1
  Cl  Cl505  1  0.36399463  0.47864082  0.75054828  1
  Cl  Cl506  1  0.36203086  0.81126573  0.75000514  1
  Cl  Cl507  1  0.86245463  0.14407659  0.75197640  1
  Cl  Cl508  1  0.86300973  0.47879358  0.75015816  1
  Cl  Cl509  1  0.86124161  0.81159421  0.75191309  1
  Cl  Cl510  1  0.13574267  0.19044215  0.24901896  1
  Cl  Cl511  1  0.13773913  0.52203269  0.24848997  1
  Cl  Cl512  1  0.13508468  0.85615427  0.25381959  1
  Cl  Cl513  1  0.63648317  0.18813697  0.25098220  1
  Cl  Cl514  1  0.64245990  0.52255971  0.25067544  1
  Cl  Cl515  1  0.63933114  0.85613482  0.25257647  1
  Cl  Cl516  1  0.13779490  0.14434921  0.74778027  1
  Cl  Cl517  1  0.13838477  0.47826583  0.74874243  1
  Cl  Cl518  1  0.13882762  0.80929773  0.74754129  1
  Cl  Cl519  1  0.63935860  0.14454118  0.74536743  1
  Cl  Cl520  1  0.64356711  0.47761963  0.74998917  1
  Cl  Cl521  1  0.63607940  0.81136781  0.74552355  1
  Cl  Cl522  1  0.36108466  0.19015993  0.25042432  1
  Cl  Cl523  1  0.36388989  0.52261067  0.24862733  1
  Cl  Cl524  1  0.36023111  0.85497286  0.25036966  1
  Cl  Cl525  1  0.86253806  0.18852665  0.24941984  1
  Cl  Cl526  1  0.86209233  0.52261256  0.25081268  1
  Cl  Cl527  1  0.86276873  0.85544047  0.24641613  1
  Cl  Cl528  1  0.11181936  0.31131509  0.74829053  1
  Cl  Cl529  1  0.11159671  0.64546049  0.75142749  1
  Cl  Cl530  1  0.11287517  0.97747918  0.74783445  1
  Cl  Cl531  1  0.61299483  0.31211265  0.75265342  1
  Cl  Cl532  1  0.61413444  0.64460750  0.74816603  1
  Cl  Cl533  1  0.61147135  0.97689067  0.74858863  1
  Cl  Cl534  1  0.38935561  0.01977297  0.25023400  1
  Cl  Cl535  1  0.38958472  0.35656007  0.25068711  1
  Cl  Cl536  1  0.39068990  0.68989330  0.24836260  1
  Cl  Cl537  1  0.88874712  0.02257565  0.24803982  1
  Cl  Cl538  1  0.88445526  0.35619689  0.24949346  1
  Cl  Cl539  1  0.88739137  0.68756876  0.24792490  1
  Cl  Cl540  1  0.38901452  0.31217162  0.74956438  1
  Cl  Cl541  1  0.39275627  0.64305223  0.75027529  1
  Cl  Cl542  1  0.38759295  0.97830393  0.75005744  1
  Cl  Cl543  1  0.88715187  0.31037533  0.75231514  1
  Cl  Cl544  1  0.88728690  0.64392051  0.75207147  1
  Cl  Cl545  1  0.89178267  0.97834867  0.74951583  1
  Cl  Cl546  1  0.11080089  0.02399578  0.25418463  1
  Cl  Cl547  1  0.11051889  0.35549515  0.25306928  1
  Cl  Cl548  1  0.11227433  0.68877868  0.24841074  1
  Cl  Cl549  1  0.61337188  0.02277124  0.25253906  1
  Cl  Cl550  1  0.61360943  0.35495615  0.25131287  1
  Cl  Cl551  1  0.61326814  0.68877042  0.25171272  1
