# generated using pymatgen
data_H8PbC4(N3Cl2)2
_symmetry_space_group_name_H-M   'P 1'
_cell_length_a   16.62026113
_cell_length_b   22.50293193
_cell_length_c   21.58937367
_cell_angle_alpha   89.99920325
_cell_angle_beta   90.00368606
_cell_angle_gamma   89.99572256
_symmetry_Int_Tables_number   1
_chemical_formula_structural   H8PbC4(N3Cl2)2
_chemical_formula_sum   'H192 Pb24 C96 N144 Cl96'
_cell_volume   8074.52513244
_cell_formula_units_Z   24
loop_
 _symmetry_equiv_pos_site_id
 _symmetry_equiv_pos_as_xyz
  1  'x, y, z'
loop_
 _atom_site_type_symbol
 _atom_site_label
 _atom_site_symmetry_multiplicity
 _atom_site_fract_x
 _atom_site_fract_y
 _atom_site_fract_z
 _atom_site_occupancy
  H  H0  1  0.00735531  0.03111419  0.67944019  1
  H  H1  1  -0.00148562  0.36503192  0.67826847  1
  H  H2  1  -0.00063994  0.69833917  0.67853436  1
  H  H3  1  0.49605867  0.03167391  0.67900725  1
  H  H4  1  0.50191042  0.36356219  0.67976781  1
  H  H5  1  0.50325001  0.69830042  0.67932395  1
  H  H6  1  -0.01271350  0.30080526  0.18142360  1
  H  H7  1  -0.01044481  0.63390316  0.17836708  1
  H  H8  1  -0.00608042  0.96836354  0.17939058  1
  H  H9  1  0.51148836  0.30283668  0.17971541  1
  H  H10  1  0.50537549  0.63399467  0.18280451  1
  H  H11  1  0.50601727  0.96844500  0.17802426  1
  H  H12  1  0.00808224  0.03261087  0.81870040  1
  H  H13  1  0.00542373  0.36610354  0.81817048  1
  H  H14  1  -0.00776305  0.69779893  0.82251157  1
  H  H15  1  0.49174993  0.03105043  0.81679118  1
  H  H16  1  0.49933155  0.36561659  0.81906464  1
  H  H17  1  0.50841251  0.69977693  0.81715073  1
  H  H18  1  0.00394581  0.30187713  0.32035168  1
  H  H19  1  0.00593102  0.63470485  0.31982400  1
  H  H20  1  -0.00694911  0.96794619  0.32049829  1
  H  H21  1  0.50655207  0.30187519  0.31967585  1
  H  H22  1  0.49372870  0.63593550  0.32096383  1
  H  H23  1  0.50102193  0.96900399  0.32119321  1
  H  H24  1  0.25022054  0.19870423  0.68103493  1
  H  H25  1  0.25740559  0.53109568  0.68058107  1
  H  H26  1  0.24644813  0.86496033  0.68024453  1
  H  H27  1  0.74654944  0.19830098  0.68157583  1
  H  H28  1  0.74858590  0.53047955  0.67955401  1
  H  H29  1  0.75471281  0.86405708  0.67975304  1
  H  H30  1  0.24164721  0.13645513  0.18089371  1
  H  H31  1  0.24525842  0.46828345  0.17872455  1
  H  H32  1  0.25359608  0.80208437  0.18191037  1
  H  H33  1  0.75032754  0.13440356  0.18196494  1
  H  H34  1  0.75028992  0.46826187  0.18251878  1
  H  H35  1  0.74425812  0.80102854  0.18041865  1
  H  H36  1  0.24929547  0.19857528  0.81898483  1
  H  H37  1  0.25015403  0.53113375  0.81990113  1
  H  H38  1  0.24471008  0.86619421  0.82035188  1
  H  H39  1  0.75076758  0.19840324  0.81900880  1
  H  H40  1  0.74621813  0.53417819  0.81838947  1
  H  H41  1  0.75928702  0.86495204  0.81835227  1
  H  H42  1  0.24587922  0.13555636  0.32063633  1
  H  H43  1  0.23762565  0.46499272  0.32205703  1
  H  H44  1  0.25064266  0.80127763  0.31955949  1
  H  H45  1  0.75554842  0.13809264  0.32074904  1
  H  H46  1  0.75742983  0.46741799  0.31950037  1
  H  H47  1  0.74297620  0.80121535  0.31903476  1
  H  H48  1  0.11858867  0.05875145  0.59846084  1
  H  H49  1  0.12505764  0.38632155  0.60840753  1
  H  H50  1  0.12333730  0.72225041  0.60859961  1
  H  H51  1  0.62397332  0.05383261  0.61027230  1
  H  H52  1  0.62481775  0.38844426  0.60762543  1
  H  H53  1  0.62080394  0.72236874  0.60238793  1
  H  H54  1  0.37298943  0.28325183  0.12571636  1
  H  H55  1  0.37299169  0.61511333  0.12090270  1
  H  H56  1  0.37553400  0.95093119  0.11238263  1
  H  H57  1  0.88208039  0.27703375  0.09799138  1
  H  H58  1  0.87654046  0.60968779  0.09872216  1
  H  H59  1  0.88079945  0.94169803  0.09982563  1
  H  H60  1  0.37189153  0.05555714  0.89102171  1
  H  H61  1  0.37174100  0.38683229  0.88649609  1
  H  H62  1  0.37104247  0.71769121  0.87407468  1
  H  H63  1  0.86965286  0.05028907  0.87488961  1
  H  H64  1  0.87504039  0.38697527  0.88648623  1
  H  H65  1  0.87501904  0.72135221  0.89913628  1
  H  H66  1  0.12507818  0.28067472  0.39435987  1
  H  H67  1  0.12840872  0.60945182  0.39315993  1
  H  H68  1  0.12878748  0.94776855  0.37882458  1
  H  H69  1  0.62444973  0.27525031  0.39425340  1
  H  H70  1  0.62881893  0.61549525  0.37964762  1
  H  H71  1  0.62783648  0.94572053  0.38993228  1
  H  H72  1  0.37608998  0.22065399  0.61143345  1
  H  H73  1  0.36789723  0.55592750  0.59915972  1
  H  H74  1  0.37402637  0.88706925  0.61183633  1
  H  H75  1  0.87514449  0.22061159  0.61284431  1
  H  H76  1  0.87272585  0.55429794  0.60799392  1
  H  H77  1  0.86718399  0.88827226  0.60021835  1
  H  H78  1  0.12948291  0.11021567  0.10006023  1
  H  H79  1  0.12766097  0.44440461  0.10177709  1
  H  H80  1  0.12649015  0.77981036  0.11246371  1
  H  H81  1  0.62976413  0.11164957  0.10961461  1
  H  H82  1  0.62591298  0.44652684  0.11305648  1
  H  H83  1  0.62942816  0.77701270  0.10031557  1
  H  H84  1  0.12737240  0.22034459  0.88947620  1
  H  H85  1  0.12459036  0.55464987  0.89064389  1
  H  H86  1  0.12785879  0.88883100  0.89535140  1
  H  H87  1  0.62799319  0.22413334  0.89033951  1
  H  H88  1  0.62994782  0.55426008  0.89441979  1
  H  H89  1  0.62314763  0.88467194  0.87836388  1
  H  H90  1  0.37939938  0.11400008  0.38205545  1
  H  H91  1  0.37482356  0.44931659  0.37784814  1
  H  H92  1  0.37669339  0.78004269  0.38723751  1
  H  H93  1  0.87842901  0.11221607  0.39159103  1
  H  H94  1  0.87320245  0.44269422  0.39890155  1
  H  H95  1  0.87549634  0.78085354  0.38426314  1
  H  H96  1  0.37554055  0.28248028  0.38584168  1
  H  H97  1  0.38154583  0.60802782  0.40111591  1
  H  H98  1  0.37921115  0.94539418  0.39308555  1
  H  H99  1  0.87577183  0.28117803  0.38475680  1
  H  H100  1  0.88004364  0.61231176  0.38960915  1
  H  H101  1  0.88149401  0.94223479  0.40169430  1
  H  H102  1  0.11699175  0.05649198  0.89966064  1
  H  H103  1  0.12331095  0.38839429  0.89673243  1
  H  H104  1  0.12352322  0.72030188  0.88628875  1
  H  H105  1  0.62090693  0.05339382  0.88458832  1
  H  H106  1  0.62043705  0.38898596  0.89339287  1
  H  H107  1  0.61849823  0.72141897  0.89790343  1
  H  H108  1  0.12746475  0.28480961  0.12873245  1
  H  H109  1  0.12406903  0.61379322  0.11756405  1
  H  H110  1  0.12856785  0.94799217  0.11982267  1
  H  H111  1  0.61878980  0.27464193  0.09572374  1
  H  H112  1  0.62193602  0.61204444  0.10652868  1
  H  H113  1  0.62282770  0.93894599  0.10320091  1
  H  H114  1  0.37565495  0.05602679  0.60425824  1
  H  H115  1  0.37497021  0.38567798  0.61224173  1
  H  H116  1  0.37251577  0.72059891  0.61522662  1
  H  H117  1  0.87072821  0.05059934  0.62192401  1
  H  H118  1  0.87600474  0.38862124  0.60638807  1
  H  H119  1  0.87402299  0.72108632  0.60873184  1
  H  H120  1  0.13119740  0.11054814  0.39970785  1
  H  H121  1  0.12874528  0.44233828  0.40325293  1
  H  H122  1  0.12724305  0.77929298  0.38995760  1
  H  H123  1  0.62951704  0.11342737  0.38999913  1
  H  H124  1  0.62505186  0.44680027  0.38491639  1
  H  H125  1  0.62767324  0.77646249  0.39854696  1
  H  H126  1  0.37626408  0.22096652  0.88673470  1
  H  H127  1  0.37293552  0.55467122  0.89205971  1
  H  H128  1  0.37643284  0.88471582  0.88395517  1
  H  H129  1  0.87653614  0.21757301  0.88961523  1
  H  H130  1  0.87884701  0.55283088  0.88148499  1
  H  H131  1  0.87055260  0.88963434  0.89939425  1
  H  H132  1  0.37649533  0.11533408  0.11957588  1
  H  H133  1  0.37618938  0.44618375  0.11308051  1
  H  H134  1  0.37523261  0.77889821  0.10907571  1
  H  H135  1  0.87869344  0.11381427  0.11660903  1
  H  H136  1  0.87563224  0.44836108  0.11305326  1
  H  H137  1  0.87736367  0.78066884  0.11660839  1
  H  H138  1  0.12687624  0.22200271  0.60806616  1
  H  H139  1  0.12051749  0.54958235  0.62051637  1
  H  H140  1  0.12430112  0.88805298  0.60822883  1
  H  H141  1  0.62664173  0.22217174  0.60514202  1
  H  H142  1  0.62328325  0.55470437  0.61106952  1
  H  H143  1  0.61886379  0.88381567  0.61940577  1
  H  H144  1  0.54560765  0.25764250  -0.00573053  1
  H  H145  1  0.82456724  0.25804438  0.98935940  1
  H  H146  1  0.94825133  0.91659302  -0.00303084  1
  H  H147  1  0.92130156  0.75014026  0.50370553  1
  H  H148  1  0.33827650  0.75157165  0.49853678  1
  H  H149  1  0.57737279  0.08433299  0.50561963  1
  H  H150  1  0.33656032  0.41854546  0.00683768  1
  H  H151  1  0.66908803  0.42139609  0.00173687  1
  H  H152  1  0.40348839  0.58792572  0.00790329  1
  H  H153  1  0.56486177  0.58644897  -0.00343354  1
  H  H154  1  0.38875841  0.25205041  0.01285691  1
  H  H155  1  0.18047519  0.91626697  1.00475619  1
  H  H156  1  0.40992801  0.91476357  0.00915217  1
  H  H157  1  0.66490740  0.58456165  0.50094006  1
  H  H158  1  0.95423694  0.25145180  -0.00846698  1
  H  H159  1  0.82381365  0.57904150  0.50283975  1
  H  H160  1  0.69708874  0.74928515  -0.00130782  1
  H  H161  1  0.19922420  0.08565270  -0.00181141  1
  H  H162  1  0.67813241  0.08265041  0.00037506  1
  H  H163  1  0.64811417  0.91116109  0.51179793  1
  H  H164  1  0.17100597  0.91532608  0.49855006  1
  H  H165  1  0.17239812  0.57994550  0.99556581  1
  H  H166  1  0.68225313  0.23392372  0.99843078  1
  H  H167  1  0.17083375  0.75077213  0.50005280  1
  H  H168  1  0.19692372  0.08575164  0.50316019  1
  H  H169  1  0.91324587  0.25287665  0.49845873  1
  H  H170  1  0.17109072  0.25114185  0.99994130  1
  H  H171  1  0.04982707  0.08464848  1.00664579  1
  H  H172  1  0.08573812  0.74883361  0.99319760  1
  H  H173  1  0.55268135  0.74768045  1.00594786  1
  H  H174  1  0.05035041  0.08353862  0.49666822  1
  H  H175  1  0.33128172  0.91477937  0.50636032  1
  H  H176  1  0.32944446  0.25065106  0.50252241  1
  H  H177  1  0.56415072  0.92504369  -0.00084982  1
  H  H178  1  0.32694033  0.75010856  0.00081981  1
  H  H179  1  0.29932076  0.58104904  0.49358864  1
  H  H180  1  0.95094984  0.91470615  0.50318109  1
  H  H181  1  0.83373627  0.42170648  0.00221052  1
  H  H182  1  0.68792943  0.57972424  1.00570725  1
  H  H183  1  0.44996873  0.58304853  0.50341921  1
  H  H184  1  0.80206645  0.91677944  1.00488004  1
  H  H185  1  0.57456849  0.41379458  0.50297796  1
  H  H186  1  0.07573250  0.58023251  0.49558937  1
  H  H187  1  0.42671866  0.08287597  0.99881417  1
  H  H188  1  0.89468165  0.08253716  0.50931162  1
  H  H189  1  0.41172143  0.41561772  0.50174594  1
  H  H190  1  0.80369398  0.91555649  0.49315648  1
  H  H191  1  0.84544911  0.08430703  0.00456027  1
  Pb  Pb192  1  0.24901693  0.04863075  0.75072112  1
  Pb  Pb193  1  0.24785785  0.37860867  0.75295260  1
  Pb  Pb194  1  0.24468812  0.71449040  0.74774816  1
  Pb  Pb195  1  0.74278864  0.04672399  0.75056940  1
  Pb  Pb196  1  0.75134155  0.38146530  0.75195191  1
  Pb  Pb197  1  0.74872083  0.71160945  0.75474103  1
  Pb  Pb198  1  0.25065455  0.28731697  0.25480718  1
  Pb  Pb199  1  0.24966157  0.62016393  0.25334746  1
  Pb  Pb200  1  0.25578412  0.95266522  0.25413677  1
  Pb  Pb201  1  0.75104481  0.28724667  0.24024637  1
  Pb  Pb202  1  0.75598377  0.61854516  0.24931272  1
  Pb  Pb203  1  0.74755467  0.95239101  0.25040556  1
  Pb  Pb204  1  -0.00249649  0.21239915  0.74928701  1
  Pb  Pb205  1  -0.00015399  0.54509020  0.74678925  1
  Pb  Pb206  1  -0.00717447  0.88221942  0.75160956  1
  Pb  Pb207  1  0.50115344  0.21676351  0.75372043  1
  Pb  Pb208  1  0.49641696  0.54701790  0.74847683  1
  Pb  Pb209  1  0.49778058  0.87775130  0.75294732  1
  Pb  Pb210  1  0.00135474  0.11756873  0.25363659  1
  Pb  Pb211  1  0.00261416  0.45350924  0.25224513  1
  Pb  Pb212  1  0.00166209  0.78832734  0.25048723  1
  Pb  Pb213  1  0.50209813  0.12184236  0.25158968  1
  Pb  Pb214  1  0.50058578  0.45402759  0.25207438  1
  Pb  Pb215  1  0.50375563  0.78366039  0.24879965  1
  C  C216  1  -0.00092886  0.04631380  0.63200765  1
  C  C217  1  0.00005609  0.37986057  0.63068006  1
  C  C218  1  -0.00150284  0.71370255  0.63101208  1
  C  C219  1  0.49883651  0.04741831  0.63162528  1
  C  C220  1  0.50100020  0.37917963  0.63212760  1
  C  C221  1  0.49896629  0.71363787  0.63199211  1
  C  C222  1  -0.00112189  0.28756175  0.13403989  1
  C  C223  1  -0.00293825  0.61948029  0.13097141  1
  C  C224  1  0.00080627  0.95350824  0.13192452  1
  C  C225  1  0.50142142  0.28796020  0.13238476  1
  C  C226  1  0.49979248  0.62008893  0.13478994  1
  C  C227  1  0.50152653  0.95305304  0.13034114  1
  C  C228  1  -0.00154902  0.04622850  0.86631196  1
  C  C229  1  0.00115836  0.38008475  0.86616843  1
  C  C230  1  -0.00265699  0.71332538  0.86982959  1
  C  C231  1  0.49504298  0.04652063  0.86431086  1
  C  C232  1  0.49742647  0.38051793  0.86661684  1
  C  C233  1  0.49934340  0.71312930  0.86486292  1
  C  C234  1  0.00097178  0.28750745  0.36813410  1
  C  C235  1  0.00517822  0.61940059  0.36746661  1
  C  C236  1  0.00082462  0.95312793  0.36792572  1
  C  C237  1  0.50180195  0.28680212  0.36705709  1
  C  C238  1  0.50103494  0.62074090  0.36828041  1
  C  C239  1  0.50301020  0.95350407  0.36843090  1
  C  C240  1  0.25096856  0.21357668  0.63329630  1
  C  C241  1  0.24817389  0.54546086  0.63310613  1
  C  C242  1  0.24868423  0.88081726  0.63267629  1
  C  C243  1  0.74937635  0.21316096  0.63380070  1
  C  C244  1  0.74856826  0.54618599  0.63198108  1
  C  C245  1  0.74626817  0.87893792  0.63228420  1
  C  C246  1  0.24896321  0.12141592  0.13345057  1
  C  C247  1  0.25024010  0.45326804  0.13117213  1
  C  C248  1  0.25159940  0.78683114  0.13427459  1
  C  C249  1  0.75313210  0.11974935  0.13403869  1
  C  C250  1  0.75060303  0.45366112  0.13454370  1
  C  C251  1  0.75013915  0.78595085  0.13288785  1
  C  C252  1  0.25052878  0.21312759  0.86677991  1
  C  C253  1  0.24879786  0.54629571  0.86753965  1
  C  C254  1  0.24940740  0.88005201  0.86828369  1
  C  C255  1  0.75173873  0.21331689  0.86701148  1
  C  C256  1  0.75142805  0.54719427  0.86651090  1
  C  C257  1  0.75061771  0.87961765  0.86577831  1
  C  C258  1  0.25192249  0.12087964  0.36816708  1
  C  C259  1  0.24739273  0.45206918  0.36978948  1
  C  C260  1  0.25154458  0.78623399  0.36737449  1
  C  C261  1  0.75428419  0.12140393  0.36759086  1
  C  C262  1  0.75181481  0.45262676  0.36713854  1
  C  C263  1  0.74874752  0.78650189  0.36672194  1
  C  C264  1  0.45278499  0.74161399  0.54161027  1
  C  C265  1  0.95571781  0.26213126  0.46132156  1
  C  C266  1  0.46344436  0.07255337  0.95856059  1
  C  C267  1  0.21237951  0.76066572  0.46193786  1
  C  C268  1  0.30676658  0.42893590  0.45766545  1
  C  C269  1  0.28611269  0.76091074  0.04031444  1
  C  C270  1  0.28952337  0.23969933  0.54083399  1
  C  C271  1  0.46733892  0.92454645  0.46160318  1
  C  C272  1  0.45627691  0.40554989  0.53977189  1
  C  C273  1  0.43941052  0.26110181  0.04633347  1
  C  C274  1  0.30059363  0.90321759  0.95968967  1
  C  C275  1  0.96433752  0.74135544  0.96529810  1
  C  C276  1  0.22621234  0.42669630  0.46618173  1
  C  C277  1  0.05934953  0.92554469  0.45616644  1
  C  C278  1  0.80336708  0.57024824  0.95738268  1
  C  C279  1  0.29549422  0.23894008  0.95951742  1
  C  C280  1  0.71751843  0.09335766  0.03904908  1
  C  C281  1  0.44001913  0.73600176  0.95313532  1
  C  C282  1  0.72229119  0.57087637  0.96381268  1
  C  C283  1  0.05740059  0.92624577  0.04303551  1
  C  C284  1  0.21358347  0.23978324  0.96187576  1
  C  C285  1  0.96508268  0.40801289  0.53779147  1
  C  C286  1  0.70998661  0.43011222  0.03995323  1
  C  C287  1  0.79074276  0.09176849  0.46025966  1
  C  C288  1  0.21901183  0.90554080  0.96496726  1
  C  C289  1  0.77215385  0.90546168  0.53605095  1
  C  C290  1  0.94149219  0.07375751  0.54469238  1
  C  C291  1  0.03730500  0.26193639  0.46274571  1
  C  C292  1  0.44841080  0.59708098  0.04329910  1
  C  C293  1  0.53013095  0.59599709  0.03804725  1
  C  C294  1  0.01820278  0.07282084  0.96425989  1
  C  C295  1  0.79975698  0.09426993  0.04136293  1
  C  C296  1  0.79219347  0.43053008  0.04008336  1
  C  C297  1  0.53164391  0.25634909  0.46040501  1
  C  C298  1  0.98312897  0.26219208  0.03541069  1
  C  C299  1  0.93760861  0.07022333  0.95386546  1
  C  C300  1  0.06349680  0.26482668  0.04775336  1
  C  C301  1  0.77140704  0.90643554  0.96159296  1
  C  C302  1  0.70592460  0.57420651  0.53964402  1
  C  C303  1  0.29476370  0.76098319  0.46108782  1
  C  C304  1  0.45456815  0.40761272  0.95848943  1
  C  C305  1  0.30639991  0.09243208  0.45748157  1
  C  C306  1  0.52085248  0.73755279  0.96305547  1
  C  C307  1  0.55885114  0.59375332  0.45687514  1
  C  C308  1  0.26850918  0.57098500  0.53686719  1
  C  C309  1  0.21054101  0.90634397  0.53848956  1
  C  C310  1  0.97285760  0.59101747  0.03587021  1
  C  C311  1  0.04020197  0.74261097  0.53776792  1
  N  N312  1  0.45379098  0.93345037  0.03899941  1
  N  N313  1  0.03878939  0.59228714  0.45936456  1
  N  N314  1  0.69246340  0.90533272  0.95469416  1
  N  N315  1  0.28965172  0.57202927  0.96105382  1
  N  N316  1  0.18974185  0.56960701  0.54394907  1
  N  N317  1  0.21669786  0.42622183  0.03640588  1
  N  N318  1  0.22777769  0.09258686  0.46258484  1
  N  N319  1  0.21020548  0.23971353  0.53910926  1
  N  N320  1  0.46090602  0.07430224  0.53760173  1
  N  N321  1  0.79765200  0.76089175  0.45781472  1
  N  N322  1  0.48004378  0.59117561  0.46279525  1
  N  N323  1  0.95577703  0.40464400  0.95873665  1
  N  N324  1  0.22761358  0.09357274  0.03954503  1
  N  N325  1  0.71689777  0.24013318  0.53897203  1
  N  N326  1  0.71273934  0.09168326  0.46091876  1
  N  N327  1  0.05038667  0.59261964  0.04033038  1
  N  N328  1  0.29029281  0.90641173  0.54099357  1
  N  N329  1  0.69314318  0.90508795  0.54422509  1
  N  N330  1  0.71372432  0.24159794  0.95837542  1
  N  N331  1  0.72125790  0.75884317  0.46236839  1
  N  N332  1  0.02068771  0.07723337  0.53798647  1
  N  N333  1  0.79251290  0.23061027  0.96063715  1
  N  N334  1  0.96081716  0.74159208  0.53896564  1
  N  N335  1  0.96027329  0.59317002  0.45985147  1
  N  N336  1  0.53252946  0.40833533  0.96204334  1
  N  N337  1  0.20658086  0.76137807  0.04074137  1
  N  N338  1  0.80386111  0.76219425  0.04290629  1
  N  N339  1  0.51836699  0.25836668  0.03701536  1
  N  N340  1  0.03197883  0.40520692  0.96204563  1
  N  N341  1  0.53618471  0.40722403  0.53960082  1
  N  N342  1  0.29479981  0.42692429  0.04176665  1
  N  N343  1  0.97861101  0.92479896  0.03739878  1
  N  N344  1  0.53897122  0.07359250  0.54107921  1
  N  N345  1  0.21113404  0.57280785  0.95892215  1
  N  N346  1  0.98065770  0.92439934  0.46277821  1
  N  N347  1  0.77968527  0.42571094  0.46286092  1
  N  N348  1  0.53019960  0.74220531  0.53606540  1
  N  N349  1  0.79313380  0.23978836  0.54161559  1
  N  N350  1  0.53145847  0.91844283  0.03910244  1
  N  N351  1  0.04316915  0.74068643  0.95994751  1
  N  N352  1  0.45404455  0.25898563  0.45903370  1
  N  N353  1  0.54535906  0.92463430  0.46156254  1
  N  N354  1  0.72620224  0.76158878  0.03846437  1
  N  N355  1  0.04240121  0.40726457  0.53724835  1
  N  N356  1  0.78579780  0.57500174  0.54003163  1
  N  N357  1  0.70320264  0.42701428  0.45822972  1
  N  N358  1  0.30537943  0.09578361  0.04501094  1
  N  N359  1  0.54289899  0.07206561  0.95681192  1
  N  N360  1  0.05618676  0.05747310  0.59093927  1
  N  N361  1  0.06450864  0.38943124  0.59627977  1
  N  N362  1  0.06351177  0.72562369  0.59482894  1
  N  N363  1  0.56367152  0.05806330  0.59802316  1
  N  N364  1  0.56368210  0.38970043  0.59613538  1
  N  N365  1  0.55916895  0.72444470  0.59374426  1
  N  N366  1  0.42950742  0.27776291  0.10589010  1
  N  N367  1  0.43110737  0.61195926  0.10351359  1
  N  N368  1  0.43475255  0.94433862  0.09837135  1
  N  N369  1  0.94372879  0.27652164  0.09061919  1
  N  N370  1  0.93783400  0.60734871  0.08997275  1
  N  N371  1  0.94261021  0.94349294  0.09150872  1
  N  N372  1  0.43262847  0.05715005  0.90212261  1
  N  N373  1  0.43113544  0.39061773  0.90079153  1
  N  N374  1  0.42780525  0.72155836  0.89373980  1
  N  N375  1  0.92634337  0.05435634  0.89460475  1
  N  N376  1  0.93532930  0.38931360  0.89924577  1
  N  N377  1  0.93568468  0.72467601  0.90960728  1
  N  N378  1  0.06452451  0.27714324  0.40658442  1
  N  N379  1  0.06746302  0.60837126  0.40376049  1
  N  N380  1  0.07178665  0.94285382  0.39719240  1
  N  N381  1  0.56347200  0.27335833  0.40541056  1
  N  N382  1  0.57175178  0.61101706  0.39803855  1
  N  N383  1  0.56749902  0.94298092  0.40223738  1
  N  N384  1  0.31613015  0.22361216  0.59827345  1
  N  N385  1  0.30576063  0.55671949  0.59125720  1
  N  N386  1  0.31355570  0.89084797  0.59895389  1
  N  N387  1  0.81471276  0.22319441  0.60033389  1
  N  N388  1  0.81178438  0.55572940  0.59634023  1
  N  N389  1  0.80549246  0.88995139  0.59088638  1
  N  N390  1  0.19159254  0.11102492  0.09239626  1
  N  N391  1  0.18934058  0.44207912  0.09261332  1
  N  N392  1  0.18703255  0.77739894  0.09991062  1
  N  N393  1  0.69005510  0.10908222  0.09704923  1
  N  N394  1  0.68564552  0.44429375  0.09903269  1
  N  N395  1  0.69152540  0.77508313  0.09301046  1
  N  N396  1  0.18714185  0.22334228  0.90282666  1
  N  N397  1  0.18521833  0.55570031  0.90282104  1
  N  N398  1  0.18837195  0.89082947  0.90672328  1
  N  N399  1  0.68831838  0.22077351  0.90333945  1
  N  N400  1  0.69064522  0.55644541  0.90580884  1
  N  N401  1  0.68166410  0.88847580  0.89485560  1
  N  N402  1  0.32154551  0.10947355  0.39897897  1
  N  N403  1  0.31889722  0.44446743  0.39825854  1
  N  N404  1  0.31727122  0.77673557  0.40183189  1
  N  N405  1  0.81835540  0.10928291  0.40374079  1
  N  N406  1  0.81110835  0.44158970  0.40662317  1
  N  N407  1  0.81582993  0.77773011  0.39842954  1
  N  N408  1  0.43545803  0.27830239  0.39940447  1
  N  N409  1  0.44347918  0.60971180  0.40881274  1
  N  N410  1  0.43950545  0.94190983  0.40533828  1
  N  N411  1  0.93438989  0.27782675  0.40109886  1
  N  N412  1  0.94031756  0.60995529  0.40224686  1
  N  N413  1  0.94363956  0.94257540  0.40891830  1
  N  N414  1  0.05524134  0.05737286  0.90827003  1
  N  N415  1  0.06159117  0.38981003  0.90503250  1
  N  N416  1  0.06410397  0.72349802  0.90100417  1
  N  N417  1  0.56054993  0.05615076  0.89776622  1
  N  N418  1  0.55915139  0.39144147  0.90334300  1
  N  N419  1  0.55683087  0.72306709  0.90672581  1
  N  N420  1  0.07191239  0.27976946  0.10737067  1
  N  N421  1  0.06528015  0.61072919  0.10124895  1
  N  N422  1  0.07111849  0.94328034  0.10175789  1
  N  N423  1  0.55663758  0.27853877  0.08933630  1
  N  N424  1  0.56094827  0.61032309  0.09548711  1
  N  N425  1  0.56209811  0.94177117  0.09227162  1
  N  N426  1  0.43644995  0.05786311  0.59438605  1
  N  N427  1  0.43471481  0.38913998  0.59774696  1
  N  N428  1  0.43120833  0.72436675  0.59971713  1
  N  N429  1  0.92809107  0.05593076  0.60357233  1
  N  N430  1  0.93613450  0.39143450  0.59403451  1
  N  N431  1  0.93454515  0.72342282  0.59631861  1
  N  N432  1  0.19300790  0.11185094  0.40823524  1
  N  N433  1  0.19018632  0.44071647  0.41269370  1
  N  N434  1  0.18720429  0.77627019  0.40323058  1
  N  N435  1  0.69032960  0.11042299  0.40178921  1
  N  N436  1  0.68491371  0.44345129  0.39882170  1
  N  N437  1  0.68965759  0.77475970  0.40614885  1
  N  N438  1  0.31706762  0.22308425  0.90167506  1
  N  N439  1  0.31229975  0.55681750  0.90357208  1
  N  N440  1  0.31807017  0.88824167  0.90095489  1
  N  N441  1  0.81616384  0.22460755  0.90103965  1
  N  N442  1  0.82048472  0.55611167  0.89867679  1
  N  N443  1  0.80850819  0.89113014  0.90739901  1
  N  N444  1  0.31782234  0.11186619  0.10371705  1
  N  N445  1  0.31648135  0.44388507  0.09885577  1
  N  N446  1  0.31485459  0.77642275  0.09736144  1
  N  N447  1  0.82001342  0.11059667  0.10085443  1
  N  N448  1  0.81588852  0.44487210  0.09926245  1
  N  N449  1  0.81830480  0.77738474  0.10177856  1
  N  N450  1  0.18790977  0.22372407  0.59715761  1
  N  N451  1  0.17903281  0.55363640  0.60408431  1
  N  N452  1  0.18453949  0.89097978  0.59581066  1
  N  N453  1  0.68818971  0.22358193  0.59596978  1
  N  N454  1  0.68288072  0.55750252  0.59722638  1
  N  N455  1  0.67758487  0.88816208  0.60326833  1
  Cl  Cl456  1  0.24243518  0.05769983  0.60562269  1
  Cl  Cl457  1  0.25107504  0.38518723  0.62219319  1
  Cl  Cl458  1  0.24766204  0.72119693  0.61511295  1
  Cl  Cl459  1  0.74615594  0.04782673  0.61859329  1
  Cl  Cl460  1  0.74840014  0.38828074  0.62131769  1
  Cl  Cl461  1  0.74917010  0.71806825  0.62239419  1
  Cl  Cl462  1  0.25145404  0.28321850  0.12241466  1
  Cl  Cl463  1  0.24790200  0.61196320  0.12110075  1
  Cl  Cl464  1  0.25314722  0.95100757  0.12141453  1
  Cl  Cl465  1  0.74644338  0.27177906  0.09844245  1
  Cl  Cl466  1  0.74859539  0.61359789  0.11622347  1
  Cl  Cl467  1  0.75365045  0.94026329  0.11386588  1
  Cl  Cl468  1  0.24274426  0.05825169  0.88874936  1
  Cl  Cl469  1  0.24805896  0.38839924  0.88768355  1
  Cl  Cl470  1  0.24619649  0.71947444  0.88054712  1
  Cl  Cl471  1  0.74462259  0.05400486  0.88339656  1
  Cl  Cl472  1  0.74870449  0.38548182  0.88798553  1
  Cl  Cl473  1  0.74471623  0.72200253  0.89244567  1
  Cl  Cl474  1  0.25035406  0.28156679  0.38546681  1
  Cl  Cl475  1  0.25567839  0.60808849  0.38956469  1
  Cl  Cl476  1  0.25554097  0.94715386  0.39029936  1
  Cl  Cl477  1  0.74706965  0.27969859  0.37063969  1
  Cl  Cl478  1  0.75658938  0.61022236  0.38676619  1
  Cl  Cl479  1  0.75691292  0.94371302  0.38961167  1
  Cl  Cl480  1  -0.00047764  0.21922983  0.61578443  1
  Cl  Cl481  1  -0.00414410  0.55447451  0.61225159  1
  Cl  Cl482  1  -0.00740522  0.88861788  0.60813459  1
  Cl  Cl483  1  0.50348057  0.22054190  0.62190634  1
  Cl  Cl484  1  0.49150012  0.55694236  0.60754621  1
  Cl  Cl485  1  0.49530444  0.88397592  0.62093794  1
  Cl  Cl486  1  0.00986745  0.11147004  0.11995283  1
  Cl  Cl487  1  0.00412619  0.44976567  0.12018502  1
  Cl  Cl488  1  0.00250994  0.78157626  0.11556127  1
  Cl  Cl489  1  0.50155145  0.11379468  0.11848907  1
  Cl  Cl490  1  0.49905811  0.44635790  0.12171266  1
  Cl  Cl491  1  0.50669599  0.78000315  0.11240961  1
  Cl  Cl492  1  -0.00278483  0.21782685  0.88377404  1
  Cl  Cl493  1  0.00365209  0.55513720  0.87867427  1
  Cl  Cl494  1  -0.00629331  0.88895662  0.89163420  1
  Cl  Cl495  1  0.50633873  0.22860742  0.89315335  1
  Cl  Cl496  1  0.49991798  0.55430153  0.88191866  1
  Cl  Cl497  1  0.49926509  0.88884534  0.88905076  1
  Cl  Cl498  1  0.00784035  0.10717452  0.39641678  1
  Cl  Cl499  1  -0.00206648  0.44562832  0.38556159  1
  Cl  Cl500  1  -0.00013181  0.78086321  0.38593553  1
  Cl  Cl501  1  0.50609527  0.11338670  0.38530192  1
  Cl  Cl502  1  0.50348331  0.44704067  0.38827842  1
  Cl  Cl503  1  0.50361111  0.78166945  0.37970368  1
  Cl  Cl504  1  0.36009348  0.14316057  0.75191056  1
  Cl  Cl505  1  0.36114447  0.47850715  0.75244051  1
  Cl  Cl506  1  0.36095812  0.81142878  0.75325700  1
  Cl  Cl507  1  0.86242975  0.14292985  0.75173201  1
  Cl  Cl508  1  0.86092303  0.47859417  0.75273682  1
  Cl  Cl509  1  0.85942663  0.81341896  0.74796209  1
  Cl  Cl510  1  0.14231963  0.18891839  0.25014868  1
  Cl  Cl511  1  0.13988928  0.52104109  0.25122560  1
  Cl  Cl512  1  0.13770512  0.85645797  0.25055133  1
  Cl  Cl513  1  0.63907471  0.18746725  0.24730611  1
  Cl  Cl514  1  0.63651785  0.52278965  0.25178027  1
  Cl  Cl515  1  0.64175188  0.85705297  0.24862622  1
  Cl  Cl516  1  0.13739075  0.14373991  0.74725227  1
  Cl  Cl517  1  0.13762735  0.47865675  0.74747412  1
  Cl  Cl518  1  0.14134360  0.81199324  0.74813286  1
  Cl  Cl519  1  0.63982825  0.14356402  0.75350972  1
  Cl  Cl520  1  0.63507160  0.47872850  0.74793858  1
  Cl  Cl521  1  0.63692488  0.81263940  0.75192671  1
  Cl  Cl522  1  0.36359285  0.18789096  0.24915500  1
  Cl  Cl523  1  0.36496801  0.52213733  0.25079288  1
  Cl  Cl524  1  0.35876778  0.85620897  0.25043235  1
  Cl  Cl525  1  0.86417941  0.18725615  0.24672248  1
  Cl  Cl526  1  0.86076809  0.52304637  0.24976251  1
  Cl  Cl527  1  0.86484031  0.85461379  0.24848721  1
  Cl  Cl528  1  0.11240521  0.31061814  0.74897894  1
  Cl  Cl529  1  0.11189085  0.64536615  0.74815649  1
  Cl  Cl530  1  0.11074633  0.97905241  0.74726453  1
  Cl  Cl531  1  0.61133581  0.30949461  0.75397121  1
  Cl  Cl532  1  0.61076252  0.64546331  0.74833234  1
  Cl  Cl533  1  0.61049679  0.97776100  0.75180146  1
  Cl  Cl534  1  0.38933283  0.02175319  0.24699552  1
  Cl  Cl535  1  0.38882199  0.35534938  0.25093485  1
  Cl  Cl536  1  0.38717752  0.68964418  0.24828081  1
  Cl  Cl537  1  0.89522326  0.02293750  0.25013718  1
  Cl  Cl538  1  0.88822075  0.35449754  0.24770871  1
  Cl  Cl539  1  0.88983002  0.68793696  0.25175693  1
  Cl  Cl540  1  0.38904610  0.31031364  0.75237221  1
  Cl  Cl541  1  0.38623940  0.64491282  0.75160462  1
  Cl  Cl542  1  0.38705247  0.97889363  0.74698873  1
  Cl  Cl543  1  0.88599517  0.31122755  0.75168729  1
  Cl  Cl544  1  0.88837040  0.64601576  0.75044073  1
  Cl  Cl545  1  0.89033152  0.97643920  0.74995892  1
  Cl  Cl546  1  0.11331308  0.02198815  0.25284047  1
  Cl  Cl547  1  0.11361745  0.35399622  0.24770989  1
  Cl  Cl548  1  0.11407902  0.68842747  0.24786942  1
  Cl  Cl549  1  0.61209600  0.01961193  0.24918099  1
  Cl  Cl550  1  0.61264950  0.35437863  0.24674980  1
  Cl  Cl551  1  0.60900532  0.68948442  0.25232652  1
