# generated using pymatgen
data_H8PbC4(N3Cl2)2
_symmetry_space_group_name_H-M   'P 1'
_cell_length_a   16.63591279
_cell_length_b   22.53447886
_cell_length_c   21.60461574
_cell_angle_alpha   89.99966302
_cell_angle_beta   90.02441543
_cell_angle_gamma   90.01548253
_symmetry_Int_Tables_number   1
_chemical_formula_structural   H8PbC4(N3Cl2)2
_chemical_formula_sum   'H192 Pb24 C96 N144 Cl96'
_cell_volume   8099.17242401
_cell_formula_units_Z   24
loop_
 _symmetry_equiv_pos_site_id
 _symmetry_equiv_pos_as_xyz
  1  'x, y, z'
loop_
 _atom_site_type_symbol
 _atom_site_label
 _atom_site_symmetry_multiplicity
 _atom_site_fract_x
 _atom_site_fract_y
 _atom_site_fract_z
 _atom_site_occupancy
  H  H0  1  0.01169041  0.03117399  0.68127655  1
  H  H1  1  -0.00098212  0.35823775  0.67828432  1
  H  H2  1  -0.02321611  0.69675661  0.67933952  1
  H  H3  1  0.48754744  0.02856176  0.67340154  1
  H  H4  1  0.48980768  0.36516536  0.67898441  1
  H  H5  1  0.48819129  0.70095639  0.65549580  1
  H  H6  1  0.01339213  0.31001358  0.17543158  1
  H  H7  1  0.01103999  0.63307712  0.18222041  1
  H  H8  1  0.02045418  0.96760621  0.17246260  1
  H  H9  1  0.50454616  0.30810470  0.18028292  1
  H  H10  1  0.48358226  0.63881506  0.17468775  1
  H  H11  1  0.48579687  0.97479499  0.17879931  1
  H  H12  1  0.01915116  0.02177302  0.82746657  1
  H  H13  1  -0.00018547  0.36541547  0.82009326  1
  H  H14  1  -0.01439015  0.69562904  0.82587854  1
  H  H15  1  0.48647367  0.03598884  0.81961283  1
  H  H16  1  0.50043702  0.36230733  0.82190562  1
  H  H17  1  0.51188854  0.68734721  0.82753158  1
  H  H18  1  0.00755107  0.30970169  0.31930687  1
  H  H19  1  0.01340744  0.64173960  0.32604345  1
  H  H20  1  -0.01800293  0.96993464  0.31873677  1
  H  H21  1  0.49709510  0.30637710  0.31788240  1
  H  H22  1  0.48888409  0.63596477  0.31586238  1
  H  H23  1  0.50907616  0.96820187  0.31926744  1
  H  H24  1  0.25207521  0.18677219  0.67609989  1
  H  H25  1  0.26701084  0.52157709  0.66987137  1
  H  H26  1  0.23692705  0.85802992  0.67865562  1
  H  H27  1  0.74670145  0.19768462  0.67983396  1
  H  H28  1  0.73856129  0.52486427  0.67569541  1
  H  H29  1  0.73956046  0.86689039  0.68653770  1
  H  H30  1  0.26190973  0.14031359  0.18191969  1
  H  H31  1  0.25025609  0.46921329  0.18104549  1
  H  H32  1  0.24333957  0.80397148  0.17823438  1
  H  H33  1  0.74412695  0.13704902  0.17702256  1
  H  H34  1  0.75294741  0.47040319  0.17076636  1
  H  H35  1  0.76493183  0.81268814  0.17327553  1
  H  H36  1  0.23853105  0.19661783  0.81908233  1
  H  H37  1  0.24191141  0.52852431  0.82309404  1
  H  H38  1  0.26153683  0.86321115  0.81786294  1
  H  H39  1  0.74378128  0.19319556  0.82365224  1
  H  H40  1  0.75844774  0.52343057  0.82781650  1
  H  H41  1  0.73965270  0.86156923  0.82304800  1
  H  H42  1  0.24605203  0.14355272  0.32114602  1
  H  H43  1  0.25864522  0.47054802  0.32933936  1
  H  H44  1  0.26025518  0.80061105  0.35298423  1
  H  H45  1  0.75415897  0.14306016  0.32399998  1
  H  H46  1  0.75231098  0.47050352  0.31654208  1
  H  H47  1  0.75674323  0.79995979  0.31707182  1
  H  H48  1  0.13070338  0.05621044  0.60943301  1
  H  H49  1  0.13556226  0.38131917  0.62214783  1
  H  H50  1  0.11704862  0.71664589  0.62658393  1
  H  H51  1  0.62715871  0.05049990  0.62166117  1
  H  H52  1  0.62756139  0.37919854  0.62556629  1
  H  H53  1  0.58745553  0.73729500  0.57062011  1
  H  H54  1  0.37250729  0.28182735  0.11708773  1
  H  H55  1  0.37731322  0.60738775  0.09008507  1
  H  H56  1  0.37825643  0.94252670  0.09760655  1
  H  H57  1  0.86928491  0.28946160  0.12998231  1
  H  H58  1  0.87215354  0.61459274  0.12969673  1
  H  H59  1  0.87848719  0.95380387  0.12588985  1
  H  H60  1  0.37943533  0.05762038  0.90275930  1
  H  H61  1  0.39240834  0.39143363  0.90210889  1
  H  H62  1  0.38856315  0.71861162  0.89456980  1
  H  H63  1  0.87488018  0.04545562  0.86965576  1
  H  H64  1  0.88721015  0.39210425  0.90117132  1
  H  H65  1  0.88992484  0.72947472  0.91401415  1
  H  H66  1  0.12326052  0.27830968  0.39619704  1
  H  H67  1  0.12975481  0.60944902  0.40193241  1
  H  H68  1  0.11419352  0.94444888  0.38202809  1
  H  H69  1  0.62015137  0.28105054  0.38762885  1
  H  H70  1  0.62844781  0.61794346  0.37216843  1
  H  H71  1  0.61395753  0.94319796  0.40362067  1
  H  H72  1  0.37980623  0.21801182  0.61048076  1
  H  H73  1  0.36117110  0.56050634  0.58296482  1
  H  H74  1  0.37332020  0.88361578  0.62118103  1
  H  H75  1  0.88066553  0.21740358  0.62218933  1
  H  H76  1  0.87119555  0.55118002  0.61454957  1
  H  H77  1  0.87718671  0.88375480  0.62737367  1
  H  H78  1  0.13215331  0.11043140  0.12085405  1
  H  H79  1  0.11297824  0.44571081  0.12409047  1
  H  H80  1  0.11454377  0.78043223  0.11134897  1
  H  H81  1  0.62941685  0.11127968  0.09778640  1
  H  H82  1  0.61604993  0.45023628  0.11758475  1
  H  H83  1  0.62029397  0.78697810  0.13116656  1
  H  H84  1  0.13632195  0.22793920  0.90523127  1
  H  H85  1  0.13539865  0.55928303  0.90676709  1
  H  H86  1  0.12485044  0.88505002  0.87689230  1
  H  H87  1  0.62640638  0.21850945  0.89814818  1
  H  H88  1  0.62582490  0.55215009  0.88654250  1
  H  H89  1  0.62765717  0.89149925  0.90291639  1
  H  H90  1  0.36813344  0.11218783  0.39259372  1
  H  H91  1  0.36540423  0.43750728  0.40960052  1
  H  H92  1  0.40074232  0.78213192  0.39969049  1
  H  H93  1  0.86887414  0.11262275  0.39956506  1
  H  H94  1  0.86983521  0.44293633  0.39382824  1
  H  H95  1  0.88406262  0.78486086  0.38914382  1
  H  H96  1  0.37094665  0.28375418  0.38465513  1
  H  H97  1  0.38310723  0.60657044  0.39900546  1
  H  H98  1  0.36924463  0.94861863  0.36925216  1
  H  H99  1  0.87565467  0.28248786  0.38219864  1
  H  H100  1  0.88273120  0.61630513  0.38840891  1
  H  H101  1  0.86591323  0.94800092  0.39756118  1
  H  H102  1  0.11574918  0.05969858  0.91413394  1
  H  H103  1  0.13438855  0.38691408  0.88267866  1
  H  H104  1  0.13052670  0.71562716  0.86886011  1
  H  H105  1  0.62562363  0.04988492  0.87461850  1
  H  H106  1  0.63901947  0.38068238  0.87604615  1
  H  H107  1  0.63710902  0.72060334  0.89421322  1
  H  H108  1  0.11114040  0.27261727  0.08939681  1
  H  H109  1  0.11791163  0.60797429  0.09949317  1
  H  H110  1  0.12027445  0.93711004  0.08643426  1
  H  H111  1  0.61941425  0.27873894  0.10179282  1
  H  H112  1  0.62186043  0.61386784  0.11993319  1
  H  H113  1  0.62482043  0.95386338  0.12260656  1
  H  H114  1  0.38227573  0.06142866  0.59156858  1
  H  H115  1  0.38285780  0.39311250  0.59711236  1
  H  H116  1  0.34462498  0.71785851  0.60786794  1
  H  H117  1  0.88175942  0.05149201  0.61562979  1
  H  H118  1  0.88901916  0.38944840  0.59792518  1
  H  H119  1  0.87274713  0.72100593  0.59236245  1
  H  H120  1  0.12007891  0.11455943  0.38945298  1
  H  H121  1  0.11991838  0.44882417  0.38320116  1
  H  H122  1  0.15860193  0.76444891  0.43593807  1
  H  H123  1  0.62089718  0.11614207  0.38394726  1
  H  H124  1  0.62168609  0.44587336  0.38260019  1
  H  H125  1  0.63670351  0.77218150  0.38740477  1
  H  H126  1  0.38049986  0.21544453  0.86834075  1
  H  H127  1  0.38022308  0.55283778  0.87745525  1
  H  H128  1  0.37205325  0.88924349  0.89914444  1
  H  H129  1  0.87372238  0.21808899  0.88362244  1
  H  H130  1  0.87326645  0.55547352  0.90211259  1
  H  H131  1  0.87480464  0.88344050  0.88152364  1
  H  H132  1  0.38073897  0.11348629  0.10662756  1
  H  H133  1  0.36016001  0.44345079  0.10056712  1
  H  H134  1  0.36365042  0.77672346  0.10578789  1
  H  H135  1  0.87676588  0.11389682  0.11557647  1
  H  H136  1  0.86196590  0.44113323  0.09106403  1
  H  H137  1  0.85924823  0.77480527  0.08549088  1
  H  H138  1  0.13164358  0.22167520  0.60502535  1
  H  H139  1  0.12197368  0.54783039  0.62808437  1
  H  H140  1  0.12627161  0.88671361  0.59849146  1
  H  H141  1  0.63325158  0.22392769  0.60160713  1
  H  H142  1  0.62309815  0.55385264  0.60010751  1
  H  H143  1  0.63055383  0.89125992  0.60435138  1
  H  H144  1  0.21230375  0.58599999  1.00553927  1
  H  H145  1  0.29330914  0.41445097  -0.00538066  1
  H  H146  1  0.41101131  0.25541732  0.49607875  1
  H  H147  1  0.77072042  0.74609356  -0.00805775  1
  H  H148  1  0.38343842  0.92083541  0.48427970  1
  H  H149  1  0.50950451  0.75824066  0.47131669  1
  H  H150  1  0.92610912  0.91964404  0.50298743  1
  H  H151  1  0.45645477  0.57433845  0.50013123  1
  H  H152  1  0.31122062  0.74491645  -0.00200115  1
  H  H153  1  0.44982251  0.08169122  1.01006802  1
  H  H154  1  0.83649815  0.57669597  0.50681014  1
  H  H155  1  0.13846218  0.42141183  0.01482971  1
  H  H156  1  0.02624051  0.24709186  -0.00712088  1
  H  H157  1  0.88820732  0.58486667  0.01569368  1
  H  H158  1  0.03111333  0.08241627  1.01028176  1
  H  H159  1  0.27263054  0.58940536  0.48995527  1
  H  H160  1  0.63027778  0.41101688  0.99756858  1
  H  H161  1  0.46126728  0.42059418  1.00791892  1
  H  H162  1  0.57458432  0.25414161  0.49802374  1
  H  H163  1  0.70096301  0.92067240  0.50026146  1
  H  H164  1  0.97543736  0.75556947  1.00969333  1
  H  H165  1  0.88000797  0.08059446  0.98289808  1
  H  H166  1  0.88524505  0.92021083  1.01031521  1
  H  H167  1  0.30298118  0.92118410  1.00230048  1
  H  H168  1  0.15240672  0.75445420  0.00292793  1
  H  H169  1  0.61021928  0.41009336  0.51038619  1
  H  H170  1  0.07875174  0.08664450  0.49934946  1
  H  H171  1  0.84263575  0.25113013  0.99712651  1
  H  H172  1  0.54210447  0.91376040  0.50715700  1
  H  H173  1  0.14091280  0.41478366  0.49242103  1
  H  H174  1  0.31984821  0.09214588  0.00156367  1
  H  H175  1  0.66053725  0.58105392  0.99443838  1
  H  H176  1  0.17013489  0.06940776  0.01309058  1
  H  H177  1  0.65118958  0.08877285  0.49235204  1
  H  H178  1  0.04832659  0.57880953  -0.00523939  1
  H  H179  1  0.80982495  0.08203782  0.50598012  1
  H  H180  1  0.95133245  0.74532635  0.48981167  1
  H  H181  1  0.45130011  0.91054545  -0.00431913  1
  H  H182  1  0.19379665  0.91777833  0.49508831  1
  H  H183  1  0.45620509  0.08742950  0.49179139  1
  H  H184  1  0.21380239  0.25215793  1.00282730  1
  H  H185  1  0.58950520  0.75108062  0.99898503  1
  H  H186  1  0.06906793  0.58320293  0.50272448  1
  H  H187  1  0.85433954  0.25021746  0.50899202  1
  H  H188  1  0.69863841  0.72754414  0.48231395  1
  H  H189  1  0.82267058  0.79189413  0.49504995  1
  H  H190  1  0.67920388  0.58425995  0.49406231  1
  H  H191  1  0.36669744  0.25032144  0.98059920  1
  Pb  Pb192  1  0.26087802  0.04990034  0.75826526  1
  Pb  Pb193  1  0.25872321  0.38480955  0.75222225  1
  Pb  Pb194  1  0.26045041  0.71307667  0.76035861  1
  Pb  Pb195  1  0.75636188  0.04758959  0.74326910  1
  Pb  Pb196  1  0.76163815  0.38334097  0.74686921  1
  Pb  Pb197  1  0.75302852  0.71584618  0.72979879  1
  Pb  Pb198  1  0.23875262  0.28293654  0.24153457  1
  Pb  Pb199  1  0.24005618  0.61475911  0.24539502  1
  Pb  Pb200  1  0.24340169  0.94799928  0.24174111  1
  Pb  Pb201  1  0.74213500  0.28320916  0.24824009  1
  Pb  Pb202  1  0.74200154  0.61711326  0.25267917  1
  Pb  Pb203  1  0.74170539  0.95014325  0.26039285  1
  Pb  Pb204  1  0.00871798  0.21538890  0.75933972  1
  Pb  Pb205  1  0.00340739  0.55031324  0.75663247  1
  Pb  Pb206  1  0.00922026  0.88145526  0.74493207  1
  Pb  Pb207  1  0.51084617  0.21756049  0.74378930  1
  Pb  Pb208  1  0.50576483  0.54913396  0.73714246  1
  Pb  Pb209  1  0.50626078  0.88062258  0.75452998  1
  Pb  Pb210  1  -0.00816880  0.11481389  0.24764924  1
  Pb  Pb211  1  -0.01293259  0.45086218  0.24751718  1
  Pb  Pb212  1  -0.00593294  0.78296848  0.25179816  1
  Pb  Pb213  1  0.49406104  0.11694078  0.25162872  1
  Pb  Pb214  1  0.48817126  0.44963554  0.25386304  1
  Pb  Pb215  1  0.48933607  0.78469681  0.24604149  1
  C  C216  1  0.00831910  0.04587710  0.63364005  1
  C  C217  1  0.00776185  0.37515410  0.63197433  1
  C  C218  1  -0.01113497  0.71170771  0.63246718  1
  C  C219  1  0.49877489  0.04556072  0.62721099  1
  C  C220  1  0.50111206  0.37917240  0.63180920  1
  C  C221  1  0.47423303  0.71692635  0.60919318  1
  C  C222  1  -0.00180422  0.29197523  0.13037726  1
  C  C223  1  -0.00020799  0.61852287  0.13510425  1
  C  C224  1  0.00533761  0.95236409  0.12631688  1
  C  C225  1  0.49849494  0.29020476  0.13383664  1
  C  C226  1  0.49388975  0.62149785  0.12844169  1
  C  C227  1  0.49639117  0.95747428  0.13267945  1
  C  C228  1  0.00336734  0.04035931  0.87238371  1
  C  C229  1  0.00735030  0.38054085  0.86753601  1
  C  C230  1  0.00220204  0.71252684  0.87116797  1
  C  C231  1  0.49716159  0.04765339  0.86755168  1
  C  C232  1  0.51064766  0.37747605  0.86891634  1
  C  C233  1  0.51308142  0.70731395  0.87304941  1
  C  C234  1  0.00228828  0.29147578  0.36561207  1
  C  C235  1  0.00909822  0.62302202  0.37217571  1
  C  C236  1  -0.01247201  0.95517782  0.36638218  1
  C  C237  1  0.49607508  0.29037738  0.36532179  1
  C  C238  1  0.50057817  0.62042718  0.36251526  1
  C  C239  1  0.49675895  0.95372846  0.36630808  1
  C  C240  1  0.25441307  0.20736969  0.63081495  1
  C  C241  1  0.25011855  0.54181023  0.62624825  1
  C  C242  1  0.24593974  0.87563828  0.63235093  1
  C  C243  1  0.75433160  0.21306073  0.63274354  1
  C  C244  1  0.74476836  0.54175989  0.62878086  1
  C  C245  1  0.74957245  0.88013597  0.63885021  1
  C  C246  1  0.25865878  0.12321809  0.13488810  1
  C  C247  1  0.24015956  0.45443236  0.13369965  1
  C  C248  1  0.23976333  0.78807951  0.13075564  1
  C  C249  1  0.74991487  0.12197750  0.12972595  1
  C  C250  1  0.74317552  0.45428903  0.12411157  1
  C  C251  1  0.74817487  0.79267445  0.12944289  1
  C  C252  1  0.25190854  0.21240493  0.86562187  1
  C  C253  1  0.25217298  0.54525798  0.86950914  1
  C  C254  1  0.25251276  0.87923523  0.86472289  1
  C  C255  1  0.74873113  0.20994942  0.87049778  1
  C  C256  1  0.75188757  0.54227782  0.87371593  1
  C  C257  1  0.74699231  0.87874206  0.86940916  1
  C  C258  1  0.24490497  0.12511018  0.36747895  1
  C  C259  1  0.24741240  0.45332650  0.37533616  1
  C  C260  1  0.27381495  0.78280976  0.39835348  1
  C  C261  1  0.74727902  0.12522912  0.37049952  1
  C  C262  1  0.74795010  0.45437275  0.36377723  1
  C  C263  1  0.75978877  0.78592279  0.36518147  1
  C  C264  1  0.72684539  0.24354892  0.53785783  1
  C  C265  1  0.33974863  0.75504849  0.48399145  1
  C  C266  1  0.21057208  0.08756164  0.04787597  1
  C  C267  1  0.97695397  0.73707763  0.53533704  1
  C  C268  1  0.51319519  0.92630716  0.46393924  1
  C  C269  1  0.01877620  0.59066425  0.03796414  1
  C  C270  1  0.07452889  0.74203973  0.95146899  1
  C  C271  1  0.40579658  0.74486934  0.52633568  1
  C  C272  1  0.93754966  0.92721789  0.04143591  1
  C  C273  1  0.55899621  0.06809247  0.95496423  1
  C  C274  1  0.56154778  0.40271648  0.54337756  1
  C  C275  1  0.53479896  0.26401706  0.45941420  1
  C  C276  1  0.93218581  0.07157510  0.95186829  1
  C  C277  1  0.47907757  0.07117941  0.96635597  1
  C  C278  1  0.45260629  0.26474775  0.45842466  1
  C  C279  1  0.25778080  0.74801903  0.49463036  1
  C  C280  1  0.76496698  0.42306048  0.02938999  1
  C  C281  1  0.56230884  0.07513268  0.54255179  1
  C  C282  1  0.22499154  0.90633904  0.53786727  1
  C  C283  1  0.01730458  0.92135007  0.02980856  1
  C  C284  1  0.48096141  0.40727482  0.53523748  1
  C  C285  1  0.27483549  0.75770000  0.03784530  1
  C  C286  1  0.71431204  0.57278546  0.53480564  1
  C  C287  1  0.48515263  0.58884894  0.45722515  1
  C  C288  1  0.47169376  0.74405397  0.96316518  1
  C  C289  1  0.48000999  0.92434273  0.03863570  1
  C  C290  1  0.73077623  0.90718273  0.54299184  1
  C  C291  1  0.92734129  0.26164240  0.04970231  1
  C  C292  1  0.79926274  0.90821626  0.95688674  1
  C  C293  1  0.43265140  0.92919783  0.45222750  1
  C  C294  1  0.79774306  0.24052024  0.96102532  1
  C  C295  1  0.80800419  0.24092395  0.54328222  1
  C  C296  1  0.93779231  0.59328402  0.04839229  1
  C  C297  1  0.96079503  0.92966656  0.46163523  1
  C  C298  1  0.68438933  0.42565557  0.03750746  1
  C  C299  1  0.96012268  0.07259791  0.54258195  1
  C  C300  1  0.31761744  0.24198626  0.94823250  1
  C  C301  1  0.26324488  0.42583678  0.03784550  1
  C  C302  1  0.26784721  0.41759027  0.46993199  1
  C  C303  1  0.77589724  0.09420622  0.46463116  1
  C  C304  1  0.27248067  0.90911505  0.95945098  1
  C  C305  1  0.79877731  0.09522641  0.04003727  1
  C  C306  1  0.78258767  0.57672846  0.96739999  1
  C  C307  1  0.71654817  0.23988842  0.96437885  1
  C  C308  1  0.57195097  0.40226457  0.95560457  1
  C  C309  1  0.06177210  0.40275427  0.54448026  1
  C  C310  1  0.49137070  0.40712474  0.96537488  1
  C  C311  1  0.04150704  0.07461914  0.53866899  1
  N  N312  1  0.23954201  0.24613261  0.95952182  1
  N  N313  1  0.48429135  0.07841242  0.53315530  1
  N  N314  1  0.72189904  0.09412398  0.03289072  1
  N  N315  1  0.95692942  0.59212173  0.46057609  1
  N  N316  1  0.25352740  0.58111921  0.53530549  1
  N  N317  1  0.69675291  0.09577837  0.45821583  1
  N  N318  1  0.55055682  0.74299005  0.96234412  1
  N  N319  1  0.05467375  0.73753566  0.54704906  1
  N  N320  1  0.95411233  0.25818288  0.45384792  1
  N  N321  1  0.55817103  0.92755515  0.04705659  1
  N  N322  1  0.05847454  0.40770692  0.95690251  1
  N  N323  1  0.80937987  0.90296867  0.55003002  1
  N  N324  1  0.31414691  0.57427668  0.95454987  1
  N  N325  1  0.79365185  0.57225421  0.54079212  1
  N  N326  1  0.70176429  0.42326820  0.45337979  1
  N  N327  1  0.17771929  0.57623458  0.54878526  1
  N  N328  1  0.44982469  0.26012405  0.04437049  1
  N  N329  1  0.72256744  0.91172502  0.96504047  1
  N  N330  1  0.67606780  0.75858819  0.05190915  1
  N  N331  1  0.23696357  0.57704391  0.96258425  1
  N  N332  1  0.98239712  0.40938840  0.96283212  1
  N  N333  1  0.28030729  0.09088720  0.45910008  1
  N  N334  1  0.28991387  0.09087419  0.04296857  1
  N  N335  1  0.48481797  0.75343768  0.51557805  1
  N  N336  1  0.00958020  0.07684250  0.96561404  1
  N  N337  1  0.75158048  0.75429877  0.03801765  1
  N  N338  1  0.03533786  0.58932088  0.46324189  1
  N  N339  1  0.98490919  0.40698022  0.53585473  1
  N  N340  1  0.52559820  0.25836163  0.03966810  1
  N  N341  1  0.56336514  0.59306391  0.44872017  1
  N  N342  1  0.71982615  0.76411011  0.45878238  1
  N  N343  1  0.29741505  0.24404649  0.54221950  1
  N  N344  1  0.00402948  0.25575474  0.03717131  1
  N  N345  1  0.70389239  0.57486120  0.96103075  1
  N  N346  1  0.19531127  0.76017049  0.04029582  1
  N  N347  1  0.77765834  0.42202308  0.45718241  1
  N  N348  1  0.99776997  0.74679090  0.96520557  1
  N  N349  1  0.02997118  0.25630099  0.45836386  1
  N  N350  1  0.55222554  0.59113165  0.04264855  1
  N  N351  1  0.18458640  0.42750011  0.04705600  1
  N  N352  1  0.03974588  0.92842954  0.45698246  1
  N  N353  1  0.80244439  0.76614399  0.45882738  1
  N  N354  1  0.30352241  0.90620019  0.54551695  1
  N  N355  1  0.19388907  0.90821612  0.95204695  1
  N  N356  1  0.22123545  0.24500242  0.54020032  1
  N  N357  1  0.20382418  0.09185837  0.45808418  1
  N  N358  1  0.47685349  0.58894477  0.03311900  1
  N  N359  1  0.19025275  0.42301397  0.46045684  1
  N  N360  1  0.07050389  0.05762206  0.59654071  1
  N  N361  1  0.07843185  0.38429942  0.60342741  1
  N  N362  1  0.06007151  0.72213470  0.60743305  1
  N  N363  1  0.57142587  0.05593179  0.60129519  1
  N  N364  1  0.57250550  0.38523536  0.60459922  1
  N  N365  1  0.52656706  0.73069297  0.56514562  1
  N  N366  1  0.43142018  0.27896369  0.10299443  1
  N  N367  1  0.43934470  0.60811009  0.08591602  1
  N  N368  1  0.44026742  0.94237077  0.09086528  1
  N  N369  1  0.92330056  0.28220939  0.10801493  1
  N  N370  1  0.92786213  0.61039680  0.10885686  1
  N  N371  1  0.93191728  0.94612909  0.10271382  1
  N  N372  1  0.44107878  0.05795249  0.91048890  1
  N  N373  1  0.45411607  0.39137555  0.91027327  1
  N  N374  1  0.44836589  0.72261767  0.90788047  1
  N  N375  1  0.92864895  0.05103087  0.89327516  1
  N  N376  1  0.94955360  0.39221018  0.90804609  1
  N  N377  1  0.95263166  0.72591537  0.91664835  1
  N  N378  1  0.06140387  0.27689066  0.40380244  1
  N  N379  1  0.06838767  0.61024952  0.41072192  1
  N  N380  1  0.05448584  0.94432570  0.39756479  1
  N  N381  1  0.56031217  0.27963640  0.40119643  1
  N  N382  1  0.57110971  0.61223123  0.38949906  1
  N  N383  1  0.55189704  0.94179857  0.40991700  1
  N  N384  1  0.31946580  0.22116034  0.59853871  1
  N  N385  1  0.29885923  0.55728603  0.58060304  1
  N  N386  1  0.31507158  0.88710114  0.60453784  1
  N  N387  1  0.82370201  0.22184291  0.60331306  1
  N  N388  1  0.81214543  0.55068879  0.59786731  1
  N  N389  1  0.81915188  0.88700651  0.61008470  1
  N  N390  1  0.19103528  0.10673222  0.10501922  1
  N  N391  1  0.17055279  0.44712411  0.10541664  1
  N  N392  1  0.17412288  0.78049994  0.09716865  1
  N  N393  1  0.69122482  0.11194419  0.09000593  1
  N  N394  1  0.67187542  0.44500549  0.09707636  1
  N  N395  1  0.67440256  0.78035030  0.10964720  1
  N  N396  1  0.19913601  0.22483838  0.90953174  1
  N  N397  1  0.19752178  0.55745904  0.91219023  1
  N  N398  1  0.18337753  0.88993575  0.89306047  1
  N  N399  1  0.68714979  0.22170650  0.91000417  1
  N  N400  1  0.68445998  0.55235611  0.90381015  1
  N  N401  1  0.68972314  0.89294011  0.90899073  1
  N  N402  1  0.30707762  0.11139993  0.40300866  1
  N  N403  1  0.30370031  0.43644972  0.41745723  1
  N  N404  1  0.34666848  0.77634518  0.42285339  1
  N  N405  1  0.80766343  0.11177759  0.40993502  1
  N  N406  1  0.80798252  0.44145874  0.40186627  1
  N  N407  1  0.82338459  0.78686432  0.40177386  1
  N  N408  1  0.43014488  0.28073542  0.39963394  1
  N  N409  1  0.44520306  0.60608533  0.40506785  1
  N  N410  1  0.42398837  0.94588700  0.39168102  1
  N  N411  1  0.93524746  0.28026966  0.39657337  1
  N  N412  1  0.94183345  0.61109546  0.40291774  1
  N  N413  1  0.92717679  0.94579711  0.40637893  1
  N  N414  1  0.05362255  0.05419973  0.91775661  1
  N  N415  1  0.07536090  0.39021961  0.89766474  1
  N  N416  1  0.07767354  0.72221030  0.89244093  1
  N  N417  1  0.56954002  0.05413520  0.89546230  1
  N  N418  1  0.58265111  0.38432901  0.89623703  1
  N  N419  1  0.57714687  0.71912026  0.90702018  1
  N  N420  1  0.04887045  0.27735454  0.08590234  1
  N  N421  1  0.05612443  0.60664670  0.09233508  1
  N  N422  1  0.05824379  0.93655257  0.08080866  1
  N  N423  1  0.55721367  0.27723560  0.09464787  1
  N  N424  1  0.56407729  0.61098890  0.10183648  1
  N  N425  1  0.56662593  0.94811737  0.10541957  1
  N  N426  1  0.44428411  0.05811164  0.58480856  1
  N  N427  1  0.44465980  0.39309449  0.58840179  1
  N  N428  1  0.40027743  0.72439735  0.58558824  1
  N  N429  1  0.94059417  0.05547841  0.60001223  1
  N  N430  1  0.95146185  0.38912515  0.59152862  1
  N  N431  1  0.93471232  0.72164911  0.58747421  1
  N  N432  1  0.18054774  0.11324938  0.40147692  1
  N  N433  1  0.17702853  0.44587932  0.40226648  1
  N  N434  1  0.21978491  0.76502530  0.44283115  1
  N  N435  1  0.67938012  0.11603823  0.40070785  1
  N  N436  1  0.68163134  0.44357368  0.39577975  1
  N  N437  1  0.69775793  0.76826359  0.39868067  1
  N  N438  1  0.32534706  0.22254370  0.88950782  1
  N  N439  1  0.32295945  0.55582179  0.89604884  1
  N  N440  1  0.31014635  0.89147118  0.90632816  1
  N  N441  1  0.81646703  0.22192448  0.90105116  1
  N  N442  1  0.81268682  0.55770091  0.91283138  1
  N  N443  1  0.81703287  0.88880447  0.89886504  1
  N  N444  1  0.31925848  0.11605781  0.09585923  1
  N  N445  1  0.29811952  0.44192750  0.09179814  1
  N  N446  1  0.30268758  0.77434759  0.09404497  1
  N  N447  1  0.81877072  0.11151909  0.09884009  1
  N  N448  1  0.80035120  0.44035204  0.08205382  1
  N  N449  1  0.79671214  0.77743081  0.08370288  1
  N  N450  1  0.19300874  0.22221282  0.59487747  1
  N  N451  1  0.17648662  0.55408102  0.60641476  1
  N  N452  1  0.18828891  0.88810808  0.59092709  1
  N  N453  1  0.69450323  0.22667581  0.59183379  1
  N  N454  1  0.68384934  0.55526027  0.58989450  1
  N  N455  1  0.69266606  0.89257801  0.59679612  1
  Cl  Cl456  1  0.26127712  0.05854486  0.62548969  1
  Cl  Cl457  1  0.26179569  0.39427395  0.61811949  1
  Cl  Cl458  1  0.23682367  0.71154446  0.62954783  1
  Cl  Cl459  1  0.75474555  0.05639911  0.60841491  1
  Cl  Cl460  1  0.76591795  0.38970510  0.61910227  1
  Cl  Cl461  1  0.73658197  0.72499915  0.59529951  1
  Cl  Cl462  1  0.23478746  0.27295892  0.09870233  1
  Cl  Cl463  1  0.24520874  0.60669663  0.10486161  1
  Cl  Cl464  1  0.25091360  0.94168531  0.10581883  1
  Cl  Cl465  1  0.74018317  0.27943576  0.11444856  1
  Cl  Cl466  1  0.74459281  0.61233543  0.12041279  1
  Cl  Cl467  1  0.74817439  0.95476232  0.13348198  1
  Cl  Cl468  1  0.24739940  0.06321517  0.90232496  1
  Cl  Cl469  1  0.26478277  0.39241220  0.88925343  1
  Cl  Cl470  1  0.26464485  0.72083181  0.89389827  1
  Cl  Cl471  1  0.75029402  0.05086390  0.86988444  1
  Cl  Cl472  1  0.76678101  0.39247768  0.88177455  1
  Cl  Cl473  1  0.76760019  0.72750063  0.90222160  1
  Cl  Cl474  1  0.24372304  0.28388042  0.37279314  1
  Cl  Cl475  1  0.25750075  0.60658449  0.39661176  1
  Cl  Cl476  1  0.23650934  0.93536652  0.37517147  1
  Cl  Cl477  1  0.74866984  0.27386390  0.37985233  1
  Cl  Cl478  1  0.75862356  0.61836117  0.38871127  1
  Cl  Cl479  1  0.73831651  0.94460135  0.39714138  1
  Cl  Cl480  1  0.01115068  0.22266677  0.62923439  1
  Cl  Cl481  1  -0.00634496  0.55840754  0.62364832  1
  Cl  Cl482  1  0.00444041  0.88735737  0.61302025  1
  Cl  Cl483  1  0.50644561  0.21977081  0.60856600  1
  Cl  Cl484  1  0.48539001  0.56138259  0.60157785  1
  Cl  Cl485  1  0.50774109  0.88590652  0.61895781  1
  Cl  Cl486  1  0.00864844  0.10546253  0.10752287  1
  Cl  Cl487  1  -0.01371274  0.44075347  0.11573361  1
  Cl  Cl488  1  -0.01871830  0.77422666  0.10174341  1
  Cl  Cl489  1  0.50282003  0.10685894  0.11719954  1
  Cl  Cl490  1  0.48157149  0.44569641  0.11896694  1
  Cl  Cl491  1  0.48643419  0.77907839  0.11484713  1
  Cl  Cl492  1  0.01598048  0.22638233  0.90064849  1
  Cl  Cl493  1  0.00945116  0.55950250  0.89214992  1
  Cl  Cl494  1  -0.00152442  0.88284085  0.87651086  1
  Cl  Cl495  1  0.50696546  0.21561648  0.87463676  1
  Cl  Cl496  1  0.50505162  0.56053883  0.86827650  1
  Cl  Cl497  1  0.49745334  0.88673956  0.89019349  1
  Cl  Cl498  1  -0.00583759  0.11017837  0.38034678  1
  Cl  Cl499  1  -0.00697536  0.44696476  0.37942260  1
  Cl  Cl500  1  0.00685148  0.77286441  0.38527370  1
  Cl  Cl501  1  0.49232490  0.10784116  0.39039321  1
  Cl  Cl502  1  0.49074567  0.44248359  0.38756610  1
  Cl  Cl503  1  0.52127470  0.77968854  0.38191525  1
  Cl  Cl504  1  0.36485723  0.14586969  0.75619618  1
  Cl  Cl505  1  0.36077877  0.49089790  0.75393305  1
  Cl  Cl506  1  0.36335791  0.81748522  0.74172302  1
  Cl  Cl507  1  0.87075405  0.14690496  0.75373694  1
  Cl  Cl508  1  0.86147914  0.48815760  0.75095470  1
  Cl  Cl509  1  0.86734763  0.81227197  0.74113368  1
  Cl  Cl510  1  0.14103041  0.18421713  0.24198182  1
  Cl  Cl511  1  0.13227893  0.52503918  0.25449545  1
  Cl  Cl512  1  0.13189531  0.84834329  0.24111078  1
  Cl  Cl513  1  0.63468033  0.18066106  0.25675905  1
  Cl  Cl514  1  0.63179113  0.52509817  0.24995893  1
  Cl  Cl515  1  0.63952619  0.85276619  0.24698058  1
  Cl  Cl516  1  0.14055276  0.14450893  0.75288398  1
  Cl  Cl517  1  0.13716656  0.47894046  0.74169270  1
  Cl  Cl518  1  0.14413095  0.81182704  0.75860707  1
  Cl  Cl519  1  0.64569967  0.14819958  0.74660312  1
  Cl  Cl520  1  0.64060434  0.47879317  0.75089620  1
  Cl  Cl521  1  0.64402246  0.81156357  0.76020920  1
  Cl  Cl522  1  0.36323580  0.19043460  0.24884661  1
  Cl  Cl523  1  0.34992010  0.51433547  0.25374147  1
  Cl  Cl524  1  0.35379856  0.84752374  0.26201828  1
  Cl  Cl525  1  0.85802013  0.18442670  0.24215004  1
  Cl  Cl526  1  0.85157717  0.51667833  0.24193513  1
  Cl  Cl527  1  0.86027708  0.85330304  0.25459791  1
  Cl  Cl528  1  0.12811285  0.31146771  0.76149418  1
  Cl  Cl529  1  0.11619250  0.64972702  0.75498816  1
  Cl  Cl530  1  0.11121097  0.98060481  0.75489346  1
  Cl  Cl531  1  0.61810747  0.31434301  0.74336235  1
  Cl  Cl532  1  0.62117716  0.64799550  0.73909883  1
  Cl  Cl533  1  0.61621507  0.98239842  0.74406899  1
  Cl  Cl534  1  0.37752994  0.01927566  0.25511523  1
  Cl  Cl535  1  0.38775987  0.35161265  0.24638665  1
  Cl  Cl536  1  0.38984383  0.68363268  0.24978089  1
  Cl  Cl537  1  0.88972109  0.01929830  0.24349207  1
  Cl  Cl538  1  0.88469108  0.34975022  0.24967131  1
  Cl  Cl539  1  0.89212399  0.68188586  0.25305119  1
  Cl  Cl540  1  0.39600316  0.31635156  0.75265783  1
  Cl  Cl541  1  0.40388579  0.65590363  0.74566924  1
  Cl  Cl542  1  0.39589310  0.98187622  0.74838116  1
  Cl  Cl543  1  0.90046426  0.31775399  0.75176045  1
  Cl  Cl544  1  0.88780788  0.64981255  0.75724597  1
  Cl  Cl545  1  0.88914844  0.97687437  0.74472939  1
  Cl  Cl546  1  0.10849477  0.01689770  0.24894946  1
  Cl  Cl547  1  0.11050728  0.35783731  0.24244227  1
  Cl  Cl548  1  0.11402768  0.68779480  0.24259686  1
  Cl  Cl549  1  0.60366991  0.01533679  0.25336211  1
  Cl  Cl550  1  0.60956783  0.35493741  0.25207069  1
  Cl  Cl551  1  0.61327107  0.69100586  0.25232235  1
