# generated using pymatgen
data_H8PbC4(N3Cl2)2
_symmetry_space_group_name_H-M   'P 1'
_cell_length_a   16.62716814
_cell_length_b   22.51646312
_cell_length_c   21.59461949
_cell_angle_alpha   90.00174403
_cell_angle_beta   89.99924535
_cell_angle_gamma   89.99672078
_symmetry_Int_Tables_number   1
_chemical_formula_structural   H8PbC4(N3Cl2)2
_chemical_formula_sum   'H192 Pb24 C96 N144 Cl96'
_cell_volume   8084.70199260
_cell_formula_units_Z   24
loop_
 _symmetry_equiv_pos_site_id
 _symmetry_equiv_pos_as_xyz
  1  'x, y, z'
loop_
 _atom_site_type_symbol
 _atom_site_label
 _atom_site_symmetry_multiplicity
 _atom_site_fract_x
 _atom_site_fract_y
 _atom_site_fract_z
 _atom_site_occupancy
  H  H0  1  0.00959411  0.02630494  0.67803684  1
  H  H1  1  0.00469777  0.36357449  0.67753052  1
  H  H2  1  0.01146738  0.69554668  0.67574931  1
  H  H3  1  0.50372436  0.02916122  0.68287950  1
  H  H4  1  0.49044111  0.36390738  0.67464018  1
  H  H5  1  0.48959154  0.69870303  0.67683016  1
  H  H6  1  0.00988585  0.30115995  0.17853666  1
  H  H7  1  -0.00962241  0.63532897  0.18146060  1
  H  H8  1  -0.00498171  0.97177884  0.17941452  1
  H  H9  1  0.48934825  0.30649829  0.17711521  1
  H  H10  1  0.50602477  0.63745852  0.17847073  1
  H  H11  1  0.49595796  0.96849316  0.18037315  1
  H  H12  1  0.00788519  0.02811136  0.82327657  1
  H  H13  1  0.00184126  0.36217488  0.82338517  1
  H  H14  1  -0.00713977  0.69912018  0.81742552  1
  H  H15  1  0.49723033  0.03171399  0.82389629  1
  H  H16  1  0.48331241  0.36650498  0.82600317  1
  H  H17  1  0.49896491  0.69858699  0.82384672  1
  H  H18  1  -0.00365424  0.30979007  0.32407015  1
  H  H19  1  0.02099487  0.63866272  0.32392062  1
  H  H20  1  -0.00320735  0.97120816  0.31920796  1
  H  H21  1  0.49862169  0.30429547  0.32060195  1
  H  H22  1  0.48397294  0.63464654  0.32142359  1
  H  H23  1  0.49353214  0.97032850  0.31927424  1
  H  H24  1  0.23955299  0.19818023  0.67721777  1
  H  H25  1  0.24857756  0.51564480  0.67474724  1
  H  H26  1  0.25505059  0.86584067  0.67829802  1
  H  H27  1  0.76362924  0.19966514  0.67954604  1
  H  H28  1  0.74763902  0.52918242  0.67962641  1
  H  H29  1  0.75233609  0.86033101  0.68083541  1
  H  H30  1  0.23815452  0.13746451  0.17429402  1
  H  H31  1  0.25370629  0.47194201  0.17851118  1
  H  H32  1  0.24119650  0.80349676  0.18085282  1
  H  H33  1  0.75996619  0.14038022  0.17994576  1
  H  H34  1  0.74480197  0.46809030  0.18116251  1
  H  H35  1  0.76039736  0.80491281  0.17545501  1
  H  H36  1  0.24901625  0.19691961  0.82111430  1
  H  H37  1  0.23611052  0.53128460  0.81950097  1
  H  H38  1  0.25472469  0.86449349  0.82058565  1
  H  H39  1  0.74439468  0.19516521  0.81827023  1
  H  H40  1  0.76117927  0.52674261  0.82232272  1
  H  H41  1  0.74293441  0.86472866  0.82089798  1
  H  H42  1  0.24232041  0.14226109  0.32320802  1
  H  H43  1  0.24823223  0.46104927  0.32595959  1
  H  H44  1  0.25418445  0.80644399  0.32305194  1
  H  H45  1  0.74459173  0.13400778  0.31831944  1
  H  H46  1  0.75396852  0.47331934  0.32233606  1
  H  H47  1  0.74712497  0.80383461  0.32337116  1
  H  H48  1  0.11575185  0.05824177  0.59543262  1
  H  H49  1  0.12782906  0.38815326  0.60412174  1
  H  H50  1  0.12840858  0.72596338  0.60140015  1
  H  H51  1  0.61592524  0.05411039  0.60372524  1
  H  H52  1  0.62490605  0.38303141  0.61748258  1
  H  H53  1  0.63231869  0.71784428  0.62724306  1
  H  H54  1  0.37011509  0.27861974  0.10134882  1
  H  H55  1  0.37628922  0.61347346  0.11617456  1
  H  H56  1  0.38789628  0.94314613  0.09847287  1
  H  H57  1  0.86838164  0.28493993  0.12887684  1
  H  H58  1  0.88403041  0.61058022  0.09680362  1
  H  H59  1  0.88109581  0.94295800  0.10198469  1
  H  H60  1  0.36795036  0.05949534  0.88751918  1
  H  H61  1  0.37973728  0.39070322  0.90967812  1
  H  H62  1  0.38377078  0.72101884  0.90200305  1
  H  H63  1  0.86611906  0.04859079  0.87282027  1
  H  H64  1  0.87625094  0.38867681  0.89172212  1
  H  H65  1  0.89046002  0.72450477  0.90263350  1
  H  H66  1  0.13359798  0.28400503  0.37953570  1
  H  H67  1  0.11906959  0.60674915  0.41270587  1
  H  H68  1  0.12222858  0.94740273  0.39001848  1
  H  H69  1  0.62725077  0.28253011  0.38699317  1
  H  H70  1  0.62470527  0.61553602  0.37461655  1
  H  H71  1  0.62461483  0.94756736  0.38330533  1
  H  H72  1  0.37345352  0.22072443  0.61771672  1
  H  H73  1  0.37304869  0.54828836  0.60879540  1
  H  H74  1  0.37512935  0.88911631  0.60506441  1
  H  H75  1  0.86351646  0.22751304  0.59046808  1
  H  H76  1  0.87456165  0.55446670  0.61206859  1
  H  H77  1  0.87394616  0.88290363  0.61015962  1
  H  H78  1  0.14106211  0.10434445  0.08666786  1
  H  H79  1  0.12496257  0.44663090  0.11257469  1
  H  H80  1  0.11386499  0.78026080  0.11324344  1
  H  H81  1  0.63543397  0.11350098  0.10980787  1
  H  H82  1  0.62252481  0.44433811  0.10899502  1
  H  H83  1  0.61721316  0.78393298  0.12893788  1
  H  H84  1  0.13332155  0.22420392  0.89778734  1
  H  H85  1  0.12620347  0.55683713  0.89901804  1
  H  H86  1  0.11466684  0.88270842  0.87171835  1
  H  H87  1  0.62996746  0.22245490  0.89829118  1
  H  H88  1  0.62068977  0.54731132  0.87362210  1
  H  H89  1  0.61021262  0.88541326  0.88322831  1
  H  H90  1  0.38136308  0.11777864  0.37629638  1
  H  H91  1  0.37229492  0.44463612  0.39587488  1
  H  H92  1  0.36401825  0.77675238  0.40515902  1
  H  H93  1  0.88082410  0.11367787  0.37501366  1
  H  H94  1  0.86928826  0.44313281  0.39918509  1
  H  H95  1  0.86698146  0.77964218  0.39790166  1
  H  H96  1  0.37823231  0.28181793  0.39212084  1
  H  H97  1  0.38061915  0.60506093  0.40823950  1
  H  H98  1  0.37629750  0.94461584  0.39667932  1
  H  H99  1  0.88742487  0.27862587  0.40658449  1
  H  H100  1  0.87773987  0.61788206  0.37166135  1
  H  H101  1  0.87338467  0.94538409  0.38885333  1
  H  H102  1  0.11011380  0.06263826  0.90769297  1
  H  H103  1  0.12566708  0.38755345  0.89321271  1
  H  H104  1  0.13545596  0.71433167  0.86837073  1
  H  H105  1  0.61535281  0.05582237  0.89924407  1
  H  H106  1  0.62373068  0.38155165  0.87687507  1
  H  H107  1  0.63106051  0.72218960  0.88675978  1
  H  H108  1  0.11297451  0.27429130  0.09378808  1
  H  H109  1  0.13008732  0.61548547  0.12574758  1
  H  H110  1  0.12940357  0.94935548  0.11751439  1
  H  H111  1  0.61827656  0.28109517  0.11026203  1
  H  H112  1  0.62477768  0.61107805  0.10547335  1
  H  H113  1  0.63474487  0.94780679  0.12455851  1
  H  H114  1  0.36843694  0.04925231  0.62559126  1
  H  H115  1  0.37778404  0.39078988  0.59617786  1
  H  H116  1  0.39020301  0.72904135  0.58865020  1
  H  H117  1  0.87012023  0.04790832  0.62485101  1
  H  H118  1  0.87882309  0.38831846  0.60682894  1
  H  H119  1  0.88022456  0.72029842  0.61273002  1
  H  H120  1  0.13521072  0.10894034  0.40449930  1
  H  H121  1  0.12326932  0.44582001  0.39526779  1
  H  H122  1  0.11764243  0.78322558  0.38105871  1
  H  H123  1  0.63373313  0.10892130  0.40042958  1
  H  H124  1  0.62113215  0.44878572  0.38336931  1
  H  H125  1  0.61904248  0.77776287  0.39107202  1
  H  H126  1  0.38180820  0.21945078  0.88318362  1
  H  H127  1  0.37328167  0.54812603  0.87683064  1
  H  H128  1  0.35969077  0.88959195  0.90432602  1
  H  H129  1  0.87760345  0.21955870  0.88133921  1
  H  H130  1  0.86559599  0.55920780  0.90606233  1
  H  H131  1  0.85816890  0.89107823  0.89872877  1
  H  H132  1  0.38255205  0.11895587  0.12891751  1
  H  H133  1  0.37391115  0.44487855  0.10358487  1
  H  H134  1  0.36260364  0.77799000  0.10678348  1
  H  H135  1  0.88419736  0.11158284  0.11083134  1
  H  H136  1  0.87135421  0.44449184  0.11163247  1
  H  H137  1  0.85969059  0.77525133  0.08813869  1
  H  H138  1  0.12646884  0.22431527  0.59639776  1
  H  H139  1  0.12498580  0.55319066  0.61006588  1
  H  H140  1  0.12630875  0.88439800  0.61368870  1
  H  H141  1  0.62053492  0.21667419  0.63157607  1
  H  H142  1  0.62593138  0.55367096  0.60565776  1
  H  H143  1  0.62462004  0.88536162  0.61488947  1
  H  H144  1  0.70193922  0.07882712  0.50019683  1
  H  H145  1  0.78835031  0.58610837  1.00481924  1
  H  H146  1  0.40811652  0.58061990  0.00441063  1
  H  H147  1  0.92308609  0.41693826  0.99677051  1
  H  H148  1  0.03021727  0.08550108  1.00706093  1
  H  H149  1  0.47312766  0.75237167  0.49164606  1
  H  H150  1  0.12903308  0.91037871  -0.01428376  1
  H  H151  1  0.42609606  0.25254156  0.50279187  1
  H  H152  1  0.78360942  0.25807859  0.49603350  1
  H  H153  1  0.29021504  0.75133918  0.50580842  1
  H  H154  1  0.77793107  0.74893601  -0.00929179  1
  H  H155  1  0.31269801  0.55937660  0.50242783  1
  H  H156  1  0.55257142  0.08313910  0.49687018  1
  H  H157  1  0.15337769  0.74845367  0.00337642  1
  H  H158  1  0.19773649  0.25218325  1.00146577  1
  H  H159  1  0.96272085  0.25036184  0.50546121  1
  H  H160  1  0.03904063  0.24663680  -0.00986640  1
  H  H161  1  0.62828606  0.24831574  0.51734256  1
  H  H162  1  0.21006592  0.08434911  0.50541141  1
  H  H163  1  0.45705299  0.91405021  -0.00668028  1
  H  H164  1  0.94544648  0.91117235  -0.00321493  1
  H  H165  1  0.18943325  0.58609893  1.00538351  1
  H  H166  1  0.95742825  0.58272794  -0.00587936  1
  H  H167  1  0.61359721  0.92059487  0.01403781  1
  H  H168  1  0.39162469  0.07738083  0.51147586  1
  H  H169  1  0.03346162  0.58387526  0.50859613  1
  H  H170  1  0.57590221  0.57931196  -0.00228566  1
  H  H171  1  0.44873998  0.75778867  1.00062717  1
  H  H172  1  0.04015369  0.08103574  0.49451760  1
  H  H173  1  0.82734460  0.91345622  0.49983376  1
  H  H174  1  0.82979416  0.58292088  0.50245280  1
  H  H175  1  0.96530198  0.75188335  1.00688579  1
  H  H176  1  0.18337200  0.56492597  0.50339160  1
  H  H177  1  0.16598153  0.41727736  0.00269218  1
  H  H178  1  0.22551203  0.08232747  -0.01111004  1
  H  H179  1  0.66332514  0.75124531  0.49648709  1
  H  H180  1  0.85753876  0.08491731  0.48894021  1
  H  H181  1  0.46128633  0.58058266  0.50576983  1
  H  H182  1  0.16286562  0.91371064  0.50045802  1
  H  H183  1  0.83755732  0.08383489  0.00159598  1
  H  H184  1  0.58867960  0.91645035  0.49332697  1
  H  H185  1  0.28855309  0.91651613  1.00911154  1
  H  H186  1  0.88059738  0.25477917  1.01482078  1
  H  H187  1  0.60189604  0.41547271  0.50349275  1
  H  H188  1  0.66802225  0.41231281  0.00179042  1
  H  H189  1  0.55471170  0.10106846  0.99325184  1
  H  H190  1  0.59851247  0.74401812  0.99657154  1
  H  H191  1  0.40368450  0.08228146  0.99659760  1
  Pb  Pb192  1  0.24050277  0.05137767  0.74926987  1
  Pb  Pb193  1  0.24980631  0.37939605  0.75222899  1
  Pb  Pb194  1  0.25269004  0.71528303  0.74166774  1
  Pb  Pb195  1  0.74454486  0.04626904  0.74458003  1
  Pb  Pb196  1  0.74969581  0.38157000  0.74997279  1
  Pb  Pb197  1  0.75068387  0.71261095  0.75853403  1
  Pb  Pb198  1  0.25146174  0.28608345  0.23733850  1
  Pb  Pb199  1  0.24486083  0.61554211  0.26380833  1
  Pb  Pb200  1  0.24970307  0.95232722  0.25179783  1
  Pb  Pb201  1  0.74842126  0.28483244  0.26121920  1
  Pb  Pb202  1  0.75148076  0.62085202  0.23700099  1
  Pb  Pb203  1  0.75234334  0.95079972  0.24959439  1
  Pb  Pb204  1  -0.00639369  0.21593647  0.74323739  1
  Pb  Pb205  1  0.00009832  0.54849042  0.75370552  1
  Pb  Pb206  1  -0.00539783  0.87975435  0.75199287  1
  Pb  Pb207  1  0.49955805  0.21518391  0.75453770  1
  Pb  Pb208  1  0.49914512  0.54655108  0.74155189  1
  Pb  Pb209  1  0.49480672  0.88147103  0.75395943  1
  Pb  Pb210  1  0.00509548  0.11889924  0.24762281  1
  Pb  Pb211  1  -0.00411669  0.44990213  0.24585089  1
  Pb  Pb212  1  -0.00399658  0.78659873  0.24570220  1
  Pb  Pb213  1  0.50205752  0.11826861  0.24843042  1
  Pb  Pb214  1  0.50074898  0.45347796  0.24932841  1
  Pb  Pb215  1  0.49361874  0.78317955  0.25144108  1
  C  C216  1  -0.00130276  0.04261331  0.63148928  1
  C  C217  1  0.00378664  0.37959582  0.63016126  1
  C  C218  1  0.00657796  0.71326749  0.62946434  1
  C  C219  1  0.49552137  0.04383946  0.63536287  1
  C  C220  1  0.49850187  0.37959585  0.62760366  1
  C  C221  1  0.50378734  0.71378549  0.63034917  1
  C  C222  1  -0.00354648  0.28681465  0.13159560  1
  C  C223  1  0.00181989  0.62083758  0.13431094  1
  C  C224  1  0.00213408  0.95470163  0.13274478  1
  C  C225  1  0.49237376  0.28984433  0.13004856  1
  C  C226  1  0.50229069  0.62062640  0.13136466  1
  C  C227  1  0.50703392  0.95348078  0.13325114  1
  C  C228  1  -0.00494181  0.04487773  0.86931788  1
  C  C229  1  0.00081142  0.37896604  0.87040931  1
  C  C230  1  0.00613436  0.71226364  0.86465959  1
  C  C231  1  0.49320239  0.04806265  0.87126257  1
  C  C232  1  0.49619326  0.37980780  0.87327067  1
  C  C233  1  0.50487909  0.71350526  0.87155762  1
  C  C234  1  0.00521504  0.29212089  0.37023988  1
  C  C235  1  0.00648162  0.62215624  0.36980414  1
  C  C236  1  -0.00216645  0.95486066  0.36617230  1
  C  C237  1  0.50099647  0.28933167  0.36828950  1
  C  C238  1  0.49571684  0.61971132  0.36829193  1
  C  C239  1  0.49804339  0.95400845  0.36638256  1
  C  C240  1  0.24607734  0.21372937  0.63016309  1
  C  C241  1  0.24883012  0.53716563  0.62976801  1
  C  C242  1  0.25149885  0.88013283  0.63052966  1
  C  C243  1  0.74915251  0.21455303  0.63287734  1
  C  C244  1  0.74931849  0.54526916  0.63235600  1
  C  C245  1  0.75079521  0.87610672  0.63348881  1
  C  C246  1  0.25390931  0.12175192  0.12831671  1
  C  C247  1  0.25096368  0.45486960  0.13158470  1
  C  C248  1  0.23930738  0.78770488  0.13349069  1
  C  C249  1  0.75994677  0.12286638  0.13328289  1
  C  C250  1  0.74650914  0.45262447  0.13363097  1
  C  C251  1  0.74578501  0.78905691  0.12934194  1
  C  C252  1  0.25446049  0.21280345  0.86812056  1
  C  C253  1  0.24492045  0.54530039  0.86702591  1
  C  C254  1  0.24243637  0.87910820  0.86759582  1
  C  C255  1  0.75064580  0.21163349  0.86527143  1
  C  C256  1  0.74947435  0.54340840  0.86856826  1
  C  C257  1  0.73703021  0.88008931  0.86809803  1
  C  C258  1  0.25266032  0.12476074  0.36932185  1
  C  C259  1  0.24788839  0.45039294  0.37508233  1
  C  C260  1  0.24571825  0.78958045  0.36964123  1
  C  C261  1  0.75298934  0.11922360  0.36581363  1
  C  C262  1  0.74835229  0.45557265  0.36862971  1
  C  C263  1  0.74377431  0.78779973  0.37059940  1
  C  C264  1  0.01110652  0.25893437  0.03388883  1
  C  C265  1  0.68906127  0.90682513  0.95808452  1
  C  C266  1  0.28749537  0.43273567  0.46927224  1
  C  C267  1  0.97726565  0.92383983  0.03888231  1
  C  C268  1  0.30739252  0.24292011  0.95717375  1
  C  C269  1  0.93579035  0.07191908  0.54656564  1
  C  C270  1  0.20563573  0.90509767  0.53747998  1
  C  C271  1  0.20836528  0.42714667  0.04049864  1
  C  C272  1  0.99341581  0.73913745  0.96319014  1
  C  C273  1  0.69946218  0.42559908  0.45739259  1
  C  C274  1  0.17873744  0.90260479  0.95385489  1
  C  C275  1  0.71102101  0.42419856  0.04068141  1
  C  C276  1  0.78938363  0.57275658  0.54054713  1
  C  C277  1  0.96012771  0.92432865  0.45813726  1
  C  C278  1  0.19780338  0.75961303  0.04192383  1
  C  C279  1  0.46630985  0.26275427  0.46388068  1
  C  C280  1  0.45398683  0.59166464  0.04030395  1
  C  C281  1  0.22305825  0.57352683  0.96419127  1
  C  C282  1  0.52031591  0.07083565  0.53881428  1
  C  C283  1  0.54390062  0.92646130  0.45659376  1
  C  C284  1  0.03488539  0.74673118  0.53721209  1
  C  C285  1  0.70544034  0.90426189  0.54194164  1
  C  C286  1  0.29738169  0.24197060  0.54163264  1
  C  C287  1  0.31461885  0.09330157  0.45384720  1
  C  C288  1  0.47239845  0.40928104  0.53234156  1
  C  C289  1  0.48066897  0.40586081  0.96973157  1
  C  C290  1  0.92814234  0.07392497  0.95261105  1
  C  C291  1  0.79688769  0.09394470  0.04088994  1
  C  C292  1  0.30381026  0.56962740  0.95514902  1
  C  C293  1  0.54779416  0.26325836  0.46005793  1
  C  C294  1  0.98615217  0.59371567  0.03808053  1
  C  C295  1  0.55361728  0.40675823  0.53796219  1
  C  C296  1  0.81095735  0.09380567  0.45354248  1
  C  C297  1  0.68406235  0.57214813  0.95329268  1
  C  C298  1  0.20728724  0.43329682  0.46908615  1
  C  C299  1  0.28717435  0.90676101  0.53602712  1
  C  C300  1  0.93071323  0.26284574  0.04626939  1
  C  C301  1  0.43882345  0.06834253  0.54621512  1
  C  C302  1  0.32491009  0.09367658  0.04680108  1
  C  C303  1  0.56058252  0.40238681  0.95897695  1
  C  C304  1  0.53615460  0.59059144  0.03690812  1
  C  C305  1  0.48631465  0.92530377  0.03694924  1
  C  C306  1  0.68047328  0.23926449  0.54951618  1
  C  C307  1  0.78713849  0.90353430  0.53874160  1
  C  C308  1  0.04201078  0.40919378  0.96324410  1
  C  C309  1  0.67706909  0.75908874  0.04733657  1
  C  C310  1  0.07295796  0.73457598  0.94986749  1
  C  C311  1  0.25919989  0.90538905  0.96553584  1
  N  N312  1  0.24796304  0.08903265  0.03360788  1
  N  N313  1  0.53625127  0.25993298  0.03892120  1
  N  N314  1  0.06525402  0.25971728  0.45460530  1
  N  N315  1  0.29123028  0.57745615  0.54318256  1
  N  N316  1  0.26446774  0.75762346  0.46241244  1
  N  N317  1  0.98808807  0.25821058  0.46228602  1
  N  N318  1  0.01287043  0.59027153  0.46377659  1
  N  N319  1  0.57189881  0.74018461  0.54742679  1
  N  N320  1  0.75432844  0.75701410  0.03458057  1
  N  N321  1  0.22875057  0.24320660  0.96140641  1
  N  N322  1  0.46467395  0.92494223  0.46148739  1
  N  N323  1  0.71775680  0.09392100  0.04016688  1
  N  N324  1  0.01368517  0.07469915  0.53719962  1
  N  N325  1  0.46035156  0.25878945  0.03645218  1
  N  N326  1  0.77655519  0.42291183  0.46376914  1
  N  N327  1  0.55488584  0.74139765  0.95945868  1
  N  N328  1  0.96399530  0.40961400  0.53812021  1
  N  N329  1  0.52439020  0.07129380  0.96587850  1
  N  N330  1  0.48433697  0.59009055  0.46239911  1
  N  N331  1  0.00564888  0.07838274  0.96342701  1
  N  N332  1  0.05594543  0.92562646  0.04434796  1
  N  N333  1  0.56100863  0.59358428  0.45267611  1
  N  N334  1  0.72441997  0.24168966  0.96015638  1
  N  N335  1  0.93670356  0.59429054  0.45151787  1
  N  N336  1  0.70306819  0.75922159  0.46029884  1
  N  N337  1  0.95769425  0.74465253  0.53937179  1
  N  N338  1  0.96271794  0.40909971  0.96148177  1
  N  N339  1  0.47712875  0.73223172  0.96776745  1
  N  N340  1  0.18709339  0.75918896  0.45548374  1
  N  N341  1  0.03799394  0.92536686  0.45965909  1
  N  N342  1  0.06443996  0.59502689  0.04755082  1
  N  N343  1  0.04022687  0.40938220  0.53723365  1
  N  N344  1  0.71018501  0.57367346  0.53831990  1
  N  N345  1  0.49543420  0.74457439  0.53612163  1
  N  N346  1  0.78097516  0.76001682  0.46433313  1
  N  N347  1  0.75826953  0.24245271  0.53674764  1
  N  N348  1  0.76206602  0.57604927  0.96275830  1
  N  N349  1  0.20841054  0.58008862  0.54417366  1
  N  N350  1  0.28763125  0.42625086  0.03714967  1
  N  N351  1  0.79058278  0.42450061  0.04068162  1
  N  N352  1  0.23663486  0.09093121  0.46283893  1
  N  N353  1  0.27683523  0.75883363  0.03921757  1
  N  N354  1  0.56492895  0.92705003  0.04702058  1
  N  N355  1  0.22052762  0.24313227  0.53347046  1
  N  N356  1  0.73202588  0.09270352  0.46121086  1
  N  N357  1  0.44612394  0.08052630  0.95849735  1
  N  N358  1  0.76644505  0.90855310  0.96434388  1
  N  N359  1  0.80013833  0.24016629  0.95459953  1
  N  N360  1  0.05351716  0.05347859  0.58873812  1
  N  N361  1  0.06653512  0.39049193  0.59404685  1
  N  N362  1  0.06797128  0.72790971  0.59134218  1
  N  N363  1  0.55431779  0.05538452  0.59466377  1
  N  N364  1  0.56817167  0.38845532  0.59863489  1
  N  N365  1  0.57647561  0.72269104  0.60668767  1
  N  N366  1  0.43139333  0.27719386  0.09281786  1
  N  N367  1  0.43485146  0.61033809  0.09932020  1
  N  N368  1  0.44981831  0.94120500  0.09054865  1
  N  N369  1  0.92324405  0.27982061  0.10679771  1
  N  N370  1  0.94628466  0.60933789  0.09088882  1
  N  N371  1  0.94274826  0.94150797  0.09287277  1
  N  N372  1  0.42644445  0.05718814  0.90344534  1
  N  N373  1  0.44136807  0.39238830  0.91776574  1
  N  N374  1  0.44552308  0.72479204  0.91066528  1
  N  N375  1  0.92130312  0.05483310  0.89380862  1
  N  N376  1  0.93676560  0.38951254  0.90471985  1
  N  N377  1  0.95257613  0.72468798  0.90869268  1
  N  N378  1  0.07554110  0.27961934  0.39679100  1
  N  N379  1  0.05701188  0.60951389  0.41519869  1
  N  N380  1  0.06143279  0.94432923  0.40112795  1
  N  N381  1  0.56849334  0.27894454  0.40202025  1
  N  N382  1  0.56772237  0.61089688  0.39367572  1
  N  N383  1  0.56560155  0.94371778  0.39838178  1
  N  N384  1  0.31557701  0.22439520  0.60012809  1
  N  N385  1  0.31283482  0.54889081  0.59575284  1
  N  N386  1  0.31482552  0.89199131  0.59214867  1
  N  N387  1  0.80066961  0.22784161  0.58831614  1
  N  N388  1  0.81500752  0.55586157  0.59807247  1
  N  N389  1  0.81396610  0.88608041  0.59700949  1
  N  N390  1  0.20332655  0.10965399  0.08288229  1
  N  N391  1  0.18446094  0.44390926  0.09841740  1
  N  N392  1  0.17334527  0.77703615  0.09959567  1
  N  N393  1  0.69645701  0.11218042  0.09804510  1
  N  N394  1  0.68307179  0.44152635  0.09725697  1
  N  N395  1  0.67144473  0.77797405  0.10664105  1
  N  N396  1  0.19482937  0.22345404  0.90714158  1
  N  N397  1  0.18738397  0.55802404  0.90795734  1
  N  N398  1  0.16977814  0.88677507  0.89316905  1
  N  N399  1  0.69211059  0.22399653  0.90490165  1
  N  N400  1  0.67632400  0.55310408  0.89447521  1
  N  N401  1  0.66838758  0.88975206  0.89941557  1
  N  N402  1  0.32502922  0.11284018  0.39555151  1
  N  N403  1  0.31308696  0.44269467  0.41177260  1
  N  N404  1  0.30186980  0.77810558  0.41142009  1
  N  N405  1  0.82415546  0.11041462  0.39427064  1
  N  N406  1  0.80727478  0.44216517  0.40711293  1
  N  N407  1  0.80588055  0.77695178  0.40795496  1
  N  N408  1  0.43852731  0.27933036  0.40522868  1
  N  N409  1  0.44257278  0.60794806  0.41222278  1
  N  N410  1  0.43802740  0.94202045  0.40480830  1
  N  N411  1  0.94966749  0.27968398  0.41210423  1
  N  N412  1  0.93333522  0.61226376  0.39236648  1
  N  N413  1  0.93347190  0.94225667  0.40176267  1
  N  N414  1  0.04803669  0.05752911  0.91299446  1
  N  N415  1  0.06563653  0.39126057  0.90657228  1
  N  N416  1  0.08036800  0.71860966  0.89025297  1
  N  N417  1  0.55401617  0.06090021  0.90834457  1
  N  N418  1  0.56924581  0.38677254  0.89935106  1
  N  N419  1  0.57267633  0.72116123  0.90281155  1
  N  N420  1  0.05082155  0.27399036  0.08763843  1
  N  N421  1  0.07229720  0.61192912  0.10737904  1
  N  N422  1  0.07023840  0.94455308  0.10289117  1
  N  N423  1  0.55787040  0.27941008  0.09685981  1
  N  N424  1  0.56453802  0.60850215  0.09408948  1
  N  N425  1  0.57715282  0.94516238  0.10602860  1
  N  N426  1  0.42508543  0.05179451  0.60640352  1
  N  N427  1  0.43917952  0.39287519  0.58619230  1
  N  N428  1  0.45260827  0.72576153  0.58520791  1
  N  N429  1  0.92606595  0.05358434  0.60536905  1
  N  N430  1  0.93982494  0.39158688  0.59578489  1
  N  N431  1  0.93986545  0.72359233  0.59806985  1
  N  N432  1  0.19736228  0.11321989  0.41152236  1
  N  N433  1  0.18219567  0.44358274  0.41156193  1
  N  N434  1  0.17594065  0.77782535  0.39720971  1
  N  N435  1  0.69621430  0.10823159  0.40712509  1
  N  N436  1  0.67958862  0.44470683  0.39952760  1
  N  N437  1  0.67875538  0.77733800  0.40404909  1
  N  N438  1  0.32356851  0.22446950  0.89930957  1
  N  N439  1  0.31635606  0.55280158  0.89636826  1
  N  N440  1  0.29764078  0.89071360  0.91115609  1
  N  N441  1  0.81817935  0.22192559  0.89595427  1
  N  N442  1  0.80330144  0.55657058  0.91135805  1
  N  N443  1  0.79595154  0.89146708  0.90714706  1
  N  N444  1  0.32881695  0.11242059  0.10612794  1
  N  N445  1  0.31224133  0.44359121  0.09412134  1
  N  N446  1  0.30105802  0.77659086  0.09663864  1
  N  N447  1  0.82433742  0.11083916  0.09811305  1
  N  N448  1  0.81081046  0.44214719  0.09922817  1
  N  N449  1  0.79725707  0.77801586  0.08428414  1
  N  N450  1  0.18815175  0.22512015  0.58997016  1
  N  N451  1  0.18520078  0.55155827  0.59636840  1
  N  N452  1  0.18479716  0.88872680  0.59751602  1
  N  N453  1  0.67500033  0.22164498  0.60903337  1
  N  N454  1  0.68698464  0.55625553  0.59582856  1
  N  N455  1  0.68398056  0.88807667  0.59936923  1
  Cl  Cl456  1  0.23440350  0.06424540  0.60936425  1
  Cl  Cl457  1  0.25231810  0.38877819  0.61745236  1
  Cl  Cl458  1  0.26797926  0.72891602  0.60111404  1
  Cl  Cl459  1  0.73912743  0.05671448  0.60622888  1
  Cl  Cl460  1  0.75573305  0.38243033  0.61985820  1
  Cl  Cl461  1  0.75671188  0.72151272  0.62739736  1
  Cl  Cl462  1  0.23801493  0.27190619  0.10016436  1
  Cl  Cl463  1  0.25347609  0.61369500  0.13241610  1
  Cl  Cl464  1  0.26307833  0.94926831  0.11660578  1
  Cl  Cl465  1  0.73920718  0.28054155  0.13139429  1
  Cl  Cl466  1  0.75995000  0.61129315  0.09925026  1
  Cl  Cl467  1  0.75972549  0.94379097  0.11877124  1
  Cl  Cl468  1  0.23437635  0.06621641  0.89547535  1
  Cl  Cl469  1  0.24950951  0.38474766  0.88571148  1
  Cl  Cl470  1  0.26609214  0.71893243  0.87290802  1
  Cl  Cl471  1  0.73669234  0.05127871  0.87643146  1
  Cl  Cl472  1  0.75400890  0.39106573  0.88256268  1
  Cl  Cl473  1  0.76270265  0.72485342  0.89852430  1
  Cl  Cl474  1  0.25661467  0.28122680  0.36753760  1
  Cl  Cl475  1  0.24960108  0.60172454  0.40409701  1
  Cl  Cl476  1  0.24969232  0.94894425  0.38626299  1
  Cl  Cl477  1  0.76435904  0.27574674  0.39943937  1
  Cl  Cl478  1  0.74991946  0.61648747  0.36769554  1
  Cl  Cl479  1  0.75001196  0.94737453  0.38320211  1
  Cl  Cl480  1  -0.01285675  0.22353463  0.60037054  1
  Cl  Cl481  1  0.00477453  0.56439203  0.61073890  1
  Cl  Cl482  1  -0.00080094  0.88446403  0.62418717  1
  Cl  Cl483  1  0.49477840  0.22253334  0.62282654  1
  Cl  Cl484  1  0.49488130  0.55755495  0.60358912  1
  Cl  Cl485  1  0.50007955  0.88487209  0.62297496  1
  Cl  Cl486  1  0.01888194  0.10272524  0.10325779  1
  Cl  Cl487  1  -0.00243455  0.44365920  0.10935643  1
  Cl  Cl488  1  -0.01762774  0.77781071  0.10992064  1
  Cl  Cl489  1  0.51154882  0.10989190  0.11201981  1
  Cl  Cl490  1  0.49762439  0.44511212  0.11692611  1
  Cl  Cl491  1  0.48643383  0.77758018  0.11109353  1
  Cl  Cl492  1  0.00863876  0.22036779  0.87871977  1
  Cl  Cl493  1  -0.01020659  0.55688693  0.88937541  1
  Cl  Cl494  1  -0.02010029  0.89243906  0.88704249  1
  Cl  Cl495  1  0.50736022  0.21609976  0.88560442  1
  Cl  Cl496  1  0.49724480  0.55317602  0.87236034  1
  Cl  Cl497  1  0.48252128  0.88628505  0.89129552  1
  Cl  Cl498  1  0.01403746  0.10427014  0.39094823  1
  Cl  Cl499  1  -0.00544712  0.44619837  0.37691278  1
  Cl  Cl500  1  -0.00811607  0.78376987  0.37721537  1
  Cl  Cl501  1  0.51239631  0.11089122  0.38252463  1
  Cl  Cl502  1  0.49722468  0.44619118  0.38208316  1
  Cl  Cl503  1  0.48727454  0.77245910  0.39652399  1
  Cl  Cl504  1  0.36488908  0.14381875  0.75673290  1
  Cl  Cl505  1  0.35767589  0.48356442  0.74813736  1
  Cl  Cl506  1  0.35400243  0.82019267  0.74923997  1
  Cl  Cl507  1  0.85876651  0.14665022  0.75057096  1
  Cl  Cl508  1  0.86370961  0.48144986  0.75035820  1
  Cl  Cl509  1  0.85383890  0.81785278  0.75617195  1
  Cl  Cl510  1  0.14281433  0.18292361  0.24921140  1
  Cl  Cl511  1  0.14334056  0.52031005  0.25193586  1
  Cl  Cl512  1  0.14592484  0.85386823  0.25354945  1
  Cl  Cl513  1  0.65062583  0.18627382  0.25579331  1
  Cl  Cl514  1  0.63928667  0.52074306  0.24836138  1
  Cl  Cl515  1  0.63250764  0.85593541  0.24199135  1
  Cl  Cl516  1  0.14496801  0.14929333  0.74930519  1
  Cl  Cl517  1  0.13602569  0.47964841  0.74875914  1
  Cl  Cl518  1  0.13266402  0.81084839  0.75599426  1
  Cl  Cl519  1  0.63689501  0.14840988  0.74412787  1
  Cl  Cl520  1  0.64158692  0.48284316  0.74923859  1
  Cl  Cl521  1  0.63489477  0.81140534  0.75510976  1
  Cl  Cl522  1  0.36463351  0.18473854  0.24407082  1
  Cl  Cl523  1  0.36137959  0.51817382  0.25521007  1
  Cl  Cl524  1  0.36481230  0.85325512  0.24878623  1
  Cl  Cl525  1  0.87241001  0.18961293  0.25603168  1
  Cl  Cl526  1  0.86064332  0.51884139  0.24375768  1
  Cl  Cl527  1  0.85284749  0.84504901  0.25297113  1
  Cl  Cl528  1  0.10965398  0.31416330  0.74906180  1
  Cl  Cl529  1  0.11778026  0.64552657  0.75116592  1
  Cl  Cl530  1  0.10840573  0.98062427  0.75619930  1
  Cl  Cl531  1  0.61246839  0.31546833  0.74905354  1
  Cl  Cl532  1  0.61162289  0.64732323  0.74877402  1
  Cl  Cl533  1  0.60623124  0.98130026  0.75270098  1
  Cl  Cl534  1  0.39935352  0.02106154  0.24926182  1
  Cl  Cl535  1  0.38937751  0.35260368  0.24529526  1
  Cl  Cl536  1  0.39186259  0.68688642  0.25115539  1
  Cl  Cl537  1  0.89124688  0.02001463  0.25006245  1
  Cl  Cl538  1  0.88985403  0.35625006  0.24108352  1
  Cl  Cl539  1  0.89391310  0.68240397  0.25319045  1
  Cl  Cl540  1  0.39167196  0.31661762  0.75090844  1
  Cl  Cl541  1  0.39286078  0.65058098  0.74601817  1
  Cl  Cl542  1  0.38744837  0.98207337  0.75133475  1
  Cl  Cl543  1  0.89319187  0.31171076  0.75412009  1
  Cl  Cl544  1  0.89314705  0.65159498  0.74758278  1
  Cl  Cl545  1  0.88618474  0.98317802  0.74681510  1
  Cl  Cl546  1  0.11150299  0.01614309  0.24398760  1
  Cl  Cl547  1  0.10952673  0.34938042  0.24672985  1
  Cl  Cl548  1  0.11396853  0.68830114  0.24849523  1
  Cl  Cl549  1  0.62134674  0.02232565  0.24280290  1
  Cl  Cl550  1  0.61169016  0.35176382  0.25798377  1
  Cl  Cl551  1  0.61208506  0.68708437  0.24989818  1
