# generated using pymatgen
data_H8PbC4(N3Cl2)2
_symmetry_space_group_name_H-M   'P 1'
_cell_length_a   16.63800648
_cell_length_b   22.55102977
_cell_length_c   21.60918123
_cell_angle_alpha   90.01073163
_cell_angle_beta   90.06783721
_cell_angle_gamma   89.97542478
_symmetry_Int_Tables_number   1
_chemical_formula_structural   H8PbC4(N3Cl2)2
_chemical_formula_sum   'H192 Pb24 C96 N144 Cl96'
_cell_volume   8107.84854372
_cell_formula_units_Z   24
loop_
 _symmetry_equiv_pos_site_id
 _symmetry_equiv_pos_as_xyz
  1  'x, y, z'
loop_
 _atom_site_type_symbol
 _atom_site_label
 _atom_site_symmetry_multiplicity
 _atom_site_fract_x
 _atom_site_fract_y
 _atom_site_fract_z
 _atom_site_occupancy
  H  H0  1  0.00293043  0.02351683  0.67366301  1
  H  H1  1  0.01081988  0.34784374  0.67059203  1
  H  H2  1  -0.01220877  0.69275638  0.68300159  1
  H  H3  1  0.50326590  0.03262655  0.68165202  1
  H  H4  1  0.47926861  0.35690461  0.67401718  1
  H  H5  1  0.51233285  0.68342445  0.67152115  1
  H  H6  1  -0.04389602  0.29832946  0.16282722  1
  H  H7  1  0.00543749  0.63445950  0.17296422  1
  H  H8  1  0.02367070  0.98717190  0.16968021  1
  H  H9  1  0.46275135  0.30171534  0.16055672  1
  H  H10  1  0.50491259  0.64606030  0.17072065  1
  H  H11  1  0.52607052  0.97629098  0.15418956  1
  H  H12  1  0.00193786  0.02917352  0.82420459  1
  H  H13  1  -0.02810504  0.37231394  0.81127956  1
  H  H14  1  -0.02565189  0.69792354  0.83084754  1
  H  H15  1  0.47629049  0.03613399  0.84498563  1
  H  H16  1  0.51233028  0.36293474  0.82640021  1
  H  H17  1  0.51213312  0.69640739  0.82752686  1
  H  H18  1  0.00351049  0.30483898  0.32564489  1
  H  H19  1  -0.00176160  0.63848056  0.32258862  1
  H  H20  1  0.02121507  0.96342408  0.31462333  1
  H  H21  1  0.48701436  0.30292462  0.32143629  1
  H  H22  1  0.48881479  0.63300895  0.32093398  1
  H  H23  1  0.48895244  0.96976656  0.31626430  1
  H  H24  1  0.24975115  0.19149155  0.67689358  1
  H  H25  1  0.25982606  0.53186030  0.66981054  1
  H  H26  1  0.23887593  0.86486634  0.68015629  1
  H  H27  1  0.75445641  0.19084448  0.67203032  1
  H  H28  1  0.74344928  0.52544342  0.68573944  1
  H  H29  1  0.76973008  0.85706339  0.67565654  1
  H  H30  1  0.27721484  0.12630359  0.16319940  1
  H  H31  1  0.23672410  0.47904999  0.17133286  1
  H  H32  1  0.23490657  0.80328869  0.17428764  1
  H  H33  1  0.77233834  0.14008741  0.17407690  1
  H  H34  1  0.76989948  0.46502035  0.18547596  1
  H  H35  1  0.77560697  0.80817961  0.17182367  1
  H  H36  1  0.28753160  0.19992577  0.83847686  1
  H  H37  1  0.27022603  0.52586071  0.82180781  1
  H  H38  1  0.21627506  0.85244275  0.82266410  1
  H  H39  1  0.79567060  0.19722574  0.83955934  1
  H  H40  1  0.72888003  0.52542618  0.82969474  1
  H  H41  1  0.72609787  0.85987744  0.84500535  1
  H  H42  1  0.26260579  0.14439394  0.32380053  1
  H  H43  1  0.23969117  0.47877831  0.32590962  1
  H  H44  1  0.25208100  0.80694824  0.32988456  1
  H  H45  1  0.75661182  0.13818185  0.32048131  1
  H  H46  1  0.76076820  0.47988399  0.33184654  1
  H  H47  1  0.74422545  0.79824409  0.31536129  1
  H  H48  1  0.11199870  0.06028400  0.59750585  1
  H  H49  1  0.10551583  0.38978538  0.58519908  1
  H  H50  1  0.11023485  0.71816054  0.61113069  1
  H  H51  1  0.61093804  0.05987914  0.59829333  1
  H  H52  1  0.60826384  0.38699333  0.61134322  1
  H  H53  1  0.60824437  0.72638675  0.58848300  1
  H  H54  1  0.32985618  0.28092034  0.09917222  1
  H  H55  1  0.37391083  0.61330806  0.11118707  1
  H  H56  1  0.41745371  0.93658957  0.07929910  1
  H  H57  1  0.82463053  0.27473647  0.09789944  1
  H  H58  1  0.87365772  0.61836253  0.10901433  1
  H  H59  1  0.89473652  0.96383903  0.10511707  1
  H  H60  1  0.33799609  0.05717790  0.90018464  1
  H  H61  1  0.37008743  0.38424132  0.87601858  1
  H  H62  1  0.37511867  0.71503910  0.88271138  1
  H  H63  1  0.86250842  0.05037686  0.88000106  1
  H  H64  1  0.86362680  0.38587680  0.89615644  1
  H  H65  1  0.87821132  0.73219559  0.91572483  1
  H  H66  1  0.12748475  0.27694359  0.39659047  1
  H  H67  1  0.13500581  0.61843848  0.37850237  1
  H  H68  1  0.13700018  0.95246151  0.39371185  1
  H  H69  1  0.62686281  0.28395938  0.37730341  1
  H  H70  1  0.62707970  0.61637334  0.37343849  1
  H  H71  1  0.62653512  0.95781167  0.37208944  1
  H  H72  1  0.37104959  0.22258691  0.60506008  1
  H  H73  1  0.36263940  0.56151888  0.58695500  1
  H  H74  1  0.36326935  0.89177468  0.61247965  1
  H  H75  1  0.86721651  0.22731739  0.59705449  1
  H  H76  1  0.86201434  0.55405986  0.60977648  1
  H  H77  1  0.86737848  0.89435006  0.59037602  1
  H  H78  1  0.16840520  0.10440490  0.08079745  1
  H  H79  1  0.13512718  0.44462704  0.08703304  1
  H  H80  1  0.13323154  0.76785485  0.08951545  1
  H  H81  1  0.64082844  0.11538230  0.11155243  1
  H  H82  1  0.63899588  0.44451043  0.11869272  1
  H  H83  1  0.63075918  0.78637899  0.12667270  1
  H  H84  1  0.17223074  0.22630962  0.91364163  1
  H  H85  1  0.13163303  0.55057011  0.87708271  1
  H  H86  1  0.10132289  0.89035468  0.89409866  1
  H  H87  1  0.67710235  0.22158193  0.91277486  1
  H  H88  1  0.63156469  0.56903981  0.91165635  1
  H  H89  1  0.58979313  0.88156566  0.89877142  1
  H  H90  1  0.39341806  0.11863279  0.38878743  1
  H  H91  1  0.38454641  0.45878446  0.37142292  1
  H  H92  1  0.38373735  0.77895609  0.39051682  1
  H  H93  1  0.89098943  0.11691777  0.38036277  1
  H  H94  1  0.88409924  0.44319554  0.39637063  1
  H  H95  1  0.88266015  0.78297965  0.36957932  1
  H  H96  1  0.38248622  0.27444491  0.40700681  1
  H  H97  1  0.38219054  0.60892836  0.40422128  1
  H  H98  1  0.38105220  0.94257780  0.39723924  1
  H  H99  1  0.87890167  0.27668030  0.39571745  1
  H  H100  1  0.88754623  0.61000324  0.40083447  1
  H  H101  1  0.88948100  0.94377389  0.37672498  1
  H  H102  1  0.10736368  0.06131668  0.90685320  1
  H  H103  1  0.10930443  0.38697741  0.86746746  1
  H  H104  1  0.11853870  0.71149189  0.87561310  1
  H  H105  1  0.58301225  0.06565475  0.92759321  1
  H  H106  1  0.61297782  0.39410452  0.91274076  1
  H  H107  1  0.62172034  0.72337896  0.90796060  1
  H  H108  1  0.07352745  0.27229902  0.08927367  1
  H  H109  1  0.12252918  0.61026943  0.09815859  1
  H  H110  1  0.13818476  0.93140130  0.11041628  1
  H  H111  1  0.57814774  0.26887239  0.08865359  1
  H  H112  1  0.62231418  0.61089182  0.09936375  1
  H  H113  1  0.66272972  0.95368043  0.10133020  1
  H  H114  1  0.36506901  0.05006183  0.62531304  1
  H  H115  1  0.36057141  0.39061962  0.60074118  1
  H  H116  1  0.36777792  0.70652953  0.62933425  1
  H  H117  1  0.86481671  0.05219333  0.62022714  1
  H  H118  1  0.86655893  0.37831933  0.63114170  1
  H  H119  1  0.86111776  0.72148258  0.61542838  1
  H  H120  1  0.14569249  0.11232389  0.39797003  1
  H  H121  1  0.14485118  0.43861862  0.41248418  1
  H  H122  1  0.13669970  0.77155962  0.40252499  1
  H  H123  1  0.64369795  0.11134654  0.40022222  1
  H  H124  1  0.63661772  0.44907577  0.39843407  1
  H  H125  1  0.63699374  0.77426250  0.39859444  1
  H  H126  1  0.42062198  0.21970070  0.89975134  1
  H  H127  1  0.37710157  0.56202653  0.90404008  1
  H  H128  1  0.34934136  0.87733545  0.88052207  1
  H  H129  1  0.92625163  0.21743043  0.90348296  1
  H  H130  1  0.87357197  0.54682138  0.87605954  1
  H  H131  1  0.83622542  0.89563821  0.92093697  1
  H  H132  1  0.41490380  0.10873688  0.10866273  1
  H  H133  1  0.37691174  0.45337503  0.12159338  1
  H  H134  1  0.37714914  0.78249465  0.12361122  1
  H  H135  1  0.88853873  0.10937033  0.09940313  1
  H  H136  1  0.88731404  0.44879649  0.10796490  1
  H  H137  1  0.87199513  0.77193015  0.08490751  1
  H  H138  1  0.12283196  0.22064477  0.60921943  1
  H  H139  1  0.11953860  0.54668884  0.62028441  1
  H  H140  1  0.11504264  0.88164107  0.60640863  1
  H  H141  1  0.62041579  0.21654836  0.61155974  1
  H  H142  1  0.61350367  0.55221878  0.61929381  1
  H  H143  1  0.62669283  0.88060125  0.62888368  1
  H  H144  1  0.68860808  0.39452470  0.48906280  1
  H  H145  1  0.23213648  0.07881626  -0.02586786  1
  H  H146  1  0.01779286  0.41922496  0.49233683  1
  H  H147  1  0.83817328  0.41666007  0.50027477  1
  H  H148  1  0.77483639  0.92798815  1.02624769  1
  H  H149  1  0.03172368  0.08588664  1.00745536  1
  H  H150  1  0.17232303  0.88427580  0.49799670  1
  H  H151  1  0.52323492  0.75256704  0.49186783  1
  H  H152  1  0.31611027  0.92779677  0.50404352  1
  H  H153  1  0.21527188  0.42510517  -0.01243938  1
  H  H154  1  0.83034494  0.44265230  -0.00461512  1
  H  H155  1  0.02052407  0.23749628  -0.01820514  1
  H  H156  1  0.20241350  0.72294215  0.49464168  1
  H  H157  1  0.08879032  0.40209049  0.98470501  1
  H  H158  1  0.60740474  0.92806346  0.48658593  1
  H  H159  1  0.35090525  0.74746141  0.49820778  1
  H  H160  1  0.12277865  0.58676069  0.49996707  1
  H  H161  1  0.07780998  0.94534435  0.50619395  1
  H  H162  1  0.35609994  0.08772203  0.49486339  1
  H  H163  1  0.78141654  0.92137775  0.49432525  1
  H  H164  1  0.05159661  0.85720347  0.05079991  1
  H  H165  1  0.31973422  0.92349913  0.98765702  1
  H  H166  1  0.88819256  0.08595232  0.51201171  1
  H  H167  1  0.20958258  0.73747068  -0.00948256  1
  H  H168  1  0.90604002  0.59304477  0.99634168  1
  H  H169  1  0.60987922  0.58606792  0.48892628  1
  H  H170  1  0.39621594  0.74137534  -0.00274127  1
  H  H171  1  0.06800026  0.58520694  0.98840045  1
  H  H172  1  0.53048826  0.41185845  1.01136264  1
  H  H173  1  0.41805178  0.42191242  0.50003226  1
  H  H174  1  0.15913288  0.93325515  0.99580142  1
  H  H175  1  0.95298765  0.58276644  0.50833945  1
  H  H176  1  0.86483071  0.75503770  0.48404766  1
  H  H177  1  0.93071322  0.39142727  1.00535144  1
  H  H178  1  0.55771935  0.74738259  0.01439950  1
  H  H179  1  0.52472046  0.23076142  -0.01707405  1
  H  H180  1  0.67776666  0.43839667  0.00825718  1
  H  H181  1  0.70518681  0.74647054  0.50331237  1
  H  H182  1  0.04465188  0.10016725  0.49585498  1
  H  H183  1  0.65553984  0.24893996  0.50616243  1
  H  H184  1  0.92131492  0.92117313  0.49101002  1
  H  H185  1  0.47916897  0.90294738  -0.02542110  1
  H  H186  1  0.72782693  0.25129537  1.02278851  1
  H  H187  1  0.22638019  0.25844349  1.02139090  1
  H  H188  1  0.44930047  0.91768135  0.50413219  1
  H  H189  1  0.38781154  0.42179155  0.98279594  1
  H  H190  1  0.95379082  0.93417031  0.00020673  1
  H  H191  1  0.23147353  0.41299416  0.50666265  1
  Pb  Pb192  1  0.24015741  0.05085467  0.74489327  1
  Pb  Pb193  1  0.24287888  0.38209305  0.74385870  1
  Pb  Pb194  1  0.23529465  0.71816896  0.74315481  1
  Pb  Pb195  1  0.73105750  0.05280037  0.75512318  1
  Pb  Pb196  1  0.73402612  0.38483830  0.75680341  1
  Pb  Pb197  1  0.74051111  0.71845830  0.75568061  1
  Pb  Pb198  1  0.25425227  0.28338806  0.24712913  1
  Pb  Pb199  1  0.25966537  0.61605372  0.24893385  1
  Pb  Pb200  1  0.26714668  0.94598147  0.24298831  1
  Pb  Pb201  1  0.75178747  0.28229962  0.24733828  1
  Pb  Pb202  1  0.76221409  0.61458174  0.24819697  1
  Pb  Pb203  1  0.76058306  0.95252256  0.26204976  1
  Pb  Pb204  1  -0.00398876  0.21604043  0.75426232  1
  Pb  Pb205  1  -0.00682614  0.54824120  0.74835002  1
  Pb  Pb206  1  -0.01845305  0.88880147  0.75672076  1
  Pb  Pb207  1  0.49830124  0.21587410  0.75421646  1
  Pb  Pb208  1  0.48771351  0.55400240  0.75716748  1
  Pb  Pb209  1  0.49017226  0.88299971  0.74212748  1
  Pb  Pb210  1  0.01590273  0.11740920  0.24622205  1
  Pb  Pb211  1  0.01241209  0.44430284  0.24589268  1
  Pb  Pb212  1  0.01090423  0.78268155  0.24612155  1
  Pb  Pb213  1  0.51007252  0.11593613  0.25867463  1
  Pb  Pb214  1  0.51076210  0.44940537  0.24699785  1
  Pb  Pb215  1  0.51528513  0.78189968  0.26135200  1
  C  C216  1  -0.00759413  0.04444836  0.62895836  1
  C  C217  1  -0.00566005  0.37055095  0.62822355  1
  C  C218  1  -0.01392214  0.71052675  0.63661043  1
  C  C219  1  0.49307783  0.04728747  0.63462655  1
  C  C220  1  0.48202588  0.37680573  0.62846535  1
  C  C221  1  0.49611846  0.70376300  0.62773228  1
  C  C222  1  -0.04927148  0.28177097  0.11575079  1
  C  C223  1  0.00043563  0.62057769  0.12494180  1
  C  C224  1  0.01926231  0.96243637  0.12673757  1
  C  C225  1  0.45651103  0.28358526  0.11417596  1
  C  C226  1  0.50011779  0.62392002  0.12652085  1
  C  C227  1  0.53558453  0.95650645  0.10885306  1
  C  C228  1  -0.00927677  0.04507566  0.87077725  1
  C  C229  1  -0.01784842  0.38055792  0.86022772  1
  C  C230  1  -0.00887279  0.71376873  0.87646726  1
  C  C231  1  0.46588259  0.05175116  0.89189930  1
  C  C232  1  0.49811154  0.37933447  0.87252815  1
  C  C233  1  0.50266434  0.71018750  0.87509168  1
  C  C234  1  0.00331590  0.28708577  0.37227666  1
  C  C235  1  0.00698394  0.62306953  0.36971207  1
  C  C236  1  0.01548316  0.95374317  0.36368846  1
  C  C237  1  0.49879708  0.28825610  0.36841440  1
  C  C238  1  0.50046358  0.61963469  0.36826252  1
  C  C239  1  0.49950680  0.95694503  0.36412862  1
  C  C240  1  0.24781510  0.20997011  0.63058837  1
  C  C241  1  0.24666695  0.54665335  0.62314109  1
  C  C242  1  0.23846083  0.87812106  0.63175581  1
  C  C243  1  0.74691232  0.20999137  0.62642764  1
  C  C244  1  0.73975523  0.54242798  0.63884919  1
  C  C245  1  0.75458572  0.87612839  0.63105394  1
  C  C246  1  0.28716555  0.11287501  0.11540924  1
  C  C247  1  0.24955243  0.46153114  0.12561308  1
  C  C248  1  0.24845895  0.78481040  0.12909987  1
  C  C249  1  0.76721415  0.12277108  0.12763560  1
  C  C250  1  0.76452957  0.45535984  0.13634817  1
  C  C251  1  0.75908093  0.78911883  0.12768868  1
  C  C252  1  0.29387034  0.21578564  0.88577535  1
  C  C253  1  0.25988966  0.54548290  0.86703646  1
  C  C254  1  0.22248137  0.87373488  0.86756644  1
  C  C255  1  0.79976250  0.21263931  0.88725884  1
  C  C256  1  0.74505319  0.54670173  0.87264249  1
  C  C257  1  0.71701113  0.87879931  0.89076982  1
  C  C258  1  0.26774266  0.12629250  0.37008827  1
  C  C259  1  0.25627258  0.45975512  0.37020077  1
  C  C260  1  0.25781645  0.78642369  0.37533156  1
  C  C261  1  0.76362876  0.12281736  0.36748800  1
  C  C262  1  0.76056781  0.45815251  0.37669749  1
  C  C263  1  0.75513403  0.78500757  0.36304513  1
  C  C264  1  0.26253427  0.24595273  0.98111150  1
  C  C265  1  0.51210424  0.91857033  0.01503707  1
  C  C266  1  0.34527591  0.24210904  0.97711583  1
  C  C267  1  0.40569224  0.25370153  0.02385081  1
  C  C268  1  0.26468540  0.08783593  0.01711140  1
  C  C269  1  0.27530288  0.91075703  0.95333974  1
  C  C270  1  0.73570458  0.75858668  0.46056746  1
  C  C271  1  0.55994882  0.93567415  0.45266663  1
  C  C272  1  -0.01510584  0.25008770  0.02220612  1
  C  C273  1  0.74148076  0.91417675  0.98532361  1
  C  C274  1  0.43687513  0.07412731  0.54761922  1
  C  C275  1  0.06117461  0.73847974  0.95846962  1
  C  C276  1  0.18191652  0.57285443  0.53806670  1
  C  C277  1  0.19375225  0.91518796  0.95774785  1
  C  C278  1  0.76514739  0.74979723  0.03513072  1
  C  C279  1  0.34677852  0.08948517  0.02604533  1
  C  C280  1  0.44412391  0.73278783  0.96366278  1
  C  C281  1  0.81414223  0.09701431  0.45677280  1
  C  C282  1  0.52878395  0.58096748  0.03870968  1
  C  C283  1  0.04181292  0.39386685  0.95074533  1
  C  C284  1  0.52511916  0.73598656  0.97250407  1
  C  C285  1  0.96436711  0.93431543  0.45588274  1
  C  C286  1  0.56126634  0.59473569  0.45604847  1
  C  C287  1  0.79741969  0.44164879  0.03873937  1
  C  C288  1  0.98463293  0.59459465  0.46603306  1
  C  C289  1  0.27995485  0.90753898  0.54022179  1
  C  C290  1  0.96113868  0.39099083  0.96088442  1
  C  C291  1  0.98366412  0.74599529  0.97260000  1
  C  C292  1  0.23681192  0.75104783  0.03445164  1
  C  C293  1  0.47899110  0.93059397  0.46150268  1
  C  C294  1  0.48846619  0.24784122  0.02115196  1
  C  C295  1  0.03188991  0.59568681  0.02878755  1
  C  C296  1  0.01471917  0.08377332  0.53733144  1
  C  C297  1  0.84762481  0.23934703  0.97908342  1
  C  C298  1  0.42440116  0.73688090  0.54855465  1
  C  C299  1  0.65890830  0.90996704  0.97825556  1
  C  C300  1  0.04519460  0.94218793  0.46289888  1
  C  C301  1  0.76458925  0.24055250  0.98254179  1
  C  C302  1  0.41010436  0.07755900  0.98021158  1
  C  C303  1  0.59441809  0.92438735  0.02199164  1
  C  C304  1  0.06569293  0.59741368  0.45731093  1
  C  C305  1  0.95025727  0.59926809  0.03282113  1
  C  C306  1  0.48059261  0.59224516  0.46513600  1
  C  C307  1  0.81661436  0.76216674  0.45065020  1
  C  C308  1  0.73765657  0.59102952  0.96275584  1
  C  C309  1  0.79482905  0.08681158  0.03606744  1
  C  C310  1  0.26189080  0.57732878  0.52749814  1
  C  C311  1  0.02153899  0.74389602  0.54554117  1
  N  N312  1  0.31472949  0.43505339  0.04165855  1
  N  N313  1  0.27767128  0.58346880  0.96007947  1
  N  N314  1  0.04927054  0.90331821  0.04880517  1
  N  N315  1  0.96918750  0.91967631  0.04422178  1
  N  N316  1  0.28239796  0.24481033  0.53922648  1
  N  N317  1  0.92279565  0.40869421  0.55249027  1
  N  N318  1  0.92923316  0.07371455  0.95585861  1
  N  N319  1  0.20209318  0.58003183  0.95143974  1
  N  N320  1  0.73707319  0.09378271  0.46388478  1
  N  N321  1  0.68544339  0.90895437  0.55101826  1
  N  N322  1  0.96497188  0.25413845  0.46345054  1
  N  N323  1  0.48892352  0.08158458  0.98897249  1
  N  N324  1  0.22947361  0.75434671  0.46734498  1
  N  N325  1  0.04121396  0.25434372  0.46376883  1
  N  N326  1  -0.00162178  0.41180795  0.53816672  1
  N  N327  1  0.23807196  0.43007063  0.03178884  1
  N  N328  1  0.43385422  0.40355195  0.95558100  1
  N  N329  1  0.68972555  0.75442339  0.04711452  1
  N  N330  1  0.51065903  0.41408347  0.96554962  1
  N  N331  1  0.45152423  0.58118065  0.04145964  1
  N  N332  1  0.30798886  0.74994054  0.45971186  1
  N  N333  1  0.90381157  0.25244109  0.02509463  1
  N  N334  1  0.31250625  0.09595348  0.45824894  1
  N  N335  1  0.20074992  0.89922135  0.53718046  1
  N  N336  1  0.76154191  0.91359061  0.53944585  1
  N  N337  1  0.50134392  0.74377102  0.53622902  1
  N  N338  1  0.32795086  0.42917852  0.44964478  1
  N  N339  1  0.69469771  0.57243442  0.54863266  1
  N  N340  1  0.72174452  0.42630449  0.46675829  1
  N  N341  1  0.93598854  0.08004828  0.54585964  1
  N  N342  1  0.80056307  0.41511222  0.46130232  1
  N  N343  1  0.48304790  0.25900136  0.46498730  1
  N  N344  1  0.25228032  0.42190370  0.46182759  1
  N  N345  1  0.31405892  0.75553416  0.04572400  1
  N  N346  1  0.55838585  0.26229082  0.45526606  1
  N  N347  1  0.81291839  0.58342252  0.95195254  1
  N  N348  1  0.71783368  0.08935825  0.03852852  1
  N  N349  1  0.94420172  0.74408410  0.54565838  1
  N  N350  1  0.23470103  0.09296709  0.46258788  1
  N  N351  1  0.77077879  0.57383687  0.54542014  1
  N  N352  1  0.53076023  0.41187315  0.54094755  1
  N  N353  1  0.20613458  0.24394204  0.54049278  1
  N  N354  1  0.51340340  0.07741364  0.53770497  1
  N  N355  1  0.45268027  0.41380124  0.53935655  1
  N  N356  1  0.77570130  0.24698901  0.53451416  1
  N  N357  1  0.71835881  0.43861990  0.04384605  1
  N  N358  1  0.69808193  0.24253111  0.54073407  1
  N  N359  1  0.00644209  0.07728901  0.96369107  1
  N  N360  1  0.05013938  0.06254382  0.58911890  1
  N  N361  1  0.04318790  0.38658335  0.58294904  1
  N  N362  1  0.04970164  0.72365827  0.60050410  1
  N  N363  1  0.54835891  0.06012743  0.59303318  1
  N  N364  1  0.54849402  0.39057220  0.59730715  1
  N  N365  1  0.54637425  0.72006815  0.58372181  1
  N  N366  1  0.38805521  0.27598884  0.08290960  1
  N  N367  1  0.43343424  0.60874470  0.09725491  1
  N  N368  1  0.47799062  0.93860825  0.06920541  1
  N  N369  1  0.88421059  0.27359955  0.08387032  1
  N  N370  1  0.93214576  0.61424848  0.09262504  1
  N  N371  1  0.95474981  0.95857925  0.09083859  1
  N  N372  1  0.39496823  0.05931634  0.91997510  1
  N  N373  1  0.42606323  0.39122683  0.89532149  1
  N  N374  1  0.43150354  0.71682914  0.90331407  1
  N  N375  1  0.92005618  0.05553729  0.89724797  1
  N  N376  1  0.92497346  0.38281851  0.90411109  1
  N  N377  1  0.94016152  0.73122468  0.92197183  1
  N  N378  1  0.06660574  0.27494433  0.40741499  1
  N  N379  1  0.07814438  0.61461099  0.39785143  1
  N  N380  1  0.07604221  0.95370761  0.40496186  1
  N  N381  1  0.56947982  0.28038718  0.39545098  1
  N  N382  1  0.57202096  0.61187694  0.39485503  1
  N  N383  1  0.57114541  0.95171208  0.39209781  1
  N  N384  1  0.30974218  0.22364615  0.59486999  1
  N  N385  1  0.30092260  0.56135319  0.57908543  1
  N  N386  1  0.30321368  0.89485299  0.59848976  1
  N  N387  1  0.80562446  0.22765826  0.58879371  1
  N  N388  1  0.80015511  0.55547024  0.60136322  1
  N  N389  1  0.80504547  0.89071596  0.58638689  1
  N  N390  1  0.22988930  0.10250238  0.07293733  1
  N  N391  1  0.19692539  0.44966247  0.08144302  1
  N  N392  1  0.19501308  0.76842782  0.08556646  1
  N  N393  1  0.70048794  0.11289822  0.09634883  1
  N  N394  1  0.69791841  0.45040096  0.10344264  1
  N  N395  1  0.68611738  0.77911626  0.10605653  1
  N  N396  1  0.23326597  0.22961483  0.92438262  1
  N  N397  1  0.18989101  0.55701652  0.89348726  1
  N  N398  1  0.16212565  0.89191519  0.90414667  1
  N  N399  1  0.73758384  0.22403131  0.92521756  1
  N  N400  1  0.69379759  0.56900858  0.91518349  1
  N  N401  1  0.64638567  0.88787097  0.91830339  1
  N  N402  1  0.33378606  0.11727360  0.40268210  1
  N  N403  1  0.32988460  0.45064851  0.39183355  1
  N  N404  1  0.32527870  0.77764871  0.40658064  1
  N  N405  1  0.83327132  0.11394636  0.39781525  1
  N  N406  1  0.82478061  0.44488456  0.41026529  1
  N  N407  1  0.82711271  0.77817870  0.39014009  1
  N  N408  1  0.44472450  0.27522989  0.41134352  1
  N  N409  1  0.44410464  0.60749801  0.41232495  1
  N  N410  1  0.44273057  0.94399345  0.40599542  1
  N  N411  1  0.93991755  0.27417402  0.40675736  1
  N  N412  1  0.94912468  0.61055348  0.41040386  1
  N  N413  1  0.94732518  0.94187069  0.39413826  1
  N  N414  1  0.04542946  0.05694056  0.91366903  1
  N  N415  1  0.05349296  0.38693763  0.88827320  1
  N  N416  1  0.06584201  0.71905304  0.89979728  1
  N  N417  1  0.52145155  0.06507663  0.93356291  1
  N  N418  1  0.55060748  0.38955415  0.91762709  1
  N  N419  1  0.56042013  0.72183975  0.91688451  1
  N  N420  1  0.01290809  0.26818942  0.07759075  1
  N  N421  1  0.06181135  0.60899842  0.08656737  1
  N  N422  1  0.07659031  0.92967210  0.10202299  1
  N  N423  1  0.51729254  0.26663699  0.07709202  1
  N  N424  1  0.56139217  0.60637322  0.08985835  1
  N  N425  1  0.60636783  0.94820955  0.08127144  1
  N  N426  1  0.42168631  0.05595530  0.60685833  1
  N  N427  1  0.42147705  0.39052124  0.59149849  1
  N  N428  1  0.42090667  0.71443621  0.60654177  1
  N  N429  1  0.92262809  0.05428584  0.60170163  1
  N  N430  1  0.92094247  0.38507710  0.60955473  1
  N  N431  1  0.92160022  0.72316848  0.60339245  1
  N  N432  1  0.20722798  0.11115957  0.40727662  1
  N  N433  1  0.20717138  0.44294755  0.41497312  1
  N  N434  1  0.19850111  0.76776731  0.41116585  1
  N  N435  1  0.70583957  0.11054514  0.40716650  1
  N  N436  1  0.69699825  0.44197961  0.40906395  1
  N  N437  1  0.69881953  0.77315503  0.40555724  1
  N  N438  1  0.36261795  0.22295878  0.91676354  1
  N  N439  1  0.31481578  0.56209381  0.90810136  1
  N  N440  1  0.29162270  0.88538717  0.89694266  1
  N  N441  1  0.86755699  0.22209680  0.91926835  1
  N  N442  1  0.81782787  0.55567630  0.89507841  1
  N  N443  1  0.77499244  0.89481466  0.93082842  1
  N  N444  1  0.35820236  0.10537741  0.08790737  1
  N  N445  1  0.32147072  0.45155267  0.10113408  1
  N  N446  1  0.32016024  0.77640063  0.10454320  1
  N  N447  1  0.82822141  0.10719960  0.08958632  1
  N  N448  1  0.82668670  0.45051284  0.09634840  1
  N  N449  1  0.80996132  0.77081126  0.08289844  1
  N  N450  1  0.18316555  0.22221567  0.59702155  1
  N  N451  1  0.17374706  0.55370898  0.59815571  1
  N  N452  1  0.17575616  0.87824076  0.59409674  1
  N  N453  1  0.67919156  0.21861830  0.59575988  1
  N  N454  1  0.67378041  0.55270081  0.60609983  1
  N  N455  1  0.68172709  0.88792947  0.60909603  1
  Cl  Cl456  1  0.23475777  0.05092150  0.61535089  1
  Cl  Cl457  1  0.22962973  0.39531317  0.59941463  1
  Cl  Cl458  1  0.23348369  0.71502050  0.60696188  1
  Cl  Cl459  1  0.73695569  0.05703069  0.61936643  1
  Cl  Cl460  1  0.73232854  0.38746172  0.62189907  1
  Cl  Cl461  1  0.73088636  0.72923716  0.61738505  1
  Cl  Cl462  1  0.19997410  0.28534259  0.11473719  1
  Cl  Cl463  1  0.24616937  0.61025073  0.11858155  1
  Cl  Cl464  1  0.26759563  0.93330637  0.10955109  1
  Cl  Cl465  1  0.70039314  0.28021346  0.11526538  1
  Cl  Cl466  1  0.74682437  0.61498101  0.11411622  1
  Cl  Cl467  1  0.78014962  0.95826183  0.12931323  1
  Cl  Cl468  1  0.21947030  0.06153003  0.87958762  1
  Cl  Cl469  1  0.24037398  0.39796645  0.88266474  1
  Cl  Cl470  1  0.24823202  0.72746949  0.87465021  1
  Cl  Cl471  1  0.72952695  0.05298196  0.88215968  1
  Cl  Cl472  1  0.73387584  0.40090341  0.90057272  1
  Cl  Cl473  1  0.74833008  0.73132928  0.89065206  1
  Cl  Cl474  1  0.25615753  0.27856559  0.37935614  1
  Cl  Cl475  1  0.26187698  0.61150575  0.38358297  1
  Cl  Cl476  1  0.25805212  0.93574646  0.38627935  1
  Cl  Cl477  1  0.75615194  0.28062890  0.37953679  1
  Cl  Cl478  1  0.76356313  0.60681229  0.37812216  1
  Cl  Cl479  1  0.76417412  0.94097390  0.39836575  1
  Cl  Cl480  1  -0.00737620  0.22426108  0.62247288  1
  Cl  Cl481  1  -0.01614292  0.55302703  0.61434477  1
  Cl  Cl482  1  -0.01011279  0.89643841  0.61296179  1
  Cl  Cl483  1  0.49383231  0.22355477  0.62270067  1
  Cl  Cl484  1  0.48728158  0.55974464  0.62205258  1
  Cl  Cl485  1  0.48736235  0.88623282  0.60991421  1
  Cl  Cl486  1  0.03411322  0.10599101  0.09946280  1
  Cl  Cl487  1  0.01454148  0.43635563  0.11054495  1
  Cl  Cl488  1  -0.00085254  0.77358045  0.08189060  1
  Cl  Cl489  1  0.52719543  0.11066745  0.12947443  1
  Cl  Cl490  1  0.51681967  0.42895858  0.10743581  1
  Cl  Cl491  1  0.50277793  0.78678841  0.13121843  1
  Cl  Cl492  1  0.05020017  0.21616298  0.88928907  1
  Cl  Cl493  1  0.00651756  0.54527734  0.87813642  1
  Cl  Cl494  1  -0.03410702  0.90085678  0.89574659  1
  Cl  Cl495  1  0.55076411  0.21956904  0.88500341  1
  Cl  Cl496  1  0.50503819  0.55933988  0.89215567  1
  Cl  Cl497  1  0.47234240  0.87234362  0.87390713  1
  Cl  Cl498  1  0.02232909  0.11243298  0.38155552  1
  Cl  Cl499  1  0.02045117  0.43459772  0.40000442  1
  Cl  Cl500  1  0.01876450  0.77654853  0.37619942  1
  Cl  Cl501  1  0.51705670  0.11117427  0.38829437  1
  Cl  Cl502  1  0.51475496  0.45325550  0.37945849  1
  Cl  Cl503  1  0.51242812  0.77345989  0.39988924  1
  Cl  Cl504  1  0.36120770  0.14401913  0.76162164  1
  Cl  Cl505  1  0.35886449  0.47910521  0.73982494  1
  Cl  Cl506  1  0.35368693  0.81413571  0.73459207  1
  Cl  Cl507  1  0.86247814  0.14303570  0.75892361  1
  Cl  Cl508  1  0.86249305  0.47432141  0.76161115  1
  Cl  Cl509  1  0.85402190  0.81804749  0.75650393  1
  Cl  Cl510  1  0.15644920  0.17497788  0.24774544  1
  Cl  Cl511  1  0.14539518  0.51488228  0.25421917  1
  Cl  Cl512  1  0.14497507  0.85082998  0.24277660  1
  Cl  Cl513  1  0.65354692  0.17493470  0.25397823  1
  Cl  Cl514  1  0.64558972  0.51710253  0.24462376  1
  Cl  Cl515  1  0.65308571  0.84958425  0.24385603  1
  Cl  Cl516  1  0.13614445  0.15413715  0.74051805  1
  Cl  Cl517  1  0.13597716  0.48570946  0.74091127  1
  Cl  Cl518  1  0.12676592  0.81483039  0.74412325  1
  Cl  Cl519  1  0.64282093  0.15906331  0.74102099  1
  Cl  Cl520  1  0.63808187  0.48514393  0.75743081  1
  Cl  Cl521  1  0.63532013  0.82372117  0.75126842  1
  Cl  Cl522  1  0.37355887  0.18942256  0.23985568  1
  Cl  Cl523  1  0.37182130  0.51620050  0.24159925  1
  Cl  Cl524  1  0.36503489  0.85010221  0.26242954  1
  Cl  Cl525  1  0.87877013  0.19185370  0.23918765  1
  Cl  Cl526  1  0.86813041  0.51848264  0.25757689  1
  Cl  Cl527  1  0.87728980  0.85409832  0.25599296  1
  Cl  Cl528  1  0.10377082  0.32028130  0.75245659  1
  Cl  Cl529  1  0.10294348  0.64940029  0.76087912  1
  Cl  Cl530  1  0.10319197  0.98338501  0.75245137  1
  Cl  Cl531  1  0.59146825  0.32647738  0.74351102  1
  Cl  Cl532  1  0.60439994  0.65173062  0.75217858  1
  Cl  Cl533  1  0.59095221  0.98937581  0.75836840  1
  Cl  Cl534  1  0.39539553  0.01830697  0.23761950  1
  Cl  Cl535  1  0.38838973  0.35513157  0.23708577  1
  Cl  Cl536  1  0.39425858  0.68740170  0.24926719  1
  Cl  Cl537  1  0.89248125  0.02514434  0.26465529  1
  Cl  Cl538  1  0.87800295  0.36030131  0.23298266  1
  Cl  Cl539  1  0.89900174  0.68340640  0.24373264  1
  Cl  Cl540  1  0.37194372  0.30889235  0.76771552  1
  Cl  Cl541  1  0.38292630  0.64953485  0.75440244  1
  Cl  Cl542  1  0.37288366  0.97997140  0.74849052  1
  Cl  Cl543  1  0.87669515  0.31107777  0.74795707  1
  Cl  Cl544  1  0.88130841  0.64859651  0.75531029  1
  Cl  Cl545  1  0.87945381  0.98208328  0.74625143  1
  Cl  Cl546  1  0.11758762  0.01504178  0.24537218  1
  Cl  Cl547  1  0.09997310  0.34523898  0.25535553  1
  Cl  Cl548  1  0.11901075  0.68205075  0.24782529  1
  Cl  Cl549  1  0.61450773  0.01006629  0.24833171  1
  Cl  Cl550  1  0.61701798  0.34858515  0.26274534  1
  Cl  Cl551  1  0.61497610  0.68504412  0.25699714  1
