# generated using pymatgen
data_H8PbC4(N3Cl2)2
_symmetry_space_group_name_H-M   'P 1'
_cell_length_a   16.61944198
_cell_length_b   22.50177746
_cell_length_c   21.58825224
_cell_angle_alpha   90.00115250
_cell_angle_beta   90.01365349
_cell_angle_gamma   90.00097748
_symmetry_Int_Tables_number   1
_chemical_formula_structural   H8PbC4(N3Cl2)2
_chemical_formula_sum   'H192 Pb24 C96 N144 Cl96'
_cell_volume   8073.29337021
_cell_formula_units_Z   24
loop_
 _symmetry_equiv_pos_site_id
 _symmetry_equiv_pos_as_xyz
  1  'x, y, z'
loop_
 _atom_site_type_symbol
 _atom_site_label
 _atom_site_symmetry_multiplicity
 _atom_site_fract_x
 _atom_site_fract_y
 _atom_site_fract_z
 _atom_site_occupancy
  H  H0  1  0.00115904  0.03145883  0.68189367  1
  H  H1  1  0.00748365  0.36495980  0.68309275  1
  H  H2  1  0.01135594  0.70028754  0.68256600  1
  H  H3  1  0.50658142  0.03259490  0.68017074  1
  H  H4  1  0.49590522  0.36468699  0.68030736  1
  H  H5  1  0.48995041  0.69746470  0.67636752  1
  H  H6  1  -0.00026248  0.30088967  0.18149676  1
  H  H7  1  0.00327146  0.63474641  0.17846988  1
  H  H8  1  -0.00277552  0.96700335  0.18035779  1
  H  H9  1  0.49937130  0.30151449  0.17825201  1
  H  H10  1  0.50420319  0.63542116  0.18043251  1
  H  H11  1  0.50018256  0.96824866  0.17919246  1
  H  H12  1  -0.00718196  0.03170628  0.82235764  1
  H  H13  1  0.00801282  0.36568977  0.82293093  1
  H  H14  1  0.00032980  0.70039025  0.82182198  1
  H  H15  1  0.50199492  0.03071866  0.82101344  1
  H  H16  1  0.49722682  0.36518255  0.81934001  1
  H  H17  1  0.49327111  0.70000865  0.81916666  1
  H  H18  1  0.00472385  0.30003278  0.32117975  1
  H  H19  1  -0.00728535  0.63519533  0.31952163  1
  H  H20  1  -0.00028580  0.96754652  0.31979652  1
  H  H21  1  0.49468254  0.30087197  0.31797518  1
  H  H22  1  0.49355136  0.63275949  0.32250368  1
  H  H23  1  0.49226774  0.97030202  0.31919322  1
  H  H24  1  0.24519056  0.19818955  0.68175120  1
  H  H25  1  0.25003623  0.53246794  0.67903898  1
  H  H26  1  0.25821159  0.86693889  0.68223112  1
  H  H27  1  0.75053999  0.19821470  0.67982657  1
  H  H28  1  0.75374646  0.53207139  0.68155713  1
  H  H29  1  0.75065101  0.86529240  0.67957889  1
  H  H30  1  0.25306092  0.13355988  0.17981532  1
  H  H31  1  0.24375644  0.46570676  0.17896680  1
  H  H32  1  0.25684652  0.80255695  0.17832237  1
  H  H33  1  0.75543029  0.13432274  0.17809941  1
  H  H34  1  0.75205186  0.46780243  0.17824980  1
  H  H35  1  0.74389357  0.80150250  0.18246718  1
  H  H36  1  0.25093004  0.19840278  0.81913724  1
  H  H37  1  0.24711906  0.52939157  0.82063526  1
  H  H38  1  0.24868960  0.86441737  0.82095220  1
  H  H39  1  0.75373646  0.19857013  0.82046544  1
  H  H40  1  0.74560565  0.53231450  0.81904580  1
  H  H41  1  0.75197066  0.86557973  0.81771441  1
  H  H42  1  0.24976358  0.13570789  0.31810850  1
  H  H43  1  0.24171714  0.46779509  0.31982099  1
  H  H44  1  0.24836798  0.80027168  0.31911945  1
  H  H45  1  0.74796020  0.13499953  0.32159825  1
  H  H46  1  0.75545759  0.46739541  0.31753645  1
  H  H47  1  0.75073125  0.80068633  0.31992191  1
  H  H48  1  0.12190837  0.05476949  0.60618881  1
  H  H49  1  0.12015787  0.38803508  0.60280492  1
  H  H50  1  0.11910548  0.72243982  0.60051722  1
  H  H51  1  0.62277320  0.05645129  0.60299647  1
  H  H52  1  0.62208249  0.38635746  0.61191575  1
  H  H53  1  0.63051375  0.71548751  0.62264641  1
  H  H54  1  0.37583089  0.27966234  0.10682148  1
  H  H55  1  0.36876721  0.61496244  0.12045630  1
  H  H56  1  0.37615150  0.94487887  0.10880212  1
  H  H57  1  0.87639023  0.27991330  0.11187297  1
  H  H58  1  0.86857946  0.61557061  0.11729316  1
  H  H59  1  0.88094764  0.94418096  0.10077314  1
  H  H60  1  0.38343804  0.05399855  0.89736338  1
  H  H61  1  0.37873566  0.38786425  0.89299626  1
  H  H62  1  0.37586240  0.72394059  0.89516372  1
  H  H63  1  0.88690922  0.06209563  0.90538760  1
  H  H64  1  0.87507077  0.38573310  0.88586514  1
  H  H65  1  0.87791086  0.72442202  0.89361312  1
  H  H66  1  0.11908572  0.27637859  0.40095602  1
  H  H67  1  0.12922137  0.61573646  0.37818589  1
  H  H68  1  0.12316605  0.94691165  0.38953516  1
  H  H69  1  0.62426300  0.28098516  0.38415462  1
  H  H70  1  0.62928059  0.61531489  0.38019550  1
  H  H71  1  0.62795708  0.94858536  0.37914599  1
  H  H72  1  0.37456232  0.21900030  0.61358465  1
  H  H73  1  0.37103080  0.55555200  0.60524293  1
  H  H74  1  0.36903626  0.89132547  0.59895816  1
  H  H75  1  0.87847629  0.22030648  0.61169263  1
  H  H76  1  0.86738658  0.55620575  0.60342918  1
  H  H77  1  0.87613587  0.88629798  0.61007100  1
  H  H78  1  0.11728965  0.11613910  0.12041574  1
  H  H79  1  0.12664309  0.44349035  0.10429483  1
  H  H80  1  0.12327325  0.78134038  0.11638472  1
  H  H81  1  0.61590259  0.11582876  0.12427509  1
  H  H82  1  0.62501129  0.44602042  0.10998662  1
  H  H83  1  0.62329978  0.77969764  0.10790248  1
  H  H84  1  0.12566795  0.21994424  0.88782594  1
  H  H85  1  0.13330384  0.55570081  0.90020393  1
  H  H86  1  0.12433084  0.88797310  0.89233189  1
  H  H87  1  0.62500450  0.22108971  0.88805733  1
  H  H88  1  0.63418288  0.55703837  0.89969848  1
  H  H89  1  0.61996064  0.88544316  0.88333697  1
  H  H90  1  0.37546461  0.11483570  0.38674214  1
  H  H91  1  0.37774765  0.45039510  0.37949005  1
  H  H92  1  0.37144040  0.77810584  0.39068675  1
  H  H93  1  0.87672040  0.11200315  0.38766405  1
  H  H94  1  0.87422309  0.44457258  0.39084019  1
  H  H95  1  0.86784503  0.77978856  0.39524535  1
  H  H96  1  0.37488118  0.27873251  0.39047078  1
  H  H97  1  0.38254128  0.61002962  0.40134532  1
  H  H98  1  0.38142217  0.94292530  0.40120889  1
  H  H99  1  0.87137143  0.28010336  0.38250945  1
  H  H100  1  0.88310017  0.60943808  0.40257540  1
  H  H101  1  0.87411077  0.94717632  0.38926158  1
  H  H102  1  0.13214590  0.04678019  0.87949223  1
  H  H103  1  0.12339972  0.39031087  0.89984629  1
  H  H104  1  0.12659159  0.71954490  0.89126445  1
  H  H105  1  0.63157661  0.05470632  0.88815132  1
  H  H106  1  0.62790194  0.38488335  0.88417651  1
  H  H107  1  0.62444592  0.71939861  0.88551225  1
  H  H108  1  0.12601185  0.28164179  0.11155578  1
  H  H109  1  0.11584792  0.60683943  0.09956515  1
  H  H110  1  0.12919603  0.94710422  0.11609603  1
  H  H111  1  0.62536714  0.27948476  0.10881082  1
  H  H112  1  0.61666449  0.60935719  0.10017978  1
  H  H113  1  0.62510762  0.94589081  0.10814173  1
  H  H114  1  0.37451436  0.05279001  0.61560119  1
  H  H115  1  0.37246435  0.38861389  0.60786917  1
  H  H116  1  0.38578175  0.72598862  0.59129522  1
  H  H117  1  0.87336956  0.05219422  0.61187580  1
  H  H118  1  0.87234815  0.38517964  0.62122609  1
  H  H119  1  0.87284585  0.71743556  0.62771472  1
  H  H120  1  0.12586443  0.11433201  0.38808211  1
  H  H121  1  0.13168137  0.44125012  0.40259211  1
  H  H122  1  0.12285743  0.77935072  0.38901498  1
  H  H123  1  0.62748616  0.11143452  0.39512152  1
  H  H124  1  0.62506494  0.44874425  0.38328455  1
  H  H125  1  0.61913081  0.78047499  0.38309617  1
  H  H126  1  0.37517064  0.22068370  0.88864381  1
  H  H127  1  0.38115373  0.55157127  0.88042687  1
  H  H128  1  0.37328767  0.88608038  0.89137930  1
  H  H129  1  0.87391775  0.22310626  0.89366767  1
  H  H130  1  0.88185903  0.55176840  0.88011310  1
  H  H131  1  0.86895416  0.88842199  0.89510160  1
  H  H132  1  0.36532101  0.11016753  0.10116419  1
  H  H133  1  0.37453876  0.44826190  0.11609732  1
  H  H134  1  0.37108752  0.77758829  0.10002988  1
  H  H135  1  0.86165111  0.10785357  0.09388493  1
  H  H136  1  0.87424821  0.44335658  0.10665114  1
  H  H137  1  0.87240108  0.77979449  0.11438165  1
  H  H138  1  0.12620139  0.22188930  0.60439056  1
  H  H139  1  0.12235021  0.55544188  0.60974391  1
  H  H140  1  0.12225696  0.88362450  0.62123198  1
  H  H141  1  0.62880111  0.22044606  0.60722398  1
  H  H142  1  0.61918220  0.55006568  0.62222619  1
  H  H143  1  0.62693007  0.88774097  0.61060963  1
  H  H144  1  0.83457238  0.08076626  0.49329693  1
  H  H145  1  0.82305508  0.41707155  0.50097335  1
  H  H146  1  0.35385952  0.58204409  0.99253966  1
  H  H147  1  0.16884166  0.58213063  0.50470148  1
  H  H148  1  0.42565624  0.24810417  0.50033686  1
  H  H149  1  0.80614561  0.58233831  0.49506331  1
  H  H150  1  0.67163170  0.91751796  0.49908850  1
  H  H151  1  0.20462428  0.41413687  0.50247249  1
  H  H152  1  0.92919076  0.74170882  0.99834868  1
  H  H153  1  0.45307763  0.92064685  0.50263922  1
  H  H154  1  0.17653762  0.77476430  0.49641466  1
  H  H155  1  0.16989394  0.08706826  0.49874500  1
  H  H156  1  0.95613478  0.58748205  0.50381701  1
  H  H157  1  0.42125014  0.41701098  0.50413644  1
  H  H158  1  0.94748434  0.91628852  -0.00104905  1
  H  H159  1  0.58191448  0.41699059  0.50200698  1
  H  H160  1  0.19868721  0.57552277  1.00399790  1
  H  H161  1  0.92056634  0.25178290  0.00025967  1
  H  H162  1  0.89978311  0.58045221  0.01204453  1
  H  H163  1  0.16637575  0.25088130  0.99791481  1
  H  H164  1  0.70068215  0.58325080  1.00535164  1
  H  H165  1  0.05025767  0.74662267  0.49248456  1
  H  H166  1  0.46503458  0.73597378  0.49123876  1
  H  H167  1  0.33285349  0.25007650  0.99891457  1
  H  H168  1  0.59174809  0.08063135  0.99486250  1
  H  H169  1  0.64120670  0.58024706  0.50872870  1
  H  H170  1  0.05415225  0.41200102  0.49590652  1
  H  H171  1  0.80736627  0.91486383  1.00289970  1
  H  H172  1  0.29637563  0.91850719  0.49864757  1
  H  H173  1  0.30358795  0.08069611  -0.00615621  1
  H  H174  1  0.61410773  0.74811126  0.51390045  1
  H  H175  1  0.67662360  0.25048234  0.49858712  1
  H  H176  1  0.08284960  0.75633943  0.99160510  1
  H  H177  1  0.54848284  0.58482677  -0.00275022  1
  H  H178  1  0.78818352  0.08356872  -0.00653271  1
  H  H179  1  0.04718244  0.59166924  -0.00430621  1
  H  H180  1  0.96288712  0.07834989  1.00715286  1
  H  H181  1  0.66671111  0.41558900  0.00516047  1
  H  H182  1  0.07798372  0.91929322  0.50176239  1
  H  H183  1  0.67744105  0.75241431  -0.00011374  1
  H  H184  1  0.83770381  0.24810764  0.50556416  1
  H  H185  1  0.57956968  0.25119707  0.00361727  1
  H  H186  1  0.11242150  0.08222591  0.98736217  1
  H  H187  1  0.31595168  0.73739552  0.48870558  1
  H  H188  1  0.42960535  0.41690775  1.00232253  1
  H  H189  1  0.81657965  0.75207973  0.50425572  1
  H  H190  1  0.90923389  0.41298684  0.99349858  1
  H  H191  1  0.33462243  0.08735182  0.49772706  1
  Pb  Pb192  1  0.25019508  0.04453687  0.74846505  1
  Pb  Pb193  1  0.24896222  0.37915177  0.74680026  1
  Pb  Pb194  1  0.25477886  0.71533419  0.74307635  1
  Pb  Pb195  1  0.75190607  0.04875196  0.75037780  1
  Pb  Pb196  1  0.75039925  0.37909851  0.75250096  1
  Pb  Pb197  1  0.74716615  0.71347195  0.75585885  1
  Pb  Pb198  1  0.25019176  0.28807151  0.25004178  1
  Pb  Pb199  1  0.24735350  0.61821000  0.24625667  1
  Pb  Pb200  1  0.25220273  0.95364567  0.25723655  1
  Pb  Pb201  1  0.75012051  0.28584067  0.25083701  1
  Pb  Pb202  1  0.75202773  0.62038050  0.24936615  1
  Pb  Pb203  1  0.75003680  0.95432490  0.24521201  1
  Pb  Pb204  1  0.00132429  0.21320307  0.75057867  1
  Pb  Pb205  1  0.00151721  0.54905342  0.74917548  1
  Pb  Pb206  1  -0.00158595  0.87857057  0.75645020  1
  Pb  Pb207  1  0.49941812  0.21246084  0.75122346  1
  Pb  Pb208  1  0.50010316  0.54527198  0.75681826  1
  Pb  Pb209  1  0.49925497  0.88246965  0.74348597  1
  Pb  Pb210  1  -0.00014132  0.11980851  0.24476688  1
  Pb  Pb211  1  -0.00067436  0.45063230  0.25045467  1
  Pb  Pb212  1  0.00008237  0.78818009  0.24732603  1
  Pb  Pb213  1  0.49927374  0.12148602  0.24889080  1
  Pb  Pb214  1  0.50228108  0.45416919  0.25053352  1
  Pb  Pb215  1  0.49780313  0.78547362  0.25023747  1
  C  C216  1  -0.00116167  0.04574663  0.63392649  1
  C  C217  1  -0.00034784  0.37942159  0.63551500  1
  C  C218  1  0.00121203  0.71322271  0.63484535  1
  C  C219  1  0.50092963  0.04698667  0.63264286  1
  C  C220  1  0.49630011  0.37984657  0.63245070  1
  C  C221  1  0.50212126  0.71237717  0.62929947  1
  C  C222  1  0.00022742  0.28689642  0.13349987  1
  C  C223  1  -0.00440524  0.61930185  0.13108984  1
  C  C224  1  0.00203426  0.95259737  0.13257918  1
  C  C225  1  0.50060775  0.28645452  0.13057719  1
  C  C226  1  0.49687491  0.62073911  0.13291474  1
  C  C227  1  0.50079279  0.95318605  0.13169729  1
  C  C228  1  0.00430860  0.04661853  0.86953294  1
  C  C229  1  0.00168542  0.38048772  0.87045869  1
  C  C230  1  0.00160715  0.71472253  0.86990355  1
  C  C231  1  0.50626975  0.04602138  0.86852167  1
  C  C232  1  0.50098470  0.37943721  0.86719721  1
  C  C233  1  0.49824122  0.71423135  0.86679565  1
  C  C234  1  -0.00160474  0.28572782  0.36870660  1
  C  C235  1  0.00145203  0.62076417  0.36703107  1
  C  C236  1  -0.00045676  0.95369780  0.36781585  1
  C  C237  1  0.49758069  0.28674618  0.36589140  1
  C  C238  1  0.50205368  0.61931455  0.37011591  1
  C  C239  1  0.50015497  0.95472918  0.36636475  1
  C  C240  1  0.24861078  0.21292567  0.63396228  1
  C  C241  1  0.24727644  0.54762337  0.63141047  1
  C  C242  1  0.25017524  0.88088564  0.63452337  1
  C  C243  1  0.75304378  0.21323624  0.63196532  1
  C  C244  1  0.74647902  0.54610168  0.63373294  1
  C  C245  1  0.75071320  0.88007077  0.63185277  1
  C  C246  1  0.24540276  0.11975503  0.13209437  1
  C  C247  1  0.24844952  0.45225208  0.13100227  1
  C  C248  1  0.24996469  0.78717900  0.13119436  1
  C  C249  1  0.74445050  0.12023046  0.13077201  1
  C  C250  1  0.75004285  0.45235214  0.13071961  1
  C  C251  1  0.74670433  0.78702115  0.13462566  1
  C  C252  1  0.25055772  0.21344993  0.86695305  1
  C  C253  1  0.25371388  0.54450564  0.86824156  1
  C  C254  1  0.24844163  0.87951809  0.86844403  1
  C  C255  1  0.75051470  0.21403728  0.86772743  1
  C  C256  1  0.75438751  0.54656201  0.86660602  1
  C  C257  1  0.74681546  0.88011363  0.86543900  1
  C  C258  1  0.25040845  0.12107240  0.36605974  1
  C  C259  1  0.25008094  0.45343613  0.36736488  1
  C  C260  1  0.24739406  0.78582419  0.36715743  1
  C  C261  1  0.75114126  0.11957299  0.36904898  1
  C  C262  1  0.75199250  0.45341959  0.36549698  1
  C  C263  1  0.74622801  0.78717873  0.36796955  1
  C  C264  1  0.46863333  0.74192359  0.96125206  1
  C  C265  1  0.69090888  0.56994971  0.54372249  1
  C  C266  1  0.77690477  0.76275205  0.46487174  1
  C  C267  1  0.18846694  0.09677100  0.04276859  1
  C  C268  1  0.78481896  0.42755371  0.46158422  1
  C  C269  1  0.46000849  0.25891994  0.03658164  1
  C  C270  1  0.79318880  0.90611863  0.53881231  1
  C  C271  1  0.02007963  0.73733157  0.53613953  1
  C  C272  1  0.30819433  0.57235322  0.95667354  1
  C  C273  1  0.03233231  0.40836198  0.96660606  1
  C  C274  1  0.26940383  0.09316393  0.03489151  1
  C  C275  1  0.21052562  0.09644472  0.46053053  1
  C  C276  1  0.02253194  0.40374476  0.53927777  1
  C  C277  1  0.52919116  0.07518462  0.53812066  1
  C  C278  1  0.71440731  0.08991610  0.46312991  1
  C  C279  1  0.43998357  0.59483632  0.04403011  1
  C  C280  1  0.77257679  0.57168450  0.53693058  1
  C  C281  1  0.69558359  0.76397965  0.45938147  1
  C  C282  1  0.96148802  0.26142018  0.03868355  1
  C  C283  1  0.70355429  0.42939080  0.45717064  1
  C  C284  1  0.29279128  0.09659831  0.45999259  1
  C  C285  1  0.47832523  0.59384060  0.46598236  1
  C  C286  1  0.68162026  0.09386755  0.04458811  1
  C  C287  1  0.55846815  0.59559185  0.45913530  1
  C  C288  1  0.29800326  0.42852968  0.04007609  1
  C  C289  1  0.71456023  0.76183728  0.04026442  1
  C  C290  1  0.27558648  0.75870783  0.03630795  1
  C  C291  1  0.20883298  0.23978414  0.96053530  1
  C  C292  1  0.53972251  0.40615142  0.53989517  1
  C  C293  1  0.73235983  0.57178020  0.96276516  1
  C  C294  1  0.46357864  0.25982779  0.46126219  1
  C  C295  1  0.04321594  0.26257398  0.04009353  1
  C  C296  1  0.78877033  0.42356930  0.03659631  1
  C  C297  1  0.94840044  0.25961304  0.45849615  1
  C  C298  1  0.55029284  0.40462548  0.95846537  1
  C  C299  1  0.71157140  0.90696646  0.53743610  1
  C  C300  1  0.78383220  0.24351431  0.96110688  1
  C  C301  1  0.29106582  0.23968472  0.96095324  1
  C  C302  1  0.77402736  0.90544493  0.96060740  1
  C  C303  1  0.71575140  0.23973763  0.53795437  1
  C  C304  1  0.54502039  0.26142585  0.45762281  1
  C  C305  1  0.95677384  0.92907996  0.46117697  1
  C  C306  1  0.46373339  0.92453573  0.03952504  1
  C  C307  1  0.93965782  0.73561885  0.54739921  1
  C  C308  1  0.46882603  0.40599239  0.96315275  1
  C  C309  1  0.21696327  0.42685794  0.03606016  1
  C  C310  1  0.28630506  0.90707367  0.96084557  1
  C  C311  1  0.03835832  0.92905023  0.46299049  1
  N  N312  1  0.19210480  0.90124578  0.54531014  1
  N  N313  1  0.29359219  0.23864433  0.54173976  1
  N  N314  1  0.22886201  0.57375073  0.96242761  1
  N  N315  1  0.98693589  0.08021368  0.96278607  1
  N  N316  1  0.23172861  0.42729866  0.46204297  1
  N  N317  1  0.26973618  0.90296769  0.53876444  1
  N  N318  1  0.54937210  0.07268669  0.95846803  1
  N  N319  1  0.55793889  0.92769067  0.45374725  1
  N  N320  1  0.54116327  0.92472948  0.03797637  1
  N  N321  1  0.69495149  0.90537579  0.95661682  1
  N  N322  1  0.21704532  0.23932385  0.53875411  1
  N  N323  1  0.70952654  0.42494977  0.03910977  1
  N  N324  1  0.56436444  0.73320964  0.54389223  1
  N  N325  1  0.02067363  0.58680264  0.03853348  1
  N  N326  1  0.51844213  0.59253098  0.03800310  1
  N  N327  1  0.28648738  0.76736593  0.46107394  1
  N  N328  1  0.04319886  0.73377920  0.96304847  1
  N  N329  1  0.06377229  0.06697934  0.95626961  1
  N  N330  1  0.81121083  0.56902207  0.95669375  1
  N  N331  1  0.75981492  0.09164553  0.03515186  1
  N  N332  1  0.02562228  0.25823302  0.46572511  1
  N  N333  1  0.20887623  0.90806860  0.96236771  1
  N  N334  1  0.54615157  0.73988328  0.95957820  1
  N  N335  1  0.95358761  0.40601887  0.96048997  1
  N  N336  1  0.28582350  0.57340417  0.53723562  1
  N  N337  1  0.94366591  0.40436674  0.54571721  1
  N  N338  1  0.95584295  0.07041140  0.54084378  1
  N  N339  1  0.48037976  0.92547090  0.46004420  1
  N  N340  1  0.47129702  0.07282649  0.96292371  1
  N  N341  1  0.98322262  0.59323548  0.46142296  1
  N  N342  1  0.45164889  0.07391289  0.54077315  1
  N  N343  1  0.20767378  0.57288740  0.54049518  1
  N  N344  1  0.48708435  0.74459475  0.53497145  1
  N  N345  1  0.45998082  0.40625213  0.53953132  1
  N  N346  1  0.06086179  0.59681763  0.45490996  1
  N  N347  1  0.94266956  0.59830974  0.04214271  1
  N  N348  1  0.70584498  0.24246639  0.96034721  1
  N  N349  1  0.53926555  0.25907252  0.03856352  1
  N  N350  1  0.30934229  0.43027409  0.45558388  1
  N  N351  1  0.79551302  0.23942190  0.54047376  1
  N  N352  1  0.79409309  0.76156444  0.04194619  1
  N  N353  1  0.05494225  0.92988947  0.04194667  1
  N  N354  1  0.96482244  0.74777158  0.95993070  1
  N  N355  1  0.03261695  0.07155940  0.53892298  1
  N  N356  1  0.79347752  0.09102408  0.45961822  1
  N  N357  1  0.97709420  0.92917607  0.03827018  1
  N  N358  1  0.19808868  0.75994756  0.04009426  1
  N  N359  1  0.20581878  0.75829415  0.45829041  1
  N  N360  1  0.06039653  0.05653492  0.59660559  1
  N  N361  1  0.05838750  0.38912192  0.59416736  1
  N  N362  1  0.05774926  0.72317140  0.59210880  1
  N  N363  1  0.56180603  0.05877850  0.59304788  1
  N  N364  1  0.56227300  0.38984980  0.59766940  1
  N  N365  1  0.57340791  0.72216539  0.60406312  1
  N  N366  1  0.43598159  0.27580577  0.09357579  1
  N  N367  1  0.42621187  0.61123007  0.10308590  1
  N  N368  1  0.43612510  0.94190900  0.09577577  1
  N  N369  1  0.93602592  0.27655544  0.09804941  1
  N  N370  1  0.92689314  0.60897352  0.10200613  1
  N  N371  1  0.94292675  0.94183736  0.09322005  1
  N  N372  1  0.44497486  0.05660293  0.90677522  1
  N  N373  1  0.43919900  0.39012230  0.90501098  1
  N  N374  1  0.43673042  0.72620279  0.90578225  1
  N  N375  1  0.94914655  0.05820301  0.91231740  1
  N  N376  1  0.93413906  0.38865587  0.90133977  1
  N  N377  1  0.93851406  0.72369558  0.90608286  1
  N  N378  1  0.05696704  0.27495763  0.40847964  1
  N  N379  1  0.07131658  0.61148173  0.39532473  1
  N  N380  1  0.06389735  0.94440341  0.40352442  1
  N  N381  1  0.56517173  0.27760026  0.39989829  1
  N  N382  1  0.57284284  0.61116606  0.39971304  1
  N  N383  1  0.56948201  0.94383957  0.39497434  1
  N  N384  1  0.31436247  0.22252003  0.60078283  1
  N  N385  1  0.30992574  0.55807140  0.59441817  1
  N  N386  1  0.30665325  0.89283392  0.59329624  1
  N  N387  1  0.81813783  0.22278114  0.59835204  1
  N  N388  1  0.80604929  0.55690359  0.59342539  1
  N  N389  1  0.81637502  0.88992841  0.59575990  1
  N  N390  1  0.17442200  0.11257498  0.10198374  1
  N  N391  1  0.18698583  0.44130602  0.09173512  1
  N  N392  1  0.18222505  0.77767440  0.10105488  1
  N  N393  1  0.67197627  0.11073182  0.10403798  1
  N  N394  1  0.68524095  0.44272087  0.09692351  1
  N  N395  1  0.68413939  0.77689091  0.09684037  1
  N  N396  1  0.18527417  0.22347033  0.90175043  1
  N  N397  1  0.19540628  0.55333991  0.90888490  1
  N  N398  1  0.18502133  0.89054611  0.90344302  1
  N  N399  1  0.68530183  0.22404858  0.90099516  1
  N  N400  1  0.69618335  0.55774884  0.90802626  1
  N  N401  1  0.67983064  0.88957049  0.89732324  1
  N  N402  1  0.31595501  0.11164267  0.40095102  1
  N  N403  1  0.31984944  0.44668225  0.39654896  1
  N  N404  1  0.31068999  0.77237027  0.40158558  1
  N  N405  1  0.81683194  0.10934292  0.40167364  1
  N  N406  1  0.81404011  0.44271084  0.40313196  1
  N  N407  1  0.80727326  0.77763495  0.40655795  1
  N  N408  1  0.43511973  0.27594885  0.40304253  1
  N  N409  1  0.44357193  0.60807848  0.41188020  1
  N  N410  1  0.44359685  0.94436109  0.40798389  1
  N  N411  1  0.92932632  0.27624610  0.39953587  1
  N  N412  1  0.94553876  0.61072043  0.40925820  1
  N  N413  1  0.93379150  0.94375256  0.40374398  1
  N  N414  1  0.07502687  0.05478535  0.89637436  1
  N  N415  1  0.06242739  0.39266382  0.91079540  1
  N  N416  1  0.06644308  0.72507945  0.90374931  1
  N  N417  1  0.57195588  0.05597820  0.90138427  1
  N  N418  1  0.56912411  0.38879788  0.90029614  1
  N  N419  1  0.56466417  0.72251936  0.89918474  1
  N  N420  1  0.06620622  0.27780957  0.09747117  1
  N  N421  1  0.05396537  0.60962192  0.09053393  1
  N  N422  1  0.07002916  0.94466739  0.10089647  1
  N  N423  1  0.56489195  0.27611401  0.09642062  1
  N  N424  1  0.55460480  0.61045017  0.09231816  1
  N  N425  1  0.56452561  0.94274729  0.09679621  1
  N  N426  1  0.43396496  0.05617824  0.60118110  1
  N  N427  1  0.43333612  0.38977519  0.59651773  1
  N  N428  1  0.44799172  0.72211419  0.58531830  1
  N  N429  1  0.93386493  0.05407409  0.59947629  1
  N  N430  1  0.93133988  0.38923521  0.60573161  1
  N  N431  1  0.92899602  0.72131264  0.60696706  1
  N  N432  1  0.18574848  0.11139498  0.40171374  1
  N  N433  1  0.19401625  0.44102600  0.40872291  1
  N  N434  1  0.18305093  0.78094382  0.40276488  1
  N  N435  1  0.68803981  0.10793279  0.40722191  1
  N  N436  1  0.68404624  0.44484573  0.39911226  1
  N  N437  1  0.67746370  0.77840893  0.40029894  1
  N  N438  1  0.31533620  0.22333643  0.90234535  1
  N  N439  1  0.32348068  0.55574754  0.89772729  1
  N  N440  1  0.31336545  0.88995166  0.90432853  1
  N  N441  1  0.81323182  0.22624029  0.90527342  1
  N  N442  1  0.82326641  0.55383293  0.89625601  1
  N  N443  1  0.80756574  0.89064800  0.90486002  1
  N  N444  1  0.30381158  0.10799602  0.09175020  1
  N  N445  1  0.31668550  0.44380000  0.09837065  1
  N  N446  1  0.30977997  0.77487245  0.09078696  1
  N  N447  1  0.79923185  0.11015151  0.08783281  1
  N  N448  1  0.81392117  0.44055510  0.09349174  1
  N  N449  1  0.81211547  0.77744305  0.10113002  1
  N  N450  1  0.18790210  0.22353979  0.59570379  1
  N  N451  1  0.18254194  0.55718358  0.59729134  1
  N  N452  1  0.18065008  0.88668704  0.60459221  1
  N  N453  1  0.68924223  0.22364019  0.59485205  1
  N  N454  1  0.67666851  0.55404781  0.60405081  1
  N  N455  1  0.68622142  0.89062160  0.59666202  1
  Cl  Cl456  1  0.24615197  0.05197251  0.61410792  1
  Cl  Cl457  1  0.24474234  0.39279678  0.60650248  1
  Cl  Cl458  1  0.25786299  0.72747444  0.59939449  1
  Cl  Cl459  1  0.74998302  0.05559598  0.61556552  1
  Cl  Cl460  1  0.74626503  0.38396851  0.62056635  1
  Cl  Cl461  1  0.74926774  0.71837925  0.62374442  1
  Cl  Cl462  1  0.25209530  0.28135475  0.11495579  1
  Cl  Cl463  1  0.23766713  0.60630131  0.10572075  1
  Cl  Cl464  1  0.25292727  0.94731709  0.12689929  1
  Cl  Cl465  1  0.74858593  0.28362460  0.11952039  1
  Cl  Cl466  1  0.74007634  0.60983161  0.11237033  1
  Cl  Cl467  1  0.75780810  0.94795855  0.10938731  1
  Cl  Cl468  1  0.26055388  0.05127816  0.88264927  1
  Cl  Cl469  1  0.24875581  0.38817793  0.87730519  1
  Cl  Cl470  1  0.24948982  0.71776267  0.87636347  1
  Cl  Cl471  1  0.76344845  0.06130539  0.89549269  1
  Cl  Cl472  1  0.75161362  0.38747944  0.88780244  1
  Cl  Cl473  1  0.75337059  0.72002829  0.88791022  1
  Cl  Cl474  1  0.24489122  0.28239828  0.38059429  1
  Cl  Cl475  1  0.25381142  0.61624567  0.37960123  1
  Cl  Cl476  1  0.26077826  0.93912840  0.39620013  1
  Cl  Cl477  1  0.74805153  0.27644747  0.38638069  1
  Cl  Cl478  1  0.76441261  0.61051491  0.38210600  1
  Cl  Cl479  1  0.75125426  0.95088161  0.37813084  1
  Cl  Cl480  1  0.00199236  0.21961344  0.61880569  1
  Cl  Cl481  1  -0.00575347  0.55862681  0.60932223  1
  Cl  Cl482  1  -0.00113439  0.88367545  0.62426518  1
  Cl  Cl483  1  0.50137837  0.21868012  0.61872547  1
  Cl  Cl484  1  0.49209386  0.55043757  0.62549309  1
  Cl  Cl485  1  0.48984766  0.89073088  0.60450560  1
  Cl  Cl486  1  -0.01570719  0.10514780  0.10446113  1
  Cl  Cl487  1  -0.00254892  0.44548852  0.11518022  1
  Cl  Cl488  1  -0.00326730  0.77576348  0.10916033  1
  Cl  Cl489  1  0.49079024  0.11550277  0.11545225  1
  Cl  Cl490  1  0.50226094  0.45001714  0.11861233  1
  Cl  Cl491  1  0.49643399  0.78066445  0.11956515  1
  Cl  Cl492  1  -0.00227605  0.21863990  0.88367528  1
  Cl  Cl493  1  0.01172188  0.56010764  0.89362688  1
  Cl  Cl494  1  -0.00701964  0.88911515  0.89395855  1
  Cl  Cl495  1  0.50108617  0.22176076  0.88634620  1
  Cl  Cl496  1  0.51165017  0.55825064  0.89409395  1
  Cl  Cl497  1  0.49607043  0.88223338  0.87404397  1
  Cl  Cl498  1  -0.00054210  0.11530638  0.37505419  1
  Cl  Cl499  1  0.00948502  0.44499511  0.38630520  1
  Cl  Cl500  1  -0.00010913  0.77802881  0.38090244  1
  Cl  Cl501  1  0.50377508  0.11453507  0.37977316  1
  Cl  Cl502  1  0.50125663  0.44586189  0.38606127  1
  Cl  Cl503  1  0.49142876  0.77434604  0.39144481  1
  Cl  Cl504  1  0.36320148  0.14502805  0.74887399  1
  Cl  Cl505  1  0.36197313  0.47954979  0.75039082  1
  Cl  Cl506  1  0.35922804  0.81030462  0.74747792  1
  Cl  Cl507  1  0.86090483  0.14343653  0.74882347  1
  Cl  Cl508  1  0.86371254  0.47804560  0.75371470  1
  Cl  Cl509  1  0.86427643  0.81006108  0.74893995  1
  Cl  Cl510  1  0.13591317  0.18783039  0.24419696  1
  Cl  Cl511  1  0.13968556  0.52358419  0.24993731  1
  Cl  Cl512  1  0.13736634  0.85481532  0.24849493  1
  Cl  Cl513  1  0.63642692  0.18905498  0.24781521  1
  Cl  Cl514  1  0.63798756  0.52084233  0.25105858  1
  Cl  Cl515  1  0.63611845  0.85527609  0.25563819  1
  Cl  Cl516  1  0.13715995  0.14449434  0.75371290  1
  Cl  Cl517  1  0.13653201  0.47976437  0.74747365  1
  Cl  Cl518  1  0.13573484  0.81171259  0.74790475  1
  Cl  Cl519  1  0.63985485  0.14340155  0.75254846  1
  Cl  Cl520  1  0.63747965  0.47844217  0.74956798  1
  Cl  Cl521  1  0.63967002  0.80981248  0.75036717  1
  Cl  Cl522  1  0.36287819  0.18847216  0.25119907  1
  Cl  Cl523  1  0.36150431  0.52179307  0.24847656  1
  Cl  Cl524  1  0.36097865  0.85444072  0.25489971  1
  Cl  Cl525  1  0.85901809  0.18909942  0.24881544  1
  Cl  Cl526  1  0.86204269  0.52276935  0.24526792  1
  Cl  Cl527  1  0.86281016  0.85403463  0.24703380  1
  Cl  Cl528  1  0.10985164  0.31354845  0.75221473  1
  Cl  Cl529  1  0.10737773  0.64463707  0.75060931  1
  Cl  Cl530  1  0.11447250  0.97753077  0.75422792  1
  Cl  Cl531  1  0.61251219  0.31221859  0.75161343  1
  Cl  Cl532  1  0.61313972  0.64515612  0.74831445  1
  Cl  Cl533  1  0.61252517  0.97668211  0.75204747  1
  Cl  Cl534  1  0.38835807  0.02080047  0.25210650  1
  Cl  Cl535  1  0.38692652  0.35559654  0.24918646  1
  Cl  Cl536  1  0.38856528  0.68873690  0.24991794  1
  Cl  Cl537  1  0.88631063  0.02147119  0.25095471  1
  Cl  Cl538  1  0.88650409  0.35668384  0.25218806  1
  Cl  Cl539  1  0.88770903  0.68750108  0.24293510  1
  Cl  Cl540  1  0.38751465  0.31234027  0.74806692  1
  Cl  Cl541  1  0.38921483  0.64671916  0.74937535  1
  Cl  Cl542  1  0.38964177  0.97813146  0.74701639  1
  Cl  Cl543  1  0.88536933  0.31080112  0.74891559  1
  Cl  Cl544  1  0.88782180  0.64374717  0.75106718  1
  Cl  Cl545  1  0.88904784  0.97901377  0.75307775  1
  Cl  Cl546  1  0.11005640  0.02280484  0.24706694  1
  Cl  Cl547  1  0.11183743  0.35570539  0.24814701  1
  Cl  Cl548  1  0.11237786  0.68719765  0.25155399  1
  Cl  Cl549  1  0.61400257  0.02246763  0.24746930  1
  Cl  Cl550  1  0.61079393  0.35596758  0.25224521  1
  Cl  Cl551  1  0.61221315  0.68916418  0.25581538  1
