# generated using pymatgen
data_H8PbC4(N3Cl2)2
_symmetry_space_group_name_H-M   'P 1'
_cell_length_a   16.61955406
_cell_length_b   22.50050954
_cell_length_c   21.58797940
_cell_angle_alpha   89.99864310
_cell_angle_beta   89.99845727
_cell_angle_gamma   90.00222510
_symmetry_Int_Tables_number   1
_chemical_formula_structural   H8PbC4(N3Cl2)2
_chemical_formula_sum   'H192 Pb24 C96 N144 Cl96'
_cell_volume   8072.79109195
_cell_formula_units_Z   24
loop_
 _symmetry_equiv_pos_site_id
 _symmetry_equiv_pos_as_xyz
  1  'x, y, z'
loop_
 _atom_site_type_symbol
 _atom_site_label
 _atom_site_symmetry_multiplicity
 _atom_site_fract_x
 _atom_site_fract_y
 _atom_site_fract_z
 _atom_site_occupancy
  H  H0  1  0.00088857  0.03316027  0.68144504  1
  H  H1  1  -0.00421078  0.36637696  0.67826476  1
  H  H2  1  -0.00026810  0.69912961  0.67974798  1
  H  H3  1  0.50031365  0.03240610  0.67837776  1
  H  H4  1  0.49780261  0.36757021  0.68163301  1
  H  H5  1  0.50635889  0.69895035  0.68185588  1
  H  H6  1  0.00389844  0.30116961  0.17998400  1
  H  H7  1  -0.00759169  0.63280610  0.17855807  1
  H  H8  1  0.00443284  0.96862286  0.18015063  1
  H  H9  1  0.50003973  0.30137020  0.17900329  1
  H  H10  1  0.50376799  0.63490403  0.17945542  1
  H  H11  1  0.49956682  0.96851583  0.18121293  1
  H  H12  1  -0.00037528  0.03430861  0.82262442  1
  H  H13  1  0.00284930  0.36425915  0.81819979  1
  H  H14  1  -0.00384520  0.69712260  0.81918872  1
  H  H15  1  0.49780897  0.03187904  0.81722255  1
  H  H16  1  0.50716458  0.36516356  0.82315510  1
  H  H17  1  0.50182474  0.69844895  0.82156560  1
  H  H18  1  0.00869424  0.30026639  0.31977094  1
  H  H19  1  -0.00245105  0.63571594  0.31937653  1
  H  H20  1  0.00525804  0.96984212  0.31883652  1
  H  H21  1  0.49497410  0.30236556  0.31767756  1
  H  H22  1  0.50632288  0.63393225  0.31763980  1
  H  H23  1  0.49438730  0.96736025  0.31967949  1
  H  H24  1  0.25508676  0.19775009  0.68271889  1
  H  H25  1  0.25222768  0.53437083  0.67929121  1
  H  H26  1  0.24032686  0.86494682  0.68127347  1
  H  H27  1  0.74456741  0.19895104  0.68032060  1
  H  H28  1  0.74556897  0.53114432  0.68154973  1
  H  H29  1  0.75351937  0.86438355  0.68071179  1
  H  H30  1  0.24253441  0.13450251  0.17721170  1
  H  H31  1  0.24514510  0.46679112  0.17749815  1
  H  H32  1  0.24466501  0.80022738  0.18051562  1
  H  H33  1  0.75115820  0.13460584  0.18189600  1
  H  H34  1  0.75006538  0.46784438  0.17971313  1
  H  H35  1  0.74941308  0.80273809  0.17971109  1
  H  H36  1  0.25010418  0.19759918  0.82076854  1
  H  H37  1  0.25772404  0.53307957  0.82069320  1
  H  H38  1  0.24416529  0.86547596  0.82063387  1
  H  H39  1  0.74604052  0.19952149  0.82083359  1
  H  H40  1  0.74787629  0.53126927  0.82162991  1
  H  H41  1  0.74677856  0.86616399  0.81897432  1
  H  H42  1  0.24498933  0.13196178  0.31877263  1
  H  H43  1  0.25432530  0.46601923  0.31966868  1
  H  H44  1  0.25263073  0.80169939  0.31988146  1
  H  H45  1  0.74957884  0.13270091  0.32196041  1
  H  H46  1  0.75117774  0.46762803  0.31914521  1
  H  H47  1  0.74615786  0.80113905  0.31775982  1
  H  H48  1  0.11872195  0.05555518  0.60456452  1
  H  H49  1  0.13288485  0.38397528  0.61945155  1
  H  H50  1  0.12040242  0.71988382  0.60728899  1
  H  H51  1  0.62280532  0.05765964  0.60667862  1
  H  H52  1  0.62871470  0.38663100  0.61509729  1
  H  H53  1  0.61798584  0.72347804  0.60170046  1
  H  H54  1  0.37429176  0.27992729  0.10855831  1
  H  H55  1  0.37074764  0.61418132  0.11556034  1
  H  H56  1  0.37209732  0.94702553  0.11258159  1
  H  H57  1  0.87356168  0.27971324  0.11546057  1
  H  H58  1  0.87609312  0.61067526  0.10289144  1
  H  H59  1  0.86980672  0.94832074  0.11804050  1
  H  H60  1  0.37367046  0.05354594  0.88876497  1
  H  H61  1  0.37135711  0.38539088  0.88241569  1
  H  H62  1  0.37265994  0.71928442  0.88816365  1
  H  H63  1  0.87601873  0.05527842  0.89209053  1
  H  H64  1  0.87399570  0.38632105  0.88616084  1
  H  H65  1  0.87345929  0.72002018  0.89309832  1
  H  H66  1  0.11624279  0.27470468  0.40492050  1
  H  H67  1  0.12779899  0.61391608  0.38612728  1
  H  H68  1  0.12172862  0.94286795  0.39597110  1
  H  H69  1  0.62385658  0.27801860  0.38474874  1
  H  H70  1  0.61964543  0.61082898  0.39614988  1
  H  H71  1  0.62830988  0.94952072  0.38073639  1
  H  H72  1  0.37626691  0.22013344  0.60952729  1
  H  H73  1  0.37296572  0.55439722  0.60672802  1
  H  H74  1  0.37630470  0.88566757  0.62200703  1
  H  H75  1  0.87973953  0.21908857  0.61909608  1
  H  H76  1  0.87675565  0.55344346  0.61855036  1
  H  H77  1  0.87019340  0.88842202  0.60252847  1
  H  H78  1  0.12601751  0.11270363  0.10211506  1
  H  H79  1  0.13289815  0.44492174  0.09976148  1
  H  H80  1  0.13057168  0.77641689  0.10347711  1
  H  H81  1  0.62566248  0.11417165  0.11123881  1
  H  H82  1  0.62888528  0.44378757  0.10599378  1
  H  H83  1  0.62493681  0.77865081  0.10817081  1
  H  H84  1  0.12590370  0.21857015  0.89404708  1
  H  H85  1  0.12758117  0.55136216  0.88418909  1
  H  H86  1  0.13159004  0.89161253  0.90092805  1
  H  H87  1  0.62643404  0.22294311  0.89487205  1
  H  H88  1  0.63176458  0.55586843  0.89961196  1
  H  H89  1  0.63093625  0.88854244  0.89923910  1
  H  H90  1  0.37901631  0.11440874  0.37989912  1
  H  H91  1  0.36276620  0.44426904  0.40155154  1
  H  H92  1  0.37793415  0.77909816  0.39093739  1
  H  H93  1  0.87688602  0.11319205  0.38882699  1
  H  H94  1  0.86677937  0.44304687  0.39844008  1
  H  H95  1  0.87944323  0.78212044  0.37856593  1
  H  H96  1  0.37442372  0.27828684  0.39049517  1
  H  H97  1  0.37154224  0.61508780  0.37664606  1
  H  H98  1  0.38015054  0.94437330  0.39677180  1
  H  H99  1  0.87133007  0.28066761  0.37636786  1
  H  H100  1  0.87989540  0.61144859  0.39653396  1
  H  H101  1  0.87263707  0.94976245  0.38114867  1
  H  H102  1  0.12516343  0.05281945  0.89093968  1
  H  H103  1  0.12322941  0.38767844  0.89248546  1
  H  H104  1  0.12191131  0.71885266  0.88960026  1
  H  H105  1  0.62304016  0.05477084  0.88827534  1
  H  H106  1  0.61841746  0.39016036  0.90321942  1
  H  H107  1  0.62145876  0.72248099  0.89511256  1
  H  H108  1  0.12210084  0.27796210  0.10312266  1
  H  H109  1  0.12398986  0.61528836  0.11579221  1
  H  H110  1  0.11879643  0.94666299  0.10139310  1
  H  H111  1  0.62337833  0.27898423  0.10753501  1
  H  H112  1  0.61884812  0.60905038  0.09991758  1
  H  H113  1  0.62123007  0.94457801  0.10710170  1
  H  H114  1  0.37451140  0.05024973  0.60744478  1
  H  H115  1  0.38099707  0.39002814  0.60316311  1
  H  H116  1  0.37035912  0.71696035  0.62061724  1
  H  H117  1  0.87062407  0.05358854  0.61411936  1
  H  H118  1  0.88652913  0.39359523  0.59665529  1
  H  H119  1  0.87173660  0.71937606  0.61402034  1
  H  H120  1  0.13064010  0.11039406  0.39625084  1
  H  H121  1  0.11568757  0.45034635  0.37565622  1
  H  H122  1  0.12792451  0.77889504  0.38927012  1
  H  H123  1  0.62805404  0.11114718  0.39282513  1
  H  H124  1  0.61926115  0.44655022  0.38364389  1
  H  H125  1  0.63090920  0.77877863  0.39474321  1
  H  H126  1  0.37494625  0.22128441  0.89302298  1
  H  H127  1  0.37640709  0.55361182  0.89702982  1
  H  H128  1  0.37941537  0.88323720  0.88088756  1
  H  H129  1  0.87529423  0.21700135  0.88513787  1
  H  H130  1  0.88019357  0.55427852  0.88329810  1
  H  H131  1  0.87882728  0.88779397  0.88440420  1
  H  H132  1  0.37413465  0.11616502  0.11528289  1
  H  H133  1  0.37998780  0.44898308  0.11875312  1
  H  H134  1  0.37882985  0.78216072  0.11941492  1
  H  H135  1  0.87541983  0.11316082  0.10818784  1
  H  H136  1  0.87767008  0.44720121  0.10975564  1
  H  H137  1  0.87353084  0.77807278  0.10879551  1
  H  H138  1  0.12662618  0.22110180  0.61508119  1
  H  H139  1  0.12431964  0.55345752  0.61279049  1
  H  H140  1  0.12979242  0.89004823  0.59789655  1
  H  H141  1  0.63161504  0.22105750  0.60071740  1
  H  H142  1  0.62764464  0.55556658  0.60522560  1
  H  H143  1  0.62276590  0.88726907  0.61527903  1
  H  H144  1  0.84193261  0.58421611  0.50721093  1
  H  H145  1  0.67340402  0.08651629  0.00182574  1
  H  H146  1  0.39508919  0.58649234  0.48947402  1
  H  H147  1  0.55083729  0.75005724  0.49531591  1
  H  H148  1  0.33138645  0.74907204  0.49500870  1
  H  H149  1  0.92817992  0.74431813  0.99769639  1
  H  H150  1  0.41652672  0.08411644  0.50550809  1
  H  H151  1  0.90540651  0.91749137  0.49215067  1
  H  H152  1  0.42882275  0.25739619  0.50289025  1
  H  H153  1  0.04001861  0.25209991  0.50535104  1
  H  H154  1  0.05985917  0.92001957  0.50027157  1
  H  H155  1  0.57943865  0.26093081  0.49352668  1
  H  H156  1  0.44521824  0.41926994  0.50117136  1
  H  H157  1  0.32178751  0.24097470  0.49694704  1
  H  H158  1  0.90211315  0.92243243  0.01031245  1
  H  H159  1  0.17208817  0.74779567  0.49886451  1
  H  H160  1  0.06918133  0.41646207  0.99985042  1
  H  H161  1  0.18869026  0.74695725  -0.00408691  1
  H  H162  1  0.11000180  0.41883774  0.51128724  1
  H  H163  1  0.90967537  0.08072615  0.50898809  1
  H  H164  1  0.83066870  0.41736000  0.00543218  1
  H  H165  1  0.65937808  0.91592563  0.50904166  1
  H  H166  1  0.42111405  0.08454350  0.99673600  1
  H  H167  1  0.41448538  0.91748406  0.00313514  1
  H  H168  1  0.84199308  0.24658763  0.99849639  1
  H  H169  1  0.18948546  0.08304541  0.50501486  1
  H  H170  1  0.80061272  0.41781217  0.50103213  1
  H  H171  1  0.57376326  0.07368926  0.50200717  1
  H  H172  1  0.85369926  0.75325827  0.49169616  1
  H  H173  1  0.95989716  0.40767695  0.49387888  1
  H  H174  1  0.55806884  0.58583744  0.50516369  1
  H  H175  1  0.17196629  0.23962279  0.50620892  1
  H  H176  1  0.08887100  0.58678678  0.49139575  1
  H  H177  1  0.19988592  0.91943673  1.00290924  1
  H  H178  1  0.55103907  0.58161727  -0.00182138  1
  H  H179  1  0.41072340  0.74914535  0.99423991  1
  H  H180  1  0.05754657  0.92217869  -0.00724205  1
  H  H181  1  0.43732400  0.91761337  0.50501509  1
  H  H182  1  0.29461462  0.42044469  0.50941541  1
  H  H183  1  0.69522847  0.24342939  0.49162168  1
  H  H184  1  0.67639918  0.75330467  0.00341702  1
  H  H185  1  0.68917543  0.75337285  0.50402381  1
  H  H186  1  0.84926237  0.24536148  0.51074211  1
  H  H187  1  0.15906562  0.58003489  0.99796421  1
  H  H188  1  0.69603816  0.58161712  1.00351227  1
  H  H189  1  0.20302902  0.91630679  0.49783792  1
  H  H190  1  0.39557258  0.41525124  0.99121055  1
  H  H191  1  0.68741951  0.57486141  0.49977737  1
  Pb  Pb192  1  0.25428316  0.04736138  0.74770445  1
  Pb  Pb193  1  0.24811817  0.38083243  0.74964720  1
  Pb  Pb194  1  0.24769668  0.71428803  0.74918014  1
  Pb  Pb195  1  0.74575624  0.04849183  0.75046865  1
  Pb  Pb196  1  0.75325402  0.38181387  0.74947945  1
  Pb  Pb197  1  0.74851795  0.71313638  0.75064988  1
  Pb  Pb198  1  0.24834348  0.28291071  0.25569536  1
  Pb  Pb199  1  0.24826458  0.62090591  0.24865109  1
  Pb  Pb200  1  0.24392705  0.95173732  0.24985606  1
  Pb  Pb201  1  0.74623639  0.28649589  0.25086175  1
  Pb  Pb202  1  0.74556211  0.61645822  0.25074470  1
  Pb  Pb203  1  0.75112010  0.95452597  0.25039703  1
  Pb  Pb204  1  0.00127397  0.21203119  0.74815077  1
  Pb  Pb205  1  0.00086252  0.54727624  0.74820019  1
  Pb  Pb206  1  -0.00057904  0.88428169  0.74804171  1
  Pb  Pb207  1  0.49977407  0.21798368  0.74623484  1
  Pb  Pb208  1  0.49891753  0.54729917  0.75239224  1
  Pb  Pb209  1  0.50179492  0.87854857  0.75302524  1
  Pb  Pb210  1  -0.00153183  0.12170076  0.25220428  1
  Pb  Pb211  1  -0.00070326  0.45163779  0.25024492  1
  Pb  Pb212  1  -0.00340269  0.78429245  0.24444332  1
  Pb  Pb213  1  0.50041177  0.11765864  0.25163557  1
  Pb  Pb214  1  0.49407136  0.45204802  0.25291055  1
  Pb  Pb215  1  0.50044479  0.78803966  0.25035345  1
  C  C216  1  -0.00354893  0.04768801  0.63365587  1
  C  C217  1  0.00544727  0.38135731  0.63087780  1
  C  C218  1  -0.00283589  0.71299122  0.63181714  1
  C  C219  1  0.49911057  0.04738208  0.63045678  1
  C  C220  1  0.50253072  0.38181860  0.63376691  1
  C  C221  1  0.49786189  0.71310268  0.63421859  1
  C  C222  1  0.00005926  0.28645678  0.13243111  1
  C  C223  1  -0.00250120  0.61957561  0.13056710  1
  C  C224  1  -0.00293916  0.95413810  0.13240069  1
  C  C225  1  0.49906088  0.28678695  0.13135927  1
  C  C226  1  0.49808643  0.61984362  0.13192176  1
  C  C227  1  0.49760475  0.95328423  0.13365861  1
  C  C228  1  0.00026364  0.04785476  0.87099370  1
  C  C229  1  -0.00018452  0.37933681  0.86583013  1
  C  C230  1  -0.00320319  0.71206232  0.86695738  1
  C  C231  1  0.49829224  0.04682014  0.86493337  1
  C  C232  1  0.49854985  0.38015415  0.87038969  1
  C  C233  1  0.49822554  0.71340255  0.86917500  1
  C  C234  1  -0.00101352  0.28600522  0.36725188  1
  C  C235  1  0.00203403  0.62051845  0.36696273  1
  C  C236  1  0.00016728  0.95481875  0.36657781  1
  C  C237  1  0.49833246  0.28689415  0.36532075  1
  C  C238  1  0.49880442  0.61979804  0.36542361  1
  C  C239  1  0.50071323  0.95341918  0.36746583  1
  C  C240  1  0.25206633  0.21245573  0.63478766  1
  C  C241  1  0.24980590  0.54761816  0.63111964  1
  C  C242  1  0.24843626  0.87952213  0.63375539  1
  C  C243  1  0.75273035  0.21330109  0.63258798  1
  C  C244  1  0.74969728  0.54614468  0.63376012  1
  C  C245  1  0.74851482  0.87992929  0.63324845  1
  C  C246  1  0.24779761  0.12065280  0.12933343  1
  C  C247  1  0.25283182  0.45325480  0.12980531  1
  C  C248  1  0.25111754  0.78644644  0.13268666  1
  C  C249  1  0.75088057  0.12032969  0.13390178  1
  C  C250  1  0.75259288  0.45279411  0.13200814  1
  C  C251  1  0.74898348  0.78695475  0.13230303  1
  C  C252  1  0.25039193  0.21205410  0.86868329  1
  C  C253  1  0.25335227  0.54616376  0.86882250  1
  C  C254  1  0.25141600  0.87978137  0.86833234  1
  C  C255  1  0.74989274  0.21352142  0.86871845  1
  C  C256  1  0.75297757  0.54631178  0.86908267  1
  C  C257  1  0.75216949  0.88024961  0.86686026  1
  C  C258  1  0.25142314  0.11882280  0.36680586  1
  C  C259  1  0.24417081  0.45372007  0.36767228  1
  C  C260  1  0.25331025  0.78653140  0.36771227  1
  C  C261  1  0.75152734  0.11874664  0.36991840  1
  C  C262  1  0.74580021  0.45304028  0.36682306  1
  C  C263  1  0.75248060  0.78685152  0.36560777  1
  C  C264  1  0.44332271  0.59594465  0.45539219  1
  C  C265  1  0.04767260  0.59592406  0.03983632  1
  C  C266  1  0.96670669  0.59434371  0.03530027  1
  C  C267  1  0.21725776  0.09416783  0.03498357  1
  C  C268  1  0.20433047  0.57240954  0.53898330  1
  C  C269  1  0.51954927  0.73912090  0.53820995  1
  C  C270  1  0.20506170  0.56988671  0.96167490  1
  C  C271  1  0.28577301  0.57267294  0.53681393  1
  C  C272  1  0.96139296  0.07253559  0.96350096  1
  C  C273  1  0.30884306  0.90541516  0.95759495  1
  C  C274  1  0.29805456  0.09535221  0.03939415  1
  C  C275  1  0.80609950  0.57594738  0.95843898  1
  C  C276  1  0.30605959  0.09659718  0.45731298  1
  C  C277  1  0.21213850  0.75903926  0.46037486  1
  C  C278  1  0.22447531  0.75937098  0.03604112  1
  C  C279  1  0.22757549  0.42704478  0.03450535  1
  C  C280  1  0.28881855  0.23745431  0.54034132  1
  C  C281  1  0.79701342  0.23792669  0.96177638  1
  C  C282  1  0.71541556  0.23993859  0.96346561  1
  C  C283  1  0.30749120  0.42872472  0.04086551  1
  C  C284  1  0.04164797  0.07186328  0.96311660  1
  C  C285  1  0.03191897  0.40574687  0.95984157  1
  C  C286  1  0.53393828  0.74255776  0.96386880  1
  C  C287  1  0.71273031  0.09603081  0.04075865  1
  C  C288  1  0.47374983  0.92770212  0.46454585  1
  C  C289  1  0.52497761  0.59510568  0.46275175  1
  C  C290  1  0.71438698  0.09212118  0.46348577  1
  C  C291  1  0.28665593  0.56997531  0.96464063  1
  C  C292  1  0.02526485  0.93000717  0.03587347  1
  C  C293  1  0.95425676  0.25895878  0.04187856  1
  C  C294  1  0.79617299  0.09310697  0.46193006  1
  C  C295  1  0.46164450  0.07362460  0.95787963  1
  C  C296  1  0.80577924  0.76301019  0.45647918  1
  C  C297  1  0.72588958  0.23714206  0.53568303  1
  C  C298  1  0.72385848  0.76226412  0.46236911  1
  C  C299  1  0.30591573  0.76218555  0.04279429  1
  C  C300  1  0.79952171  0.57362900  0.54389010  1
  C  C301  1  0.55536256  0.92948079  0.45757983  1
  C  C302  1  0.18277760  0.43362313  0.45627158  1
  C  C303  1  0.94855684  0.92691246  0.45563666  1
  C  C304  1  0.46193462  0.26153119  0.45973800  1
  C  C305  1  0.95119187  0.73845963  0.53994777  1
  C  C306  1  0.52361178  0.40912109  0.96699040  1
  C  C307  1  0.22461732  0.09413288  0.46404540  1
  C  C308  1  0.03308333  0.73863950  0.53768673  1
  C  C309  1  0.26349206  0.43069491  0.46633069  1
  C  C310  1  0.53534309  0.25960211  0.03853663  1
  C  C311  1  0.45695634  0.92746687  0.04134068  1
  N  N312  1  0.70326129  0.90642093  0.54372292  1
  N  N313  1  0.52193779  0.59295964  0.03829907  1
  N  N314  1  0.80486408  0.23755125  0.54359180  1
  N  N315  1  0.94617368  0.92924204  0.04329418  1
  N  N316  1  0.45814848  0.06450967  0.53656318  1
  N  N317  1  0.77078526  0.42778123  0.46077943  1
  N  N318  1  0.44435107  0.59492988  0.04229906  1
  N  N319  1  0.03164362  0.25831720  0.03648333  1
  N  N320  1  0.80057257  0.90532048  0.95812609  1
  N  N321  1  0.95250326  0.40590276  0.95823536  1
  N  N322  1  0.29187435  0.75970034  0.45994274  1
  N  N323  1  0.04586486  0.59564611  0.45712290  1
  N  N324  1  0.72737547  0.57506365  0.96310774  1
  N  N325  1  0.95253691  0.07137970  0.54322035  1
  N  N326  1  0.04160473  0.73688179  0.95969008  1
  N  N327  1  0.47570690  0.40417400  0.53922003  1
  N  N328  1  0.20940488  0.23952436  0.54380777  1
  N  N329  1  0.53584892  0.07880854  0.53953131  1
  N  N330  1  0.79207675  0.42827387  0.04081829  1
  N  N331  1  0.96339762  0.73773927  0.95935459  1
  N  N332  1  0.79160553  0.75953535  0.03967797  1
  N  N333  1  0.55359957  0.40293768  0.54200205  1
  N  N334  1  0.02801473  0.92384271  0.45971452  1
  N  N335  1  0.79203471  0.09566279  0.03940044  1
  N  N336  1  0.23007071  0.90768991  0.96334609  1
  N  N337  1  0.71321296  0.75961104  0.04104803  1
  N  N338  1  0.78153916  0.90670739  0.53830013  1
  N  N339  1  0.54104014  0.07372337  0.95850965  1
  N  N340  1  0.98454796  0.41315652  0.53738127  1
  N  N341  1  0.30742593  0.90531094  0.54628773  1
  N  N342  1  0.93744923  0.26265124  0.45426975  1
  N  N343  1  0.44067255  0.73705208  0.54447654  1
  N  N344  1  0.28863753  0.23910253  0.96228395  1
  N  N345  1  0.44543913  0.40680285  0.95858384  1
  N  N346  1  0.01475516  0.25988741  0.46238670  1
  N  N347  1  0.03088268  0.07233078  0.53822580  1
  N  N348  1  0.21260211  0.23824568  0.96267912  1
  N  N349  1  0.69301728  0.42925074  0.45734535  1
  N  N350  1  0.54142854  0.26006973  0.45629651  1
  N  N351  1  0.45485909  0.74037263  0.96018047  1
  N  N352  1  0.22984819  0.90690077  0.53950526  1
  N  N353  1  0.06229308  0.40188289  0.54317789  1
  N  N354  1  0.96769781  0.59494061  0.46209511  1
  N  N355  1  0.45798105  0.25983144  0.03750288  1
  N  N356  1  0.71395372  0.42672245  0.03795699  1
  N  N357  1  0.72427150  0.90550869  0.96305094  1
  N  N358  1  0.53618909  0.92618853  0.03907376  1
  N  N359  1  0.71987106  0.57468220  0.54011863  1
  N  N360  1  0.05745859  0.05775058  0.59503345  1
  N  N361  1  0.07527517  0.39135275  0.60324781  1
  N  N362  1  0.06019118  0.72323395  0.59407075  1
  N  N363  1  0.56209758  0.05749272  0.59449894  1
  N  N364  1  0.56976845  0.38865494  0.60100724  1
  N  N365  1  0.55607097  0.72462325  0.59290107  1
  N  N366  1  0.43501490  0.27710279  0.09654791  1
  N  N367  1  0.42997099  0.61101569  0.10077400  1
  N  N368  1  0.43179669  0.94381199  0.09925325  1
  N  N369  1  0.93238253  0.27600275  0.09991437  1
  N  N370  1  0.93642634  0.60865449  0.09097143  1
  N  N371  1  0.92903003  0.94445941  0.10254195  1
  N  N372  1  0.43412246  0.05737886  0.90080573  1
  N  N373  1  0.42966465  0.38904286  0.89910589  1
  N  N374  1  0.43243010  0.72220884  0.90207036  1
  N  N375  1  0.93527376  0.05810963  0.90731102  1
  N  N376  1  0.93433365  0.38923467  0.89909243  1
  N  N377  1  0.93451407  0.72204260  0.90358013  1
  N  N378  1  0.05383266  0.27601466  0.41029784  1
  N  N379  1  0.06770119  0.61082097  0.39971534  1
  N  N380  1  0.05985073  0.94461119  0.40566666  1
  N  N381  1  0.56370477  0.27876144  0.39888655  1
  N  N382  1  0.55838799  0.61001979  0.40612298  1
  N  N383  1  0.57052130  0.94493261  0.39865161  1
  N  N384  1  0.31585304  0.22251822  0.59725092  1
  N  N385  1  0.31306890  0.55739959  0.59336525  1
  N  N386  1  0.31818622  0.88932582  0.60526548  1
  N  N387  1  0.82108646  0.22260988  0.60310951  1
  N  N388  1  0.81806310  0.55755953  0.60230671  1
  N  N389  1  0.80893183  0.89035781  0.59411800  1
  N  N390  1  0.18653651  0.10942364  0.08985028  1
  N  N391  1  0.19368476  0.44215493  0.08861698  1
  N  N392  1  0.19153981  0.77498715  0.09311034  1
  N  N393  1  0.68591682  0.11087667  0.09845869  1
  N  N394  1  0.68998137  0.44211410  0.09512788  1
  N  N395  1  0.68580043  0.77752961  0.09651947  1
  N  N396  1  0.18711099  0.22112857  0.90477655  1
  N  N397  1  0.18598140  0.55481585  0.90092997  1
  N  N398  1  0.19366681  0.89100175  0.90866728  1
  N  N399  1  0.68701131  0.22527317  0.90741427  1
  N  N400  1  0.69348717  0.55520217  0.90866886  1
  N  N401  1  0.69290877  0.89026515  0.90663420  1
  N  N402  1  0.32136404  0.11109743  0.39811562  1
  N  N403  1  0.30087147  0.44351911  0.40995244  1
  N  N404  1  0.31711683  0.77673182  0.40279295  1
  N  N405  1  0.81787722  0.10926949  0.40437295  1
  N  N406  1  0.80477846  0.44320462  0.40657092  1
  N  N407  1  0.82154468  0.77821725  0.39606814  1
  N  N408  1  0.43461905  0.27626469  0.40284981  1
  N  N409  1  0.42899401  0.61109904  0.39482164  1
  N  N410  1  0.44102257  0.94281483  0.40719035  1
  N  N411  1  0.92837627  0.27752029  0.39471952  1
  N  N412  1  0.94112743  0.61023052  0.40570052  1
  N  N413  1  0.93117226  0.94460123  0.39755104  1
  N  N414  1  0.06614986  0.05689564  0.90660280  1
  N  N415  1  0.06225584  0.38981929  0.90359692  1
  N  N416  1  0.06167358  0.72175434  0.90178814  1
  N  N417  1  0.56208095  0.05690516  0.90009853  1
  N  N418  1  0.55715227  0.39261883  0.91242165  1
  N  N419  1  0.56103654  0.72557443  0.90744941  1
  N  N420  1  0.06036048  0.27601851  0.09424558  1
  N  N421  1  0.06593520  0.61119322  0.09819727  1
  N  N422  1  0.05717178  0.94468742  0.09143285  1
  N  N423  1  0.56340835  0.27592117  0.09500309  1
  N  N424  1  0.55670508  0.60871581  0.09218059  1
  N  N425  1  0.55979885  0.94227922  0.09696461  1
  N  N426  1  0.43454674  0.05629640  0.59574876  1
  N  N427  1  0.44283433  0.39311609  0.59503731  1
  N  N428  1  0.42910588  0.72079567  0.60455872  1
  N  N429  1  0.93055661  0.05676299  0.60076069  1
  N  N430  1  0.94877675  0.39089949  0.58880083  1
  N  N431  1  0.93028093  0.72280093  0.59788120  1
  N  N432  1  0.19179240  0.10826618  0.40666818  1
  N  N433  1  0.17185246  0.44722799  0.39597942  1
  N  N434  1  0.18805901  0.77563726  0.40311281  1
  N  N435  1  0.68794615  0.10796447  0.40702177  1
  N  N436  1  0.67797018  0.44396974  0.39827409  1
  N  N437  1  0.69196124  0.77687821  0.40533821  1
  N  N438  1  0.31384471  0.22282900  0.90406111  1
  N  N439  1  0.31579016  0.55588756  0.90857406  1
  N  N440  1  0.32202337  0.88831692  0.89868161  1
  N  N441  1  0.81695926  0.22146652  0.90149603  1
  N  N442  1  0.82206476  0.55856579  0.90015454  1
  N  N443  1  0.81926035  0.88917378  0.89861798  1
  N  N444  1  0.31642239  0.11134957  0.09741117  1
  N  N445  1  0.32281514  0.44467499  0.09996744  1
  N  N446  1  0.32105991  0.77843802  0.10148855  1
  N  N447  1  0.81402111  0.11080051  0.09764362  1
  N  N448  1  0.81723148  0.44374485  0.09759138  1
  N  N449  1  0.81289931  0.77529107  0.09727809  1
  N  N450  1  0.18676928  0.22064420  0.60106236  1
  N  N451  1  0.18332395  0.55709324  0.59708288  1
  N  N452  1  0.19213088  0.88962193  0.59180461  1
  N  N453  1  0.69306216  0.22273398  0.59108119  1
  N  N454  1  0.68931445  0.55453492  0.59489216  1
  N  N455  1  0.68239606  0.89010654  0.60109094  1
  Cl  Cl456  1  0.24705623  0.05253146  0.61176945  1
  Cl  Cl457  1  0.26055255  0.38517285  0.61324115  1
  Cl  Cl458  1  0.24583299  0.72057168  0.61342412  1
  Cl  Cl459  1  0.74631855  0.05388306  0.61486874  1
  Cl  Cl460  1  0.76430917  0.39101420  0.60694569  1
  Cl  Cl461  1  0.74136180  0.72037984  0.61715036  1
  Cl  Cl462  1  0.24764295  0.28250010  0.12499202  1
  Cl  Cl463  1  0.24848503  0.61380954  0.11747296  1
  Cl  Cl464  1  0.24143068  0.94431675  0.11087784  1
  Cl  Cl465  1  0.74902602  0.28132767  0.12001998  1
  Cl  Cl466  1  0.73996390  0.60830414  0.10709609  1
  Cl  Cl467  1  0.74586906  0.94750212  0.11936713  1
  Cl  Cl468  1  0.25105983  0.04603129  0.87801951  1
  Cl  Cl469  1  0.24699297  0.38738257  0.88006978  1
  Cl  Cl470  1  0.24783539  0.71979492  0.88226017  1
  Cl  Cl471  1  0.74718947  0.05558492  0.88173337  1
  Cl  Cl472  1  0.74813366  0.38766192  0.88268676  1
  Cl  Cl473  1  0.74811687  0.71861798  0.88734587  1
  Cl  Cl474  1  0.24090271  0.27385109  0.39693760  1
  Cl  Cl475  1  0.24609353  0.61577629  0.38071634  1
  Cl  Cl476  1  0.24398362  0.94103432  0.39177237  1
  Cl  Cl477  1  0.74511388  0.27684240  0.38869676  1
  Cl  Cl478  1  0.74899078  0.60677819  0.39223093  1
  Cl  Cl479  1  0.75081969  0.94861969  0.38277824  1
  Cl  Cl480  1  0.00574117  0.22618121  0.60393851  1
  Cl  Cl481  1  0.00064092  0.55234433  0.61499007  1
  Cl  Cl482  1  0.00511285  0.89234548  0.60267885  1
  Cl  Cl483  1  0.50459700  0.22294856  0.60641373  1
  Cl  Cl484  1  0.50451040  0.55359954  0.61788023  1
  Cl  Cl485  1  0.50140777  0.88715714  0.61858132  1
  Cl  Cl486  1  -0.00077763  0.11523832  0.12077611  1
  Cl  Cl487  1  0.00202353  0.44770946  0.11796469  1
  Cl  Cl488  1  -0.00281989  0.77885968  0.10863921  1
  Cl  Cl489  1  0.50148440  0.11610383  0.12124760  1
  Cl  Cl490  1  0.50700539  0.44661379  0.11873491  1
  Cl  Cl491  1  0.50434784  0.77652278  0.11506622  1
  Cl  Cl492  1  0.00366126  0.21655163  0.87618080  1
  Cl  Cl493  1  0.00313583  0.55114791  0.87674841  1
  Cl  Cl494  1  0.00749242  0.89009035  0.88812655  1
  Cl  Cl495  1  0.49956369  0.22062302  0.87742234  1
  Cl  Cl496  1  0.50873517  0.55574460  0.89302312  1
  Cl  Cl497  1  0.50607023  0.88324980  0.88531962  1
  Cl  Cl498  1  0.00296818  0.11347265  0.38553775  1
  Cl  Cl499  1  -0.01369846  0.44024777  0.39318140  1
  Cl  Cl500  1  0.00557199  0.78364616  0.37551897  1
  Cl  Cl501  1  0.50379261  0.11226767  0.38803272  1
  Cl  Cl502  1  0.48776676  0.44284844  0.39003336  1
  Cl  Cl503  1  0.50372723  0.77911337  0.38483069  1
  Cl  Cl504  1  0.36056743  0.14300627  0.74614927  1
  Cl  Cl505  1  0.36444636  0.47830674  0.74995209  1
  Cl  Cl506  1  0.36409556  0.81057510  0.74833819  1
  Cl  Cl507  1  0.86541884  0.14518750  0.74419043  1
  Cl  Cl508  1  0.86225422  0.47703717  0.74883195  1
  Cl  Cl509  1  0.86240146  0.81199900  0.74871995  1
  Cl  Cl510  1  0.13991239  0.18969624  0.25145779  1
  Cl  Cl511  1  0.13508361  0.52134131  0.25439402  1
  Cl  Cl512  1  0.14175187  0.85740045  0.25047784  1
  Cl  Cl513  1  0.63909944  0.18990478  0.25466234  1
  Cl  Cl514  1  0.64168295  0.52358621  0.25224163  1
  Cl  Cl515  1  0.63752568  0.85567371  0.25062875  1
  Cl  Cl516  1  0.13753004  0.14487047  0.74524403  1
  Cl  Cl517  1  0.13720673  0.47661150  0.74553913  1
  Cl  Cl518  1  0.14313082  0.81052344  0.75058268  1
  Cl  Cl519  1  0.64165454  0.14375231  0.74848600  1
  Cl  Cl520  1  0.64009692  0.47683140  0.74750249  1
  Cl  Cl521  1  0.63741678  0.81075153  0.74899991  1
  Cl  Cl522  1  0.36305189  0.19145381  0.25524584  1
  Cl  Cl523  1  0.36288495  0.52209069  0.24855477  1
  Cl  Cl524  1  0.36347813  0.85517017  0.24844330  1
  Cl  Cl525  1  0.86345584  0.18948498  0.25392856  1
  Cl  Cl526  1  0.86037655  0.52394380  0.25017999  1
  Cl  Cl527  1  0.86234654  0.85533628  0.24970576  1
  Cl  Cl528  1  0.11470908  0.31128466  0.74188389  1
  Cl  Cl529  1  0.11122342  0.64514412  0.74947658  1
  Cl  Cl530  1  0.10853289  0.97685798  0.74876597  1
  Cl  Cl531  1  0.61143573  0.31114895  0.74641503  1
  Cl  Cl532  1  0.61328103  0.64519125  0.75233637  1
  Cl  Cl533  1  0.61184181  0.97873769  0.74741976  1
  Cl  Cl534  1  0.39045045  0.02435318  0.25250459  1
  Cl  Cl535  1  0.39194037  0.35610637  0.25087334  1
  Cl  Cl536  1  0.38565168  0.68884127  0.24914746  1
  Cl  Cl537  1  0.88756823  0.02157404  0.25016374  1
  Cl  Cl538  1  0.88583587  0.35597089  0.25390734  1
  Cl  Cl539  1  0.89129838  0.68989558  0.25080366  1
  Cl  Cl540  1  0.38943594  0.30989346  0.74886962  1
  Cl  Cl541  1  0.39026962  0.64313186  0.74991291  1
  Cl  Cl542  1  0.38729163  0.97705556  0.74600411  1
  Cl  Cl543  1  0.89036468  0.31165483  0.74692135  1
  Cl  Cl544  1  0.88668415  0.64315954  0.74842925  1
  Cl  Cl545  1  0.89129424  0.97549376  0.74857057  1
  Cl  Cl546  1  0.11043682  0.02027857  0.25143833  1
  Cl  Cl547  1  0.10731416  0.35711727  0.25510712  1
  Cl  Cl548  1  0.11291756  0.68876175  0.24817442  1
  Cl  Cl549  1  0.61093674  0.02288109  0.25310672  1
  Cl  Cl550  1  0.61415407  0.35583744  0.25354539  1
  Cl  Cl551  1  0.61159505  0.68696541  0.25116382  1
