# generated using pymatgen
data_H8PbC4(N3Cl2)2
_symmetry_space_group_name_H-M   'P 1'
_cell_length_a   16.62489742
_cell_length_b   22.50610356
_cell_length_c   21.59138446
_cell_angle_alpha   90.00032218
_cell_angle_beta   90.01342014
_cell_angle_gamma   90.00387914
_symmetry_Int_Tables_number   1
_chemical_formula_structural   H8PbC4(N3Cl2)2
_chemical_formula_sum   'H192 Pb24 C96 N144 Cl96'
_cell_volume   8078.66807554
_cell_formula_units_Z   24
loop_
 _symmetry_equiv_pos_site_id
 _symmetry_equiv_pos_as_xyz
  1  'x, y, z'
loop_
 _atom_site_type_symbol
 _atom_site_label
 _atom_site_symmetry_multiplicity
 _atom_site_fract_x
 _atom_site_fract_y
 _atom_site_fract_z
 _atom_site_occupancy
  H  H0  1  -0.00950786  0.03253419  0.67985733  1
  H  H1  1  -0.00281050  0.36238016  0.67615137  1
  H  H2  1  -0.00356590  0.69775520  0.68282442  1
  H  H3  1  0.50441595  0.03290229  0.67915425  1
  H  H4  1  0.49790845  0.36446287  0.68088827  1
  H  H5  1  0.50810878  0.69817609  0.67511659  1
  H  H6  1  -0.00235492  0.30505762  0.18216233  1
  H  H7  1  -0.01076844  0.63384127  0.18224412  1
  H  H8  1  0.00676250  0.96769388  0.18077743  1
  H  H9  1  0.49727154  0.30243716  0.18162655  1
  H  H10  1  0.50976330  0.63595051  0.17839522  1
  H  H11  1  0.49723921  0.96805569  0.17991920  1
  H  H12  1  -0.00069858  0.03541110  0.81966858  1
  H  H13  1  0.00867013  0.36706382  0.81748408  1
  H  H14  1  -0.00496079  0.69724239  0.81995862  1
  H  H15  1  0.49964447  0.02927365  0.81919035  1
  H  H16  1  0.49363470  0.36446549  0.81996372  1
  H  H17  1  0.50007969  0.70050291  0.82192570  1
  H  H18  1  -0.00627090  0.30283831  0.32052381  1
  H  H19  1  0.00966467  0.63277285  0.32265665  1
  H  H20  1  0.01281684  0.96767066  0.31954525  1
  H  H21  1  0.49427152  0.30223569  0.32035851  1
  H  H22  1  0.50079180  0.63555367  0.31890547  1
  H  H23  1  0.48925307  0.96979422  0.32167373  1
  H  H24  1  0.25427679  0.19598572  0.67978677  1
  H  H25  1  0.25088979  0.53074585  0.67870129  1
  H  H26  1  0.25074658  0.86398353  0.68133891  1
  H  H27  1  0.74359096  0.19498186  0.67718350  1
  H  H28  1  0.74242235  0.52941936  0.67798813  1
  H  H29  1  0.74505953  0.86495875  0.67972331  1
  H  H30  1  0.25261580  0.13517178  0.18206504  1
  H  H31  1  0.25046931  0.46830402  0.18068370  1
  H  H32  1  0.24931493  0.80262646  0.18074754  1
  H  H33  1  0.75111516  0.13519788  0.18149861  1
  H  H34  1  0.75235701  0.46829741  0.18139573  1
  H  H35  1  0.75840848  0.80295707  0.18037173  1
  H  H36  1  0.23715689  0.19746877  0.82215302  1
  H  H37  1  0.24351738  0.53163250  0.82095133  1
  H  H38  1  0.24815926  0.86398882  0.82195330  1
  H  H39  1  0.76104119  0.19930402  0.81684402  1
  H  H40  1  0.75415740  0.53223593  0.81625184  1
  H  H41  1  0.74131629  0.86673921  0.82286006  1
  H  H42  1  0.25067775  0.13600842  0.31935230  1
  H  H43  1  0.24877227  0.46992980  0.32060438  1
  H  H44  1  0.23776122  0.80002098  0.32111586  1
  H  H45  1  0.74957743  0.13775255  0.32052455  1
  H  H46  1  0.74711214  0.47034204  0.32064940  1
  H  H47  1  0.76255936  0.80303349  0.31830178  1
  H  H48  1  0.12451058  0.05177359  0.61693697  1
  H  H49  1  0.12575805  0.38459219  0.61017247  1
  H  H50  1  0.12294029  0.71639240  0.61445437  1
  H  H51  1  0.62536802  0.05624933  0.60592388  1
  H  H52  1  0.62559833  0.38469302  0.61394115  1
  H  H53  1  0.61768298  0.72638906  0.59479705  1
  H  H54  1  0.37260910  0.27900197  0.11161084  1
  H  H55  1  0.37187267  0.61529793  0.12461576  1
  H  H56  1  0.37226401  0.94407519  0.10769357  1
  H  H57  1  0.87444083  0.27997239  0.11200586  1
  H  H58  1  0.87824520  0.60933143  0.10121777  1
  H  H59  1  0.87035566  0.94971831  0.12419924  1
  H  H60  1  0.37783066  0.05276670  0.89131385  1
  H  H61  1  0.38170959  0.38924565  0.89958965  1
  H  H62  1  0.37932230  0.72476269  0.89470896  1
  H  H63  1  0.87586600  0.05166032  0.89345408  1
  H  H64  1  0.87891888  0.38664627  0.88600702  1
  H  H65  1  0.88266819  0.72395012  0.89823820  1
  H  H66  1  0.12629872  0.28078396  0.38402496  1
  H  H67  1  0.11705937  0.60923222  0.40465474  1
  H  H68  1  0.11669015  0.94304807  0.40379546  1
  H  H69  1  0.63021130  0.28219536  0.38110532  1
  H  H70  1  0.61753324  0.61029800  0.39544391  1
  H  H71  1  0.62546255  0.94937400  0.37898240  1
  H  H72  1  0.36760314  0.22330089  0.60023101  1
  H  H73  1  0.37669588  0.55512321  0.60921191  1
  H  H74  1  0.37424649  0.88949059  0.60908387  1
  H  H75  1  0.87277044  0.21886012  0.61156292  1
  H  H76  1  0.88001763  0.54928276  0.62292502  1
  H  H77  1  0.87724872  0.88727528  0.61742429  1
  H  H78  1  0.12397450  0.11219406  0.11292693  1
  H  H79  1  0.11846506  0.44875901  0.11751000  1
  H  H80  1  0.11915237  0.77890191  0.11379581  1
  H  H81  1  0.62401861  0.11149560  0.11120157  1
  H  H82  1  0.62170968  0.44652101  0.11518837  1
  H  H83  1  0.62067648  0.78363468  0.12206277  1
  H  H84  1  0.13349512  0.22495347  0.90822106  1
  H  H85  1  0.13061715  0.55596747  0.90194680  1
  H  H86  1  0.13284226  0.88995265  0.89948448  1
  H  H87  1  0.62526486  0.21681695  0.87395038  1
  H  H88  1  0.62811542  0.55337162  0.88432472  1
  H  H89  1  0.63256082  0.89041036  0.90325419  1
  H  H90  1  0.37291572  0.11121576  0.39247207  1
  H  H91  1  0.37034596  0.44438712  0.39351532  1
  H  H92  1  0.38045357  0.78509658  0.37062728  1
  H  H93  1  0.87425683  0.11294952  0.39217295  1
  H  H94  1  0.87149767  0.44647928  0.39248970  1
  H  H95  1  0.87458459  0.77710275  0.39857762  1
  H  H96  1  0.38307214  0.27516161  0.40246452  1
  H  H97  1  0.36858363  0.61417450  0.38434384  1
  H  H98  1  0.37859854  0.94233364  0.40298436  1
  H  H99  1  0.87834019  0.27622360  0.39727278  1
  H  H100  1  0.87135243  0.61473755  0.37641045  1
  H  H101  1  0.87141625  0.95235161  0.37149041  1
  H  H102  1  0.12487968  0.05313198  0.89122625  1
  H  H103  1  0.12714568  0.38910950  0.89561487  1
  H  H104  1  0.13104834  0.71759274  0.88054104  1
  H  H105  1  0.62766364  0.05149674  0.88765290  1
  H  H106  1  0.62982810  0.38575421  0.87940656  1
  H  H107  1  0.62771456  0.72083315  0.89033494  1
  H  H108  1  0.12412389  0.27971675  0.11286226  1
  H  H109  1  0.12587010  0.61379946  0.12180242  1
  H  H110  1  0.11762499  0.94282973  0.10115958  1
  H  H111  1  0.62149175  0.27805774  0.10977990  1
  H  H112  1  0.61764177  0.60772377  0.09596549  1
  H  H113  1  0.62117211  0.94519932  0.10676076  1
  H  H114  1  0.37646958  0.05377144  0.61051758  1
  H  H115  1  0.37627995  0.38836974  0.60992662  1
  H  H116  1  0.37132841  0.71656907  0.61704584  1
  H  H117  1  0.87644479  0.05755530  0.60136078  1
  H  H118  1  0.87759885  0.38963986  0.60300601  1
  H  H119  1  0.87304030  0.71935117  0.61212841  1
  H  H120  1  0.12365970  0.11312114  0.38756396  1
  H  H121  1  0.12197933  0.44875510  0.38854221  1
  H  H122  1  0.13592229  0.77402801  0.40566177  1
  H  H123  1  0.62526058  0.11251872  0.39262407  1
  H  H124  1  0.62275498  0.44377466  0.38913796  1
  H  H125  1  0.62680750  0.78230319  0.37880249  1
  H  H126  1  0.37769019  0.21632728  0.87256179  1
  H  H127  1  0.37809790  0.55336111  0.88123290  1
  H  H128  1  0.38103954  0.88598548  0.88282966  1
  H  H129  1  0.87244261  0.22113472  0.89749418  1
  H  H130  1  0.87782135  0.55322351  0.88666325  1
  H  H131  1  0.87851268  0.88451653  0.87812867  1
  H  H132  1  0.37183360  0.11022649  0.10625343  1
  H  H133  1  0.36729192  0.44610416  0.10595100  1
  H  H134  1  0.36719942  0.77729259  0.10336317  1
  H  H135  1  0.87206266  0.11183137  0.10608445  1
  H  H136  1  0.87050681  0.44449657  0.10625502  1
  H  H137  1  0.86695612  0.77726011  0.09838059  1
  H  H138  1  0.11949843  0.21699354  0.62070052  1
  H  H139  1  0.12793569  0.55370389  0.60721723  1
  H  H140  1  0.12452837  0.88730892  0.61366093  1
  H  H141  1  0.62395787  0.22186304  0.60322101  1
  H  H142  1  0.63338844  0.55974260  0.59654316  1
  H  H143  1  0.62961041  0.89045142  0.60048877  1
  H  H144  1  0.21233148  0.24886656  1.00736036  1
  H  H145  1  0.54537597  0.58970568  -0.00650176  1
  H  H146  1  0.10094275  0.74482182  0.98800377  1
  H  H147  1  0.81379003  0.41607136  -0.00137043  1
  H  H148  1  0.92074545  0.74309954  0.49949638  1
  H  H149  1  0.64844713  0.24377595  0.98843464  1
  H  H150  1  0.16861298  0.91311168  0.50120968  1
  H  H151  1  0.42717602  0.08151812  1.00054439  1
  H  H152  1  0.42276094  0.41819599  0.50063389  1
  H  H153  1  0.45037139  0.91967735  0.50570980  1
  H  H154  1  0.80550007  0.75248749  0.50523285  1
  H  H155  1  0.43535911  0.74396099  0.99941976  1
  H  H156  1  0.04280684  0.91971162  0.51003870  1
  H  H157  1  0.93521120  0.40770748  0.49885449  1
  H  H158  1  0.92355887  0.25836740  -0.00040360  1
  H  H159  1  0.88826737  0.91989098  0.00927449  1
  H  H160  1  0.55585095  0.58322796  0.50314297  1
  H  H161  1  0.30255168  0.24557667  0.49718490  1
  H  H162  1  0.94804537  0.58220637  -0.00473958  1
  H  H163  1  0.31087183  0.41884686  -0.00490177  1
  H  H164  1  0.16854276  0.08341520  0.49692581  1
  H  H165  1  0.60071918  0.41274081  0.98756576  1
  H  H166  1  0.32087654  0.90722033  0.50183626  1
  H  H167  1  0.84603646  0.91880776  0.50575820  1
  H  H168  1  0.44589791  0.41645750  1.00669754  1
  H  H169  1  0.08031876  0.73966640  0.50098701  1
  H  H170  1  0.80830677  0.24316357  1.00628030  1
  H  H171  1  0.83138350  0.57763227  0.99904133  1
  H  H172  1  0.58914613  0.41244806  0.50259891  1
  H  H173  1  0.39502802  0.74849473  0.50687661  1
  H  H174  1  0.14776327  0.24833158  0.50853434  1
  H  H175  1  0.07535048  0.26604881  0.00422310  1
  H  H176  1  0.70423718  0.58085137  0.49481758  1
  H  H177  1  0.92918007  0.08639628  0.99559810  1
  H  H178  1  0.67164417  0.57601456  0.99814757  1
  H  H179  1  0.58522880  0.75683931  0.99255170  1
  H  H180  1  0.79655459  0.75366981  -0.00739728  1
  H  H181  1  0.08645144  0.42335723  0.50910465  1
  H  H182  1  0.58464124  0.07760264  0.99342164  1
  H  H183  1  0.19775450  0.91607380  1.00340177  1
  H  H184  1  0.21193429  0.74545354  0.51005711  1
  H  H185  1  0.05229574  0.91767269  -0.00674519  1
  H  H186  1  0.45497079  0.24820525  0.50279919  1
  H  H187  1  0.86317073  0.58235650  0.50904631  1
  H  H188  1  0.07591360  0.08440357  0.99535947  1
  H  H189  1  0.41682492  0.25002460  0.00227534  1
  H  H190  1  0.94571451  0.75146192  1.00564646  1
  H  H191  1  0.38995931  0.58470257  0.01095214  1
  Pb  Pb192  1  0.25139359  0.04564916  0.75009470  1
  Pb  Pb193  1  0.25149229  0.37880124  0.75292744  1
  Pb  Pb194  1  0.25212367  0.71103699  0.75130634  1
  Pb  Pb195  1  0.75126863  0.04519890  0.74861399  1
  Pb  Pb196  1  0.75177826  0.37796308  0.74839428  1
  Pb  Pb197  1  0.75165923  0.71351207  0.75022244  1
  Pb  Pb198  1  0.25322177  0.28486941  0.25428198  1
  Pb  Pb199  1  0.24818196  0.62174572  0.25471132  1
  Pb  Pb200  1  0.25365189  0.95076055  0.25293114  1
  Pb  Pb201  1  0.75103053  0.28876933  0.24783340  1
  Pb  Pb202  1  0.75225155  0.61740201  0.24765392  1
  Pb  Pb203  1  0.74715752  0.95446250  0.24746943  1
  Pb  Pb204  1  0.00076770  0.21215831  0.75928784  1
  Pb  Pb205  1  0.00167955  0.54539554  0.75468240  1
  Pb  Pb206  1  0.00344306  0.87958583  0.75170293  1
  Pb  Pb207  1  0.50118264  0.21177026  0.74014963  1
  Pb  Pb208  1  0.50221918  0.54664199  0.74886613  1
  Pb  Pb209  1  0.50167660  0.87887449  0.74386242  1
  Pb  Pb210  1  -0.00074161  0.12000253  0.24538637  1
  Pb  Pb211  1  0.00291671  0.45289928  0.25630088  1
  Pb  Pb212  1  -0.00208001  0.78670514  0.25258103  1
  Pb  Pb213  1  0.50327837  0.11970396  0.24713353  1
  Pb  Pb214  1  0.49801413  0.45392540  0.24941963  1
  Pb  Pb215  1  0.50267454  0.78502968  0.24229189  1
  C  C216  1  -0.00248433  0.04705145  0.63244119  1
  C  C217  1  0.00016435  0.37897575  0.62889942  1
  C  C218  1  -0.00251119  0.71185691  0.63469295  1
  C  C219  1  0.50181226  0.04767882  0.63157758  1
  C  C220  1  0.50004018  0.37980087  0.63317594  1
  C  C221  1  0.49847861  0.71352603  0.62809502  1
  C  C222  1  -0.00061791  0.28911645  0.13466363  1
  C  C223  1  -0.00209088  0.61947478  0.13479394  1
  C  C224  1  -0.00230859  0.95333556  0.13322431  1
  C  C225  1  0.49728998  0.28670223  0.13412838  1
  C  C226  1  0.50000937  0.62081947  0.13115666  1
  C  C227  1  0.49674290  0.95288565  0.13222057  1
  C  C228  1  0.00002188  0.04839045  0.86823528  1
  C  C229  1  0.00493907  0.38063955  0.86568887  1
  C  C230  1  0.00354072  0.71283733  0.86717376  1
  C  C231  1  0.50209473  0.04489762  0.86678138  1
  C  C232  1  0.50241310  0.38005543  0.86718638  1
  C  C233  1  0.50247581  0.71496398  0.86994521  1
  C  C234  1  -0.00005124  0.28705025  0.36750899  1
  C  C235  1  -0.00107477  0.61889507  0.36994910  1
  C  C236  1  0.00050233  0.95451531  0.36695222  1
  C  C237  1  0.50214437  0.28709473  0.36768386  1
  C  C238  1  0.49534655  0.62061568  0.36648401  1
  C  C239  1  0.49744690  0.95510906  0.36892700  1
  C  C240  1  0.24739388  0.21130492  0.63229550  1
  C  C241  1  0.25215817  0.54627189  0.63136074  1
  C  C242  1  0.25050016  0.87935781  0.63350348  1
  C  C243  1  0.74681683  0.21180906  0.63042972  1
  C  C244  1  0.75178848  0.54523264  0.63089886  1
  C  C245  1  0.75049718  0.88056690  0.63241963  1
  C  C246  1  0.24927294  0.11960353  0.13455949  1
  C  C247  1  0.24560543  0.45413968  0.13295652  1
  C  C248  1  0.24512864  0.78741115  0.13310996  1
  C  C249  1  0.74896963  0.11999547  0.13376940  1
  C  C250  1  0.74784343  0.45322272  0.13371803  1
  C  C251  1  0.74818084  0.78835219  0.13307214  1
  C  C252  1  0.24938312  0.21200537  0.86915161  1
  C  C253  1  0.25060471  0.54647672  0.86826593  1
  C  C254  1  0.25381607  0.87916618  0.86931458  1
  C  C255  1  0.75258375  0.21265453  0.86476055  1
  C  C256  1  0.75321360  0.54626497  0.86438724  1
  C  C257  1  0.75113267  0.88066616  0.87024521  1
  C  C258  1  0.24912404  0.11994513  0.36666534  1
  C  C259  1  0.24721268  0.45432763  0.36786855  1
  C  C260  1  0.25143235  0.78628501  0.36822778  1
  C  C261  1  0.74960508  0.12167102  0.36780796  1
  C  C262  1  0.74739309  0.45395029  0.36765877  1
  C  C263  1  0.75454198  0.78727262  0.36538368  1
  C  C264  1  0.52189274  0.74491884  0.53213219  1
  C  C265  1  0.30157940  0.57254106  0.95757581  1
  C  C266  1  0.31589552  0.23870682  0.95399746  1
  C  C267  1  0.52252141  0.59407687  0.46123184  1
  C  C268  1  0.79296295  0.56894042  0.95929281  1
  C  C269  1  0.71561205  0.24389902  0.53810985  1
  C  C270  1  0.95864497  0.73456786  0.53956392  1
  C  C271  1  0.20681027  0.90578402  0.54134846  1
  C  C272  1  0.97250614  0.25547445  0.46108811  1
  C  C273  1  0.77673907  0.23539961  0.96283240  1
  C  C274  1  0.20925953  0.09353523  0.45875695  1
  C  C275  1  0.93811953  0.59502569  0.45713215  1
  C  C276  1  0.73017406  0.90808554  0.96618980  1
  C  C277  1  0.20531903  0.42833968  0.46028704  1
  C  C278  1  0.97740918  0.59287041  0.03888763  1
  C  C279  1  0.81034868  0.90587137  0.95782330  1
  C  C280  1  0.46460122  0.07184613  0.96054647  1
  C  C281  1  0.97726899  0.74029980  0.96300445  1
  C  C282  1  0.69538130  0.23484211  0.95439727  1
  C  C283  1  0.53519075  0.07548340  0.53831145  1
  C  C284  1  0.46266327  0.40654676  0.53863063  1
  C  C285  1  0.23934040  0.75863571  0.46631935  1
  C  C286  1  0.27586667  0.42856436  0.03645954  1
  C  C287  1  0.30756350  0.90859055  0.95829681  1
  C  C288  1  0.01790654  0.59266727  0.46660891  1
  C  C289  1  0.81215792  0.57293263  0.54452360  1
  C  C290  1  0.21656444  0.57438430  0.53870444  1
  C  C291  1  0.70855849  0.42282015  0.45923474  1
  C  C292  1  0.76670608  0.76365253  0.03630466  1
  C  C293  1  0.43901830  0.59360222  0.04504101  1
  C  C294  1  0.93451172  0.93344021  0.45300314  1
  C  C295  1  0.55643806  0.92719791  0.45650797  1
  C  C296  1  0.45895570  0.26025290  0.04119942  1
  C  C297  1  0.77559893  0.76112359  0.46133220  1
  C  C298  1  0.02061276  0.92757603  0.03609483  1
  C  C299  1  0.01426101  0.92989159  0.46598556  1
  C  C300  1  0.95966903  0.26371796  0.04114856  1
  C  C301  1  0.71098230  0.56858364  0.95868701  1
  C  C302  1  0.79865373  0.90783173  0.54254399  1
  C  C303  1  0.04050446  0.73310656  0.54034498  1
  C  C304  1  0.93910964  0.92938936  0.04426528  1
  C  C305  1  0.47698335  0.40666188  0.96347376  1
  C  C306  1  0.19256642  0.23930940  0.54417987  1
  C  C307  1  0.19474285  0.42957212  0.04239860  1
  C  C308  1  0.77771151  0.42686606  0.03923741  1
  C  C309  1  0.54496658  0.40452493  0.53989057  1
  C  C310  1  0.97178086  0.07524123  0.53745519  1
  C  C311  1  0.31895883  0.76271298  0.45291200  1
  N  N312  1  0.44395867  0.74053448  0.54049853  1
  N  N313  1  0.78807496  0.09232832  0.46056382  1
  N  N314  1  0.53429639  0.92579195  0.03859186  1
  N  N315  1  0.23800049  0.24139698  0.96467257  1
  N  N316  1  0.04116291  0.06363626  0.96225355  1
  N  N317  1  0.54429046  0.07223942  0.95782183  1
  N  N318  1  0.55967666  0.26150819  0.45570555  1
  N  N319  1  0.04917357  0.07308124  0.54108785  1
  N  N320  1  0.70703169  0.09319382  0.04080372  1
  N  N321  1  0.45773449  0.07461814  0.53839028  1
  N  N322  1  0.04530822  0.40222661  0.53799311  1
  N  N323  1  0.27605196  0.75954607  0.03824426  1
  N  N324  1  0.19952912  0.76057187  0.04154365  1
  N  N325  1  0.44345217  0.59487503  0.45745376  1
  N  N326  1  0.47812602  0.92587640  0.46367150  1
  N  N327  1  0.55586102  0.40570618  0.95521470  1
  N  N328  1  0.51806370  0.59080331  0.03620696  1
  N  N329  1  0.03940859  0.26284672  0.04259460  1
  N  N330  1  0.54573152  0.73740049  0.96154575  1
  N  N331  1  0.28647475  0.90748920  0.54110666  1
  N  N332  1  0.22882622  0.90876453  0.96310036  1
  N  N333  1  0.78380687  0.09368670  0.03896944  1
  N  N334  1  0.78626043  0.42392934  0.46144117  1
  N  N335  1  0.71192795  0.09204828  0.46063256  1
  N  N336  1  0.69706027  0.76124153  0.45424777  1
  N  N337  1  0.28312421  0.42571295  0.46290144  1
  N  N338  1  0.46750523  0.75016553  0.95936836  1
  N  N339  1  0.05625125  0.73819453  0.95544539  1
  N  N340  1  0.29378200  0.57493327  0.53806410  1
  N  N341  1  0.53840479  0.25973260  0.04018229  1
  N  N342  1  0.95994817  0.40373375  0.95868830  1
  N  N343  1  0.20573444  0.09392663  0.04175786  1
  N  N344  1  0.96684618  0.41465015  0.53906037  1
  N  N345  1  0.22478023  0.57386694  0.96563894  1
  N  N346  1  0.96181143  0.06298162  0.96319805  1
  N  N347  1  0.71976788  0.90869194  0.53641688  1
  N  N348  1  0.05591174  0.59403757  0.04602608  1
  N  N349  1  0.68816569  0.76584375  0.04402746  1
  N  N350  1  0.73301756  0.57681936  0.53675087  1
  N  N351  1  0.48229084  0.25932725  0.46165465  1
  N  N352  1  0.28258857  0.09293409  0.03961110  1
  N  N353  1  0.79292986  0.24308183  0.53941527  1
  N  N354  1  0.45809623  0.92559241  0.03887507  1
  N  N355  1  0.04983715  0.25787620  0.45825051  1
  N  N356  1  0.03646249  0.40443576  0.96170238  1
  N  N357  1  0.69833549  0.42764051  0.04173763  1
  N  N358  1  0.28858475  0.09295549  0.46097553  1
  N  N359  1  0.27183782  0.24203097  0.53835497  1
  N  N360  1  0.06519614  0.05540770  0.60179148  1
  N  N361  1  0.06610233  0.39087865  0.59697985  1
  N  N362  1  0.06338909  0.71934281  0.59976811  1
  N  N363  1  0.56505822  0.05920384  0.59425996  1
  N  N364  1  0.56639468  0.38832473  0.59918609  1
  N  N365  1  0.55626575  0.72801688  0.58615802  1
  N  N366  1  0.43266981  0.27661853  0.09868336  1
  N  N367  1  0.42835636  0.61040184  0.10445283  1
  N  N368  1  0.43316081  0.94257927  0.09678645  1
  N  N369  1  0.93462427  0.27763615  0.09869442  1
  N  N370  1  0.93985632  0.60848724  0.09300811  1
  N  N371  1  0.92699904  0.94522544  0.10489148  1
  N  N372  1  0.43815764  0.05612703  0.90363311  1
  N  N373  1  0.44335465  0.39151908  0.90857182  1
  N  N374  1  0.44012508  0.72421189  0.90676734  1
  N  N375  1  0.93669896  0.05638502  0.90447146  1
  N  N376  1  0.93923392  0.38878573  0.89923708  1
  N  N377  1  0.94415232  0.72515366  0.90797483  1
  N  N378  1  0.06717145  0.27778461  0.39855717  1
  N  N379  1  0.05523990  0.60730081  0.41329285  1
  N  N380  1  0.05489212  0.94327055  0.41078884  1
  N  N381  1  0.57155175  0.27802303  0.39693622  1
  N  N382  1  0.55602786  0.60968646  0.40581546  1
  N  N383  1  0.56848977  0.94448475  0.39775423  1
  N  N384  1  0.30557206  0.22153446  0.59190746  1
  N  N385  1  0.31637620  0.55698158  0.59708498  1
  N  N386  1  0.31330977  0.88752420  0.59701488  1
  N  N387  1  0.81261759  0.22276946  0.59806129  1
  N  N388  1  0.82334822  0.55505269  0.60358932  1
  N  N389  1  0.81875399  0.89076173  0.60124975  1
  N  N390  1  0.18421188  0.10965538  0.10084232  1
  N  N391  1  0.17683388  0.44477535  0.10061168  1
  N  N392  1  0.17907144  0.77778535  0.10034195  1
  N  N393  1  0.68451119  0.10965314  0.09939476  1
  N  N394  1  0.68149368  0.44402542  0.10131187  1
  N  N395  1  0.67843175  0.78092926  0.10476693  1
  N  N396  1  0.19595581  0.22249468  0.91306296  1
  N  N397  1  0.19273765  0.55685285  0.90867238  1
  N  N398  1  0.19456705  0.88891826  0.90882865  1
  N  N399  1  0.68210234  0.22090837  0.89348700  1
  N  N400  1  0.68754989  0.55463678  0.89930214  1
  N  N401  1  0.69391479  0.89259312  0.91285125  1
  N  N402  1  0.31170212  0.10903714  0.40305316  1
  N  N403  1  0.30921204  0.44223823  0.40389043  1
  N  N404  1  0.32576672  0.77916948  0.39313729  1
  N  N405  1  0.81313863  0.11067056  0.40307104  1
  N  N406  1  0.81046953  0.44373306  0.40317254  1
  N  N407  1  0.81286849  0.77619280  0.40689161  1
  N  N408  1  0.44531301  0.27578521  0.40892302  1
  N  N409  1  0.42831694  0.61122000  0.39833188  1
  N  N410  1  0.44045810  0.94507317  0.41037666  1
  N  N411  1  0.93954549  0.27337764  0.40691443  1
  N  N412  1  0.92684395  0.61070844  0.39745310  1
  N  N413  1  0.92694664  0.94788959  0.39302060  1
  N  N414  1  0.06436564  0.05767361  0.90311418  1
  N  N415  1  0.06562824  0.39059100  0.90419036  1
  N  N416  1  0.07217176  0.72092291  0.89659841  1
  N  N417  1  0.56719223  0.05428879  0.90043929  1
  N  N418  1  0.57127326  0.38899158  0.89610914  1
  N  N419  1  0.56783484  0.72588001  0.90299496  1
  N  N420  1  0.06369329  0.28224252  0.09949811  1
  N  N421  1  0.06690245  0.61030214  0.10568466  1
  N  N422  1  0.05592953  0.94237308  0.09179414  1
  N  N423  1  0.56057958  0.27609299  0.09862247  1
  N  N424  1  0.55574623  0.61122552  0.08852734  1
  N  N425  1  0.55983166  0.94242018  0.09638385  1
  N  N426  1  0.43679655  0.05726705  0.59787218  1
  N  N427  1  0.43637036  0.39121946  0.59698479  1
  N  N428  1  0.42907662  0.72138724  0.59970064  1
  N  N429  1  0.93780869  0.05941125  0.59197862  1
  N  N430  1  0.93858943  0.38923995  0.59165651  1
  N  N431  1  0.93301551  0.72142496  0.59865555  1
  N  N432  1  0.18346461  0.10965486  0.40107359  1
  N  N433  1  0.18119081  0.44498687  0.40260681  1
  N  N434  1  0.19781129  0.77389063  0.41232333  1
  N  N435  1  0.68639782  0.11022842  0.40319071  1
  N  N436  1  0.68248186  0.44096682  0.40265205  1
  N  N437  1  0.68580611  0.77743385  0.39458526  1
  N  N438  1  0.32273189  0.22172043  0.89449136  1
  N  N439  1  0.32018365  0.55636802  0.89846631  1
  N  N440  1  0.32325589  0.89075445  0.90025784  1
  N  N441  1  0.81126700  0.22173002  0.90652872  1
  N  N442  1  0.81789784  0.55525698  0.90031696  1
  N  N443  1  0.82273102  0.88922730  0.89853095  1
  N  N444  1  0.31052404  0.10889195  0.09683283  1
  N  N445  1  0.30669995  0.44376224  0.09430644  1
  N  N446  1  0.30548698  0.77653543  0.09470928  1
  N  N447  1  0.81078119  0.10992548  0.09647625  1
  N  N448  1  0.80932842  0.44228483  0.09522407  1
  N  N449  1  0.80496576  0.77701509  0.09057989  1
  N  N450  1  0.17733315  0.22185245  0.60281049  1
  N  N451  1  0.18804543  0.55728707  0.59482721  1
  N  N452  1  0.18425901  0.89007575  0.59904394  1
  N  N453  1  0.68437698  0.22514951  0.59288055  1
  N  N454  1  0.69570072  0.55661476  0.58909819  1
  N  N455  1  0.69137463  0.89161843  0.59294116  1
  Cl  Cl456  1  0.24963033  0.05183126  0.61707889  1
  Cl  Cl457  1  0.24866151  0.38335230  0.62133573  1
  Cl  Cl458  1  0.24645253  0.71865323  0.61695009  1
  Cl  Cl459  1  0.75240059  0.05423702  0.62031158  1
  Cl  Cl460  1  0.75427422  0.38666131  0.61802476  1
  Cl  Cl461  1  0.74549656  0.72081017  0.61636433  1
  Cl  Cl462  1  0.24542966  0.27496592  0.11018743  1
  Cl  Cl463  1  0.24956851  0.61452658  0.12468460  1
  Cl  Cl464  1  0.24312480  0.94079020  0.11205211  1
  Cl  Cl465  1  0.74910878  0.27888544  0.11265490  1
  Cl  Cl466  1  0.74687801  0.60878597  0.11219923  1
  Cl  Cl467  1  0.74256339  0.94746773  0.11645933  1
  Cl  Cl468  1  0.24864625  0.04882402  0.88254298  1
  Cl  Cl469  1  0.25544959  0.38547203  0.88880021  1
  Cl  Cl470  1  0.25668395  0.72071474  0.88251587  1
  Cl  Cl471  1  0.75258664  0.05094192  0.88300319  1
  Cl  Cl472  1  0.75505789  0.38810578  0.88363811  1
  Cl  Cl473  1  0.75613326  0.72310345  0.88629063  1
  Cl  Cl474  1  0.26060691  0.27363118  0.39354101  1
  Cl  Cl475  1  0.24077977  0.61361749  0.38493759  1
  Cl  Cl476  1  0.25199353  0.93819142  0.39506683  1
  Cl  Cl477  1  0.75450198  0.28362722  0.37830758  1
  Cl  Cl478  1  0.73787819  0.60614782  0.38666952  1
  Cl  Cl479  1  0.74808627  0.94726394  0.37723508  1
  Cl  Cl480  1  -0.00453184  0.21663454  0.62783593  1
  Cl  Cl481  1  0.00506474  0.54872488  0.62368749  1
  Cl  Cl482  1  0.00296745  0.88751822  0.61920664  1
  Cl  Cl483  1  0.49041832  0.22472248  0.60258960  1
  Cl  Cl484  1  0.51126512  0.55980365  0.61477373  1
  Cl  Cl485  1  0.49751645  0.89151848  0.60385708  1
  Cl  Cl486  1  -0.00263988  0.11164526  0.10191704  1
  Cl  Cl487  1  -0.00766077  0.44808915  0.12621687  1
  Cl  Cl488  1  -0.00799959  0.77465304  0.11340809  1
  Cl  Cl489  1  0.49868584  0.10919054  0.10937581  1
  Cl  Cl490  1  0.49441034  0.44509797  0.11282265  1
  Cl  Cl491  1  0.49037330  0.77195734  0.10531446  1
  Cl  Cl492  1  0.00839451  0.22332472  0.90077987  1
  Cl  Cl493  1  0.00298212  0.55720493  0.88965664  1
  Cl  Cl494  1  0.01251230  0.88869113  0.88641068  1
  Cl  Cl495  1  0.50098170  0.21648212  0.87152259  1
  Cl  Cl496  1  0.50393786  0.56015820  0.88957280  1
  Cl  Cl497  1  0.50625708  0.88307130  0.87454662  1
  Cl  Cl498  1  -0.00282573  0.11495706  0.37670850  1
  Cl  Cl499  1  -0.00375760  0.44250724  0.39398920  1
  Cl  Cl500  1  0.00305890  0.77570685  0.38605918  1
  Cl  Cl501  1  0.50015237  0.11453742  0.37893998  1
  Cl  Cl502  1  0.49740998  0.44456797  0.38210752  1
  Cl  Cl503  1  0.50465779  0.78631880  0.37342998  1
  Cl  Cl504  1  0.36275887  0.14702479  0.75287202  1
  Cl  Cl505  1  0.36511554  0.47928189  0.75086180  1
  Cl  Cl506  1  0.36279669  0.81256371  0.74944685  1
  Cl  Cl507  1  0.86132934  0.14682434  0.75251482  1
  Cl  Cl508  1  0.86194032  0.48044427  0.74783118  1
  Cl  Cl509  1  0.86532587  0.81360448  0.75238273  1
  Cl  Cl510  1  0.13386921  0.18923541  0.24702518  1
  Cl  Cl511  1  0.13682471  0.52145141  0.24675184  1
  Cl  Cl512  1  0.13533848  0.85373136  0.24895928  1
  Cl  Cl513  1  0.63682460  0.18915593  0.24857040  1
  Cl  Cl514  1  0.63411675  0.52024347  0.24566802  1
  Cl  Cl515  1  0.63655174  0.85351960  0.24820198  1
  Cl  Cl516  1  0.13943530  0.14665987  0.75071357  1
  Cl  Cl517  1  0.14059583  0.47964543  0.75173907  1
  Cl  Cl518  1  0.14066858  0.81194732  0.74929481  1
  Cl  Cl519  1  0.63691623  0.14433577  0.75264735  1
  Cl  Cl520  1  0.63866346  0.47828298  0.75287546  1
  Cl  Cl521  1  0.63958258  0.81385144  0.74824471  1
  Cl  Cl522  1  0.35437040  0.18875207  0.25020083  1
  Cl  Cl523  1  0.36169275  0.52250883  0.25168985  1
  Cl  Cl524  1  0.35764045  0.85711678  0.25408191  1
  Cl  Cl525  1  0.86171311  0.18794535  0.24482402  1
  Cl  Cl526  1  0.85707014  0.52317125  0.25550841  1
  Cl  Cl527  1  0.86044766  0.85477262  0.24859311  1
  Cl  Cl528  1  0.11139001  0.31333491  0.74707599  1
  Cl  Cl529  1  0.11117011  0.64777954  0.75360065  1
  Cl  Cl530  1  0.11270862  0.98094205  0.74764129  1
  Cl  Cl531  1  0.61178231  0.31332368  0.75230263  1
  Cl  Cl532  1  0.61295139  0.64759493  0.75488870  1
  Cl  Cl533  1  0.61229364  0.97953314  0.74875880  1
  Cl  Cl534  1  0.38478697  0.02202668  0.24841211  1
  Cl  Cl535  1  0.38762263  0.35201924  0.24867328  1
  Cl  Cl536  1  0.38561444  0.68829718  0.25151787  1
  Cl  Cl537  1  0.88445023  0.02093623  0.24785841  1
  Cl  Cl538  1  0.89089093  0.35347685  0.25039584  1
  Cl  Cl539  1  0.88585786  0.68561604  0.25473738  1
  Cl  Cl540  1  0.39132229  0.31326217  0.75018979  1
  Cl  Cl541  1  0.39221703  0.64692862  0.74780707  1
  Cl  Cl542  1  0.38808263  0.97881354  0.74571841  1
  Cl  Cl543  1  0.89051957  0.31350217  0.75384070  1
  Cl  Cl544  1  0.88944623  0.64604576  0.75084462  1
  Cl  Cl545  1  0.89196713  0.97990110  0.75384966  1
  Cl  Cl546  1  0.10656177  0.02064195  0.24672847  1
  Cl  Cl547  1  0.11151732  0.35656493  0.25301897  1
  Cl  Cl548  1  0.11075700  0.68772546  0.24620926  1
  Cl  Cl549  1  0.60847946  0.02167224  0.25179947  1
  Cl  Cl550  1  0.61129407  0.35460801  0.24993978  1
  Cl  Cl551  1  0.60543109  0.68957074  0.24563315  1
