# generated using pymatgen
data_H8PbC4(N3Cl2)2
_symmetry_space_group_name_H-M   'P 1'
_cell_length_a   16.62277795
_cell_length_b   22.50046398
_cell_length_c   21.58864930
_cell_angle_alpha   89.99891723
_cell_angle_beta   89.99790989
_cell_angle_gamma   89.99980445
_symmetry_Int_Tables_number   1
_chemical_formula_structural   H8PbC4(N3Cl2)2
_chemical_formula_sum   'H192 Pb24 C96 N144 Cl96'
_cell_volume   8074.59127687
_cell_formula_units_Z   24
loop_
 _symmetry_equiv_pos_site_id
 _symmetry_equiv_pos_as_xyz
  1  'x, y, z'
loop_
 _atom_site_type_symbol
 _atom_site_label
 _atom_site_symmetry_multiplicity
 _atom_site_fract_x
 _atom_site_fract_y
 _atom_site_fract_z
 _atom_site_occupancy
  H  H0  1  0.00159079  0.03355980  0.68181525  1
  H  H1  1  0.00002582  0.36446597  0.68224873  1
  H  H2  1  -0.01024248  0.70131191  0.67852377  1
  H  H3  1  0.50267413  0.03355994  0.67946806  1
  H  H4  1  0.50069776  0.36406237  0.68061580  1
  H  H5  1  0.51108864  0.69912900  0.68277244  1
  H  H6  1  -0.00541554  0.30091334  0.18373745  1
  H  H7  1  -0.00088344  0.63555639  0.18033450  1
  H  H8  1  -0.00014080  0.96786891  0.18043827  1
  H  H9  1  0.49689053  0.30072535  0.18161309  1
  H  H10  1  0.49989592  0.63439040  0.17831944  1
  H  H11  1  0.50692207  0.96781623  0.17634803  1
  H  H12  1  0.00197555  0.03391456  0.82038181  1
  H  H13  1  0.00373116  0.36647621  0.81550035  1
  H  H14  1  -0.00449820  0.69843920  0.81959973  1
  H  H15  1  0.49721443  0.03124583  0.82068520  1
  H  H16  1  0.49318757  0.36594937  0.81999634  1
  H  H17  1  0.50349824  0.69954181  0.82002411  1
  H  H18  1  -0.00053692  0.30088166  0.31967153  1
  H  H19  1  -0.00309485  0.63315735  0.31643305  1
  H  H20  1  -0.00399695  0.96683445  0.32029408  1
  H  H21  1  0.50336813  0.30061846  0.31942213  1
  H  H22  1  0.50911808  0.63399078  0.31974659  1
  H  H23  1  0.50139950  0.96717831  0.31875738  1
  H  H24  1  0.24636267  0.19837559  0.67986795  1
  H  H25  1  0.24340397  0.53171208  0.68074936  1
  H  H26  1  0.25381338  0.86657512  0.68002131  1
  H  H27  1  0.75014599  0.20012999  0.67710841  1
  H  H28  1  0.75293589  0.52604475  0.67878211  1
  H  H29  1  0.75270372  0.86794014  0.68096986  1
  H  H30  1  0.25017449  0.13371871  0.18118869  1
  H  H31  1  0.24767412  0.46826873  0.18416235  1
  H  H32  1  0.25065520  0.80027799  0.18123273  1
  H  H33  1  0.74158325  0.13359354  0.17873530  1
  H  H34  1  0.75614392  0.46864765  0.18262575  1
  H  H35  1  0.74904287  0.80034715  0.18061851  1
  H  H36  1  0.25258295  0.19860911  0.81696230  1
  H  H37  1  0.24326814  0.53258390  0.82148093  1
  H  H38  1  0.24125151  0.86694547  0.82068011  1
  H  H39  1  0.75550549  0.19812609  0.81790967  1
  H  H40  1  0.75563235  0.53281484  0.82022432  1
  H  H41  1  0.75844314  0.86400269  0.82076892  1
  H  H42  1  0.24644047  0.13536914  0.32001331  1
  H  H43  1  0.25384198  0.46796474  0.31637723  1
  H  H44  1  0.25278207  0.80009862  0.31957606  1
  H  H45  1  0.74490947  0.13381439  0.32006465  1
  H  H46  1  0.74951475  0.46678715  0.31897170  1
  H  H47  1  0.74884022  0.80682568  0.32082103  1
  H  H48  1  0.12422116  0.05399181  0.61115291  1
  H  H49  1  0.12450220  0.38525645  0.61260065  1
  H  H50  1  0.12981592  0.71603155  0.62301678  1
  H  H51  1  0.62315578  0.05475958  0.60371442  1
  H  H52  1  0.62801842  0.38586018  0.61108609  1
  H  H53  1  0.62210661  0.72414426  0.60140526  1
  H  H54  1  0.37950095  0.27672112  0.10426298  1
  H  H55  1  0.37505493  0.61440304  0.10936407  1
  H  H56  1  0.37167384  0.94696418  0.11705253  1
  H  H57  1  0.88038395  0.27685532  0.10511870  1
  H  H58  1  0.87518581  0.61257484  0.10730396  1
  H  H59  1  0.87690408  0.94803476  0.10774469  1
  H  H60  1  0.37458762  0.05474750  0.89250977  1
  H  H61  1  0.38019399  0.39189174  0.89963082  1
  H  H62  1  0.37609827  0.71859082  0.88618267  1
  H  H63  1  0.87316071  0.05428195  0.88889684  1
  H  H64  1  0.87565371  0.38578908  0.88157798  1
  H  H65  1  0.87441657  0.72097278  0.89267870  1
  H  H66  1  0.12385655  0.27789066  0.39217133  1
  H  H67  1  0.12295133  0.61290229  0.38519409  1
  H  H68  1  0.13437732  0.94901480  0.37657783  1
  H  H69  1  0.62348281  0.27751642  0.39509545  1
  H  H70  1  0.61772263  0.60689581  0.40283762  1
  H  H71  1  0.63205083  0.94817744  0.38393601  1
  H  H72  1  0.37594705  0.21959327  0.61483608  1
  H  H73  1  0.37826921  0.55148440  0.62163480  1
  H  H74  1  0.36476717  0.88987655  0.59905061  1
  H  H75  1  0.87543122  0.21950877  0.60900116  1
  H  H76  1  0.87585241  0.55423698  0.60935275  1
  H  H77  1  0.86937635  0.89030435  0.60288357  1
  H  H78  1  0.12614851  0.11158792  0.10769544  1
  H  H79  1  0.12502405  0.44742146  0.11266532  1
  H  H80  1  0.12558080  0.78067969  0.11236904  1
  H  H81  1  0.62891900  0.10849302  0.09911047  1
  H  H82  1  0.62174681  0.44884897  0.11968321  1
  H  H83  1  0.62514372  0.77898041  0.10680422  1
  H  H84  1  0.12137184  0.21803104  0.87998356  1
  H  H85  1  0.12949500  0.55772191  0.89977650  1
  H  H86  1  0.13564379  0.88897335  0.90465271  1
  H  H87  1  0.62237652  0.21771470  0.88132388  1
  H  H88  1  0.62268071  0.55285326  0.88424879  1
  H  H89  1  0.62357041  0.88499613  0.88156768  1
  H  H90  1  0.37443674  0.11271124  0.38815332  1
  H  H91  1  0.37418571  0.44490107  0.39015580  1
  H  H92  1  0.36716231  0.77763193  0.39687148  1
  H  H93  1  0.87381536  0.11510728  0.38461044  1
  H  H94  1  0.87137947  0.44456304  0.39303093  1
  H  H95  1  0.87158816  0.77864652  0.39128782  1
  H  H96  1  0.37456201  0.27935562  0.38604314  1
  H  H97  1  0.37114172  0.61500519  0.37614638  1
  H  H98  1  0.38294712  0.94609939  0.39249579  1
  H  H99  1  0.87487432  0.27899472  0.39254799  1
  H  H100  1  0.87320599  0.60984413  0.38953439  1
  H  H101  1  0.88674142  0.94465582  0.40142004  1
  H  H102  1  0.12189878  0.05503618  0.89615226  1
  H  H103  1  0.12521709  0.38744933  0.88796437  1
  H  H104  1  0.12360665  0.71762057  0.88489521  1
  H  H105  1  0.62359598  0.05303121  0.89056619  1
  H  H106  1  0.62800590  0.38529471  0.88003755  1
  H  H107  1  0.62545124  0.71929982  0.89310978  1
  H  H108  1  0.12866395  0.28059434  0.12001020  1
  H  H109  1  0.12403278  0.61399163  0.10776373  1
  H  H110  1  0.12541743  0.94413436  0.11180546  1
  H  H111  1  0.62856996  0.28057329  0.11832994  1
  H  H112  1  0.62385668  0.61366678  0.10882683  1
  H  H113  1  0.61850059  0.94303370  0.09594490  1
  H  H114  1  0.37444279  0.05406185  0.61031436  1
  H  H115  1  0.37945295  0.38775061  0.60688774  1
  H  H116  1  0.37493691  0.71756638  0.62207760  1
  H  H117  1  0.87447014  0.05374156  0.61275048  1
  H  H118  1  0.87502455  0.38441203  0.61275497  1
  H  H119  1  0.88499997  0.72854053  0.59307650  1
  H  H120  1  0.12543400  0.11191833  0.39297396  1
  H  H121  1  0.12511651  0.44676190  0.38539853  1
  H  H122  1  0.11897393  0.78175472  0.38089567  1
  H  H123  1  0.62474833  0.11240618  0.39497519  1
  H  H124  1  0.62273588  0.44584012  0.38659300  1
  H  H125  1  0.62272351  0.78018092  0.38839549  1
  H  H126  1  0.37033094  0.21996831  0.89264152  1
  H  H127  1  0.37736881  0.55238223  0.88275547  1
  H  H128  1  0.38174567  0.88259052  0.87420937  1
  H  H129  1  0.86943992  0.22253167  0.89850354  1
  H  H130  1  0.87029068  0.55758297  0.89915370  1
  H  H131  1  0.87049895  0.89012115  0.90269884  1
  H  H132  1  0.37503855  0.11162918  0.10867916  1
  H  H133  1  0.37494035  0.44875042  0.11731052  1
  H  H134  1  0.37464315  0.78079811  0.11090382  1
  H  H135  1  0.87645202  0.11423200  0.11785276  1
  H  H136  1  0.86991565  0.44511182  0.10324449  1
  H  H137  1  0.87404868  0.77867598  0.10818936  1
  H  H138  1  0.12725697  0.22154545  0.60379590  1
  H  H139  1  0.13105149  0.55856868  0.60027017  1
  H  H140  1  0.11711115  0.88554673  0.62103332  1
  H  H141  1  0.62634227  0.21988523  0.60782679  1
  H  H142  1  0.62735316  0.55475456  0.61110787  1
  H  H143  1  0.62124179  0.88617922  0.61416062  1
  H  H144  1  0.95395745  0.91975796  0.50958272  1
  H  H145  1  0.80143953  0.24629403  1.00094402  1
  H  H146  1  0.67934609  0.76862406  0.49551339  1
  H  H147  1  0.07873082  0.08366455  0.50028714  1
  H  H148  1  0.96224538  0.74645165  0.49270731  1
  H  H149  1  0.07502755  0.93487582  0.00399434  1
  H  H150  1  0.20706702  0.91374531  1.01101387  1
  H  H151  1  0.15380476  0.24536433  0.99283038  1
  H  H152  1  0.29804075  0.91597632  0.49206725  1
  H  H153  1  0.33301380  0.42430449  0.00304868  1
  H  H154  1  0.07322945  0.40755596  1.00139349  1
  H  H155  1  0.35291757  0.58114304  0.50844085  1
  H  H156  1  0.79856647  0.91336005  1.00429940  1
  H  H157  1  0.80282310  0.42248606  -0.00514568  1
  H  H158  1  0.08771350  0.74661952  0.99768090  1
  H  H159  1  0.94385595  0.25131169  -0.00218923  1
  H  H160  1  0.34654605  0.58370148  0.98927699  1
  H  H161  1  0.65728999  0.58174564  0.98956915  1
  H  H162  1  0.41404634  0.25130236  0.49658986  1
  H  H163  1  0.55278252  0.74977259  0.49531560  1
  H  H164  1  0.93270805  0.90681680  0.00915630  1
  H  H165  1  0.19771848  0.57651203  0.49649674  1
  H  H166  1  0.08107184  0.41159042  0.50130530  1
  H  H167  1  0.58305291  0.41208766  0.50599939  1
  H  H168  1  0.54495702  0.58364927  0.50410881  1
  H  H169  1  0.39757622  0.91626628  0.00759310  1
  H  H170  1  0.31467783  0.24350589  1.00336906  1
  H  H171  1  0.83942227  0.08788067  0.49828117  1
  H  H172  1  0.91594656  0.41191051  0.99572005  1
  H  H173  1  0.14020769  0.91563900  0.51115599  1
  H  H174  1  0.07845151  0.59112246  0.49879178  1
  H  H175  1  0.31011347  0.74993010  0.50482901  1
  H  H176  1  0.91740412  0.41024437  0.50153707  1
  H  H177  1  0.32037158  0.41566356  0.49789938  1
  H  H178  1  0.17558139  0.42705481  -0.00106450  1
  H  H179  1  0.68301107  0.57045079  0.50525472  1
  H  H180  1  0.91725966  0.08166939  0.99428860  1
  H  H181  1  0.80473810  0.92049964  0.50033587  1
  H  H182  1  0.92453496  0.58973170  0.49591993  1
  H  H183  1  0.41367604  0.74718976  0.99903161  1
  H  H184  1  0.81198666  0.76313335  0.49764029  1
  H  H185  1  0.44872778  0.41848612  1.00268753  1
  H  H186  1  0.11209861  0.74799302  0.51384733  1
  H  H187  1  0.43715105  0.91885193  0.50396640  1
  H  H188  1  0.42058980  0.08233161  0.50507183  1
  H  H189  1  0.43964604  0.24823682  0.00128371  1
  H  H190  1  0.80976178  0.55841517  0.50306258  1
  H  H191  1  0.59495482  0.25079765  0.00667155  1
  Pb  Pb192  1  0.24986239  0.04569261  0.75040120  1
  Pb  Pb193  1  0.25051874  0.37956925  0.75136508  1
  Pb  Pb194  1  0.24955045  0.71396471  0.75232269  1
  Pb  Pb195  1  0.74445578  0.04825063  0.74942100  1
  Pb  Pb196  1  0.75003774  0.37887670  0.74889909  1
  Pb  Pb197  1  0.74918881  0.71496282  0.74183768  1
  Pb  Pb198  1  0.24898121  0.28610424  0.24901871  1
  Pb  Pb199  1  0.24891099  0.62004455  0.24930352  1
  Pb  Pb200  1  0.25407927  0.95206046  0.25185145  1
  Pb  Pb201  1  0.75512642  0.28448311  0.24657617  1
  Pb  Pb202  1  0.74785450  0.61776590  0.25378060  1
  Pb  Pb203  1  0.75101280  0.95556510  0.24849088  1
  Pb  Pb204  1  -0.00070522  0.21208219  0.75172848  1
  Pb  Pb205  1  0.00081262  0.54773106  0.74710128  1
  Pb  Pb206  1  -0.00427474  0.88279211  0.75845273  1
  Pb  Pb207  1  0.49647826  0.21343486  0.75495911  1
  Pb  Pb208  1  0.50080851  0.54624511  0.74640142  1
  Pb  Pb209  1  0.49826394  0.88001898  0.74675254  1
  Pb  Pb210  1  0.00508164  0.11838809  0.24855921  1
  Pb  Pb211  1  -0.00202952  0.45218307  0.24960112  1
  Pb  Pb212  1  -0.00252027  0.78692367  0.25260068  1
  Pb  Pb213  1  0.50037778  0.12092829  0.25024440  1
  Pb  Pb214  1  0.49973604  0.45030906  0.25066137  1
  Pb  Pb215  1  0.50165846  0.78656495  0.25125609  1
  C  C216  1  0.00059732  0.04725788  0.63371939  1
  C  C217  1  -0.00009383  0.37892091  0.63427179  1
  C  C218  1  0.00178427  0.71482983  0.63091924  1
  C  C219  1  0.49972878  0.04780664  0.63149360  1
  C  C220  1  0.50306674  0.37943441  0.63303757  1
  C  C221  1  0.50259731  0.71351751  0.63525395  1
  C  C222  1  0.00161284  0.28625056  0.13615845  1
  C  C223  1  -0.00060311  0.62097525  0.13245627  1
  C  C224  1  0.00078679  0.95325807  0.13241585  1
  C  C225  1  0.50150894  0.28603204  0.13376120  1
  C  C226  1  0.49967245  0.62058497  0.13030115  1
  C  C227  1  0.49855399  0.95304858  0.12906720  1
  C  C228  1  -0.00139858  0.04793113  0.86835913  1
  C  C229  1  0.00149139  0.38046365  0.86362398  1
  C  C230  1  -0.00157012  0.71287847  0.86736771  1
  C  C231  1  0.49869811  0.04646559  0.86811492  1
  C  C232  1  0.50026826  0.38029075  0.86754397  1
  C  C233  1  0.50114101  0.71274793  0.86820065  1
  C  C234  1  -0.00061107  0.28604250  0.36746956  1
  C  C235  1  -0.00298132  0.61933889  0.36470389  1
  C  C236  1  0.00557193  0.95337823  0.36801817  1
  C  C237  1  0.50055001  0.28582077  0.36711576  1
  C  C238  1  0.49966589  0.61982263  0.36723519  1
  C  C239  1  0.50521325  0.95368730  0.36677638  1
  C  C240  1  0.24969628  0.21315699  0.63238248  1
  C  C241  1  0.25065700  0.54609893  0.63294712  1
  C  C242  1  0.24448382  0.88093173  0.63243946  1
  C  C243  1  0.75062880  0.21375705  0.62871750  1
  C  C244  1  0.75196758  0.54359707  0.63193070  1
  C  C245  1  0.74783915  0.88206128  0.63305669  1
  C  C246  1  0.25042036  0.11927091  0.13321606  1
  C  C247  1  0.24922015  0.45410869  0.13612336  1
  C  C248  1  0.25026841  0.78688670  0.13308943  1
  C  C249  1  0.74934224  0.11909979  0.13141583  1
  C  C250  1  0.74900812  0.45412421  0.13507322  1
  C  C251  1  0.74950784  0.78614459  0.13261797  1
  C  C252  1  0.24777483  0.21273492  0.86492391  1
  C  C253  1  0.25042364  0.54752333  0.86888073  1
  C  C254  1  0.25264427  0.87959745  0.86836820  1
  C  C255  1  0.74924320  0.21232794  0.86569928  1
  C  C256  1  0.74917518  0.54770723  0.86774457  1
  C  C257  1  0.75141032  0.87884614  0.86826002  1
  C  C258  1  0.24908225  0.12027627  0.36743975  1
  C  C259  1  0.25074848  0.45290329  0.36405540  1
  C  C260  1  0.24657224  0.78653157  0.36751676  1
  C  C261  1  0.74841221  0.12034010  0.36810881  1
  C  C262  1  0.74810885  0.45237147  0.36664632  1
  C  C263  1  0.74761580  0.78981745  0.36795838  1
  C  C264  1  0.45690613  0.73696660  0.96193299  1
  C  C265  1  0.27961733  0.23583766  0.96154642  1
  C  C266  1  0.95593346  0.40296622  0.95693450  1
  C  C267  1  0.04368407  0.73794518  0.96057551  1
  C  C268  1  0.98539879  0.92908783  0.46639512  1
  C  C269  1  0.54010421  0.59544887  0.03701853  1
  C  C270  1  0.71341022  0.09641411  0.46349445  1
  C  C271  1  0.45843251  0.59562373  0.03731472  1
  C  C272  1  0.55436882  0.92958826  0.45809364  1
  C  C273  1  0.43867340  0.59391474  0.45452161  1
  C  C274  1  0.97647683  0.26136358  0.04043507  1
  C  C275  1  0.22218657  0.57670595  0.96503521  1
  C  C276  1  0.03822538  0.07295247  0.53865584  1
  C  C277  1  0.30679608  0.57192372  0.54431160  1
  C  C278  1  0.79161483  0.23772078  0.53664549  1
  C  C279  1  0.21494310  0.09265681  0.46115885  1
  C  C280  1  0.06594026  0.93062842  0.45612474  1
  C  C281  1  0.52419297  0.92348386  0.03279407  1
  C  C282  1  0.20838073  0.76199721  0.04003226  1
  C  C283  1  0.70597475  0.42588016  0.45887487  1
  C  C284  1  0.53849249  0.73624696  0.96312736  1
  C  C285  1  0.19236588  0.76316919  0.45784860  1
  C  C286  1  0.55693068  0.40779767  0.95640275  1
  C  C287  1  0.03783940  0.40233588  0.95943407  1
  C  C288  1  0.52311406  0.73938470  0.53898100  1
  C  C289  1  0.19764713  0.23579138  0.95680218  1
  C  C290  1  0.23667928  0.90403802  0.96717502  1
  C  C291  1  0.04045887  0.59689253  0.45818454  1
  C  C292  1  0.46345153  0.07552627  0.96066020  1
  C  C293  1  0.71143980  0.23789963  0.53627473  1
  C  C294  1  0.96210725  0.73912931  0.96181121  1
  C  C295  1  0.04061347  0.40267731  0.53980126  1
  C  C296  1  0.47307950  0.92855981  0.46305198  1
  C  C297  1  0.26776526  0.90654622  0.53570072  1
  C  C298  1  0.27349592  0.76090950  0.46468108  1
  C  C299  1  0.28332423  0.42700327  0.45807901  1
  C  C300  1  0.29464388  0.24021353  0.54141858  1
  C  C301  1  0.29042635  0.76212889  0.03952312  1
  C  C302  1  0.55223378  0.26106065  0.04320322  1
  C  C303  1  0.95665828  0.07202501  0.54078909  1
  C  C304  1  0.72555378  0.09049459  0.03622426  1
  C  C305  1  0.77256403  0.42987602  0.03885131  1
  C  C306  1  0.79492606  0.09684310  0.46144438  1
  C  C307  1  0.95839158  0.40216624  0.53989309  1
  C  C308  1  0.21153648  0.43213363  0.04063625  1
  C  C309  1  0.45752372  0.26098190  0.45898441  1
  C  C310  1  0.29358265  0.43188655  0.04244998  1
  C  C311  1  0.31675749  0.90158022  0.95491622  1
  N  N312  1  0.21703183  0.24128570  0.53667680  1
  N  N313  1  0.96190831  0.59539162  0.03827344  1
  N  N314  1  0.51682993  0.59184710  0.46268553  1
  N  N315  1  0.05542251  0.26239043  0.04544819  1
  N  N316  1  0.44606920  0.92561349  0.04089082  1
  N  N317  1  0.78835836  0.76097234  0.03870467  1
  N  N318  1  0.96322190  0.93489706  0.03827454  1
  N  N319  1  0.71214990  0.76105089  0.03830233  1
  N  N320  1  0.78616283  0.75131758  0.45593059  1
  N  N321  1  0.79298336  0.58068985  0.54283517  1
  N  N322  1  0.78393006  0.42585053  0.46231124  1
  N  N323  1  0.29286375  0.09247622  0.46049689  1
  N  N324  1  0.69374008  0.42989469  0.04485774  1
  N  N325  1  0.03805932  0.59592472  0.03843860  1
  N  N326  1  0.06276355  0.73330256  0.54435154  1
  N  N327  1  0.44439516  0.73770207  0.54607941  1
  N  N328  1  0.03536995  0.07153514  0.96347562  1
  N  N329  1  0.77490252  0.90336091  0.53814189  1
  N  N330  1  0.47845767  0.40908944  0.96226092  1
  N  N331  1  0.77931598  0.57388176  0.96361421  1
  N  N332  1  0.20394109  0.42853303  0.45709543  1
  N  N333  1  0.77244675  0.23976776  0.95947701  1
  N  N334  1  0.18893246  0.90576970  0.54452811  1
  N  N335  1  0.95723303  0.07098869  0.95946506  1
  N  N336  1  0.54082472  0.07494291  0.96138923  1
  N  N337  1  0.53685787  0.26026431  0.46271011  1
  N  N338  1  0.69434717  0.90500964  0.95641124  1
  N  N339  1  0.69694042  0.90197024  0.54116279  1
  N  N340  1  0.03748200  0.25976885  0.46134311  1
  N  N341  1  0.21285453  0.09374299  0.03900192  1
  N  N342  1  0.77186150  0.90713940  0.96198019  1
  N  N343  1  0.22748671  0.57451919  0.53814546  1
  N  N344  1  0.54296198  0.40491268  0.54204642  1
  N  N345  1  0.69469107  0.23732537  0.95499920  1
  N  N346  1  0.96141391  0.26014351  0.46142111  1
  N  N347  1  0.45922330  0.07022472  0.53995978  1
  N  N348  1  0.70461217  0.75233764  0.45538655  1
  N  N349  1  0.04252128  0.92342281  0.04248415  1
  N  N350  1  0.80297079  0.09281198  0.04077949  1
  N  N351  1  0.30057556  0.57428293  0.95778030  1
  N  N352  1  0.96082189  0.59601988  0.45841260  1
  N  N353  1  0.47280989  0.26063199  0.03913824  1
  N  N354  1  0.70987509  0.58467407  0.54574847  1
  N  N355  1  0.53728838  0.07127219  0.53647068  1
  N  N356  1  0.46454325  0.40547947  0.53894200  1
  N  N357  1  0.98608449  0.74693502  0.53702641  1
  N  N358  1  0.28902753  0.09380805  0.03927572  1
  N  N359  1  0.70143817  0.57192690  0.95676362  1
  N  N360  1  0.06437118  0.05712166  0.59770915  1
  N  N361  1  0.06490800  0.38858221  0.59886079  1
  N  N362  1  0.07289913  0.72312484  0.60483873  1
  N  N363  1  0.56199414  0.05654515  0.59360302  1
  N  N364  1  0.56753238  0.38848418  0.59856921  1
  N  N365  1  0.56064331  0.72446804  0.59336571  1
  N  N366  1  0.44146875  0.27560714  0.09510877  1
  N  N367  1  0.43453206  0.61089147  0.09474383  1
  N  N368  1  0.42980968  0.94423461  0.10010427  1
  N  N369  1  0.94205062  0.27579862  0.09574568  1
  N  N370  1  0.93631533  0.61101944  0.09648194  1
  N  N371  1  0.93756379  0.94110565  0.09744267  1
  N  N372  1  0.43469096  0.05832535  0.90458029  1
  N  N373  1  0.44205686  0.39069264  0.90789513  1
  N  N374  1  0.43498849  0.72212898  0.90168339  1
  N  N375  1  0.93336439  0.05728555  0.90183625  1
  N  N376  1  0.93471322  0.38942304  0.89717863  1
  N  N377  1  0.93480703  0.72411634  0.90555658  1
  N  N378  1  0.06275134  0.27564261  0.40303020  1
  N  N379  1  0.06318669  0.61077640  0.39994788  1
  N  N380  1  0.07760642  0.94505994  0.39617967  1
  N  N381  1  0.56196623  0.27569937  0.40483318  1
  N  N382  1  0.55571357  0.61009196  0.40940264  1
  N  N383  1  0.57345405  0.94466668  0.40004225  1
  N  N384  1  0.31704563  0.22335227  0.59929005  1
  N  N385  1  0.32096693  0.55571707  0.60357807  1
  N  N386  1  0.30293963  0.89128057  0.59019629  1
  N  N387  1  0.81648072  0.22315747  0.59317300  1
  N  N388  1  0.81562603  0.55355544  0.59674992  1
  N  N389  1  0.80759399  0.89363438  0.59440447  1
  N  N390  1  0.18728885  0.10950537  0.09717834  1
  N  N391  1  0.18506109  0.44560284  0.09929102  1
  N  N392  1  0.18492909  0.77717009  0.09746139  1
  N  N393  1  0.69029207  0.10645711  0.09033607  1
  N  N394  1  0.68090014  0.44521980  0.10460170  1
  N  N395  1  0.68637440  0.77668676  0.09642652  1
  N  N396  1  0.17946695  0.22170633  0.89661959  1
  N  N397  1  0.19058456  0.55987832  0.90997187  1
  N  N398  1  0.19732393  0.88992376  0.91178127  1
  N  N399  1  0.68091285  0.22168552  0.89615883  1
  N  N400  1  0.68195974  0.55668637  0.89889526  1
  N  N401  1  0.68225806  0.88894292  0.89746985  1
  N  N402  1  0.31398481  0.10998518  0.40091792  1
  N  N403  1  0.31346738  0.44200021  0.40143262  1
  N  N404  1  0.30621529  0.77589795  0.40714837  1
  N  N405  1  0.81534138  0.11173902  0.40089077  1
  N  N406  1  0.81013401  0.44238230  0.40337499  1
  N  N407  1  0.81062922  0.77845398  0.40349434  1
  N  N408  1  0.43392201  0.27647617  0.40063251  1
  N  N409  1  0.42771368  0.61054082  0.39522219  1
  N  N410  1  0.44345255  0.94358729  0.40479106  1
  N  N411  1  0.93601361  0.27639770  0.40335783  1
  N  N412  1  0.93395564  0.61121054  0.40099226  1
  N  N413  1  0.94858397  0.94340228  0.41008152  1
  N  N414  1  0.06064577  0.05718072  0.90633324  1
  N  N415  1  0.06513239  0.38876913  0.90101608  1
  N  N416  1  0.06489761  0.72196535  0.90050784  1
  N  N417  1  0.56302093  0.05651432  0.90246405  1
  N  N418  1  0.57058836  0.39026776  0.89783406  1
  N  N419  1  0.56511160  0.72191658  0.90652572  1
  N  N420  1  0.06936436  0.27774635  0.10532583  1
  N  N421  1  0.06299553  0.61171702  0.09673386  1
  N  N422  1  0.06550805  0.94669523  0.09744891  1
  N  N423  1  0.57029475  0.27708908  0.10187491  1
  N  N424  1  0.56434086  0.61060234  0.09430852  1
  N  N425  1  0.55735193  0.94055917  0.08716879  1
  N  N426  1  0.43476902  0.05748091  0.59768001  1
  N  N427  1  0.44053741  0.39029126  0.59613327  1
  N  N428  1  0.43366678  0.72193962  0.60591759  1
  N  N429  1  0.93420338  0.05652494  0.59826141  1
  N  N430  1  0.93468992  0.38771623  0.59892008  1
  N  N431  1  0.94722086  0.72488890  0.58712750  1
  N  N432  1  0.18602647  0.10914329  0.40496020  1
  N  N433  1  0.18548546  0.44412622  0.39804571  1
  N  N434  1  0.17664804  0.77839546  0.39865604  1
  N  N435  1  0.68541528  0.11032096  0.40708649  1
  N  N436  1  0.68204686  0.44205655  0.40109753  1
  N  N437  1  0.68298290  0.77944164  0.40189704  1
  N  N438  1  0.30938379  0.22181785  0.90381734  1
  N  N439  1  0.31859607  0.55649015  0.89866412  1
  N  N440  1  0.32564295  0.88686416  0.89498648  1
  N  N441  1  0.80729964  0.22247470  0.90616828  1
  N  N442  1  0.80869611  0.55857363  0.90765075  1
  N  N443  1  0.80866910  0.88883522  0.90954889  1
  N  N444  1  0.31400029  0.10933635  0.09764973  1
  N  N445  1  0.31560333  0.44552913  0.10204225  1
  N  N446  1  0.31487688  0.77728788  0.09677802  1
  N  N447  1  0.81769921  0.11073084  0.10169302  1
  N  N448  1  0.80833905  0.44385410  0.09411880  1
  N  N449  1  0.81312377  0.77622699  0.09715922  1
  N  N450  1  0.18893043  0.22398058  0.59467348  1
  N  N451  1  0.19275449  0.55521547  0.59197120  1
  N  N452  1  0.17520962  0.89014552  0.60406518  1
  N  N453  1  0.68552858  0.22342694  0.59245120  1
  N  N454  1  0.68787489  0.55606219  0.59814682  1
  N  N455  1  0.68064589  0.88809375  0.60008202  1
  Cl  Cl456  1  0.25176417  0.05053111  0.61777826  1
  Cl  Cl457  1  0.25561580  0.38628828  0.61842653  1
  Cl  Cl458  1  0.25138348  0.71647569  0.61770109  1
  Cl  Cl459  1  0.74786795  0.05291548  0.61527750  1
  Cl  Cl460  1  0.74850201  0.38663769  0.61771693  1
  Cl  Cl461  1  0.75776535  0.73203266  0.59732718  1
  Cl  Cl462  1  0.25720182  0.27874843  0.11352329  1
  Cl  Cl463  1  0.24805834  0.61394783  0.11642409  1
  Cl  Cl464  1  0.24579743  0.94282654  0.11768708  1
  Cl  Cl465  1  0.75820027  0.27499989  0.10824276  1
  Cl  Cl466  1  0.75127751  0.61209746  0.12201353  1
  Cl  Cl467  1  0.75340361  0.94508089  0.10879771  1
  Cl  Cl468  1  0.24650737  0.05088357  0.88084235  1
  Cl  Cl469  1  0.25602776  0.39184693  0.88632972  1
  Cl  Cl470  1  0.24994277  0.71515086  0.87980028  1
  Cl  Cl471  1  0.75009239  0.05268273  0.88293039  1
  Cl  Cl472  1  0.75298618  0.38519018  0.88309265  1
  Cl  Cl473  1  0.74906827  0.71666412  0.87290317  1
  Cl  Cl474  1  0.24785087  0.28077402  0.37911465  1
  Cl  Cl475  1  0.24437988  0.60882999  0.38847573  1
  Cl  Cl476  1  0.25968521  0.94535852  0.38578759  1
  Cl  Cl477  1  0.75016046  0.28161943  0.37868187  1
  Cl  Cl478  1  0.74452546  0.60148389  0.40131781  1
  Cl  Cl479  1  0.76247125  0.94297559  0.38701245  1
  Cl  Cl480  1  0.00350683  0.21777642  0.62336580  1
  Cl  Cl481  1  0.00173985  0.56252653  0.60335876  1
  Cl  Cl482  1  -0.01021109  0.88462709  0.62015641  1
  Cl  Cl483  1  0.49922163  0.21868501  0.62351130  1
  Cl  Cl484  1  0.50706829  0.55614540  0.60691798  1
  Cl  Cl485  1  0.49113072  0.88779057  0.61380116  1
  Cl  Cl486  1  0.00146669  0.11091500  0.11428114  1
  Cl  Cl487  1  -0.00382782  0.44479595  0.11602542  1
  Cl  Cl488  1  -0.00199498  0.78432827  0.12052066  1
  Cl  Cl489  1  0.50037052  0.11454160  0.11791146  1
  Cl  Cl490  1  0.49571992  0.44498214  0.11355178  1
  Cl  Cl491  1  0.50165219  0.78225305  0.11831560  1
  Cl  Cl492  1  -0.01080693  0.22105097  0.88832309  1
  Cl  Cl493  1  -0.00083226  0.55415270  0.87783242  1
  Cl  Cl494  1  -0.00241940  0.89310110  0.90106141  1
  Cl  Cl495  1  0.49408522  0.22374888  0.89325652  1
  Cl  Cl496  1  0.50085002  0.54993694  0.87840664  1
  Cl  Cl497  1  0.50393948  0.88560578  0.87955920  1
  Cl  Cl498  1  0.00255399  0.11192587  0.38021932  1
  Cl  Cl499  1  -0.00212707  0.44788913  0.38489601  1
  Cl  Cl500  1  -0.00975211  0.77384011  0.39556693  1
  Cl  Cl501  1  0.49828346  0.11130130  0.38472364  1
  Cl  Cl502  1  0.49932735  0.44889122  0.38356697  1
  Cl  Cl503  1  0.50013728  0.77835867  0.38690762  1
  Cl  Cl504  1  0.36220187  0.14413802  0.74923575  1
  Cl  Cl505  1  0.36477052  0.47816563  0.74758455  1
  Cl  Cl506  1  0.36126560  0.81073782  0.75068389  1
  Cl  Cl507  1  0.86295718  0.14409685  0.74806891  1
  Cl  Cl508  1  0.85998719  0.47919639  0.74871552  1
  Cl  Cl509  1  0.86309809  0.81044459  0.74858072  1
  Cl  Cl510  1  0.13773804  0.19124735  0.24697899  1
  Cl  Cl511  1  0.13933499  0.52377980  0.25298351  1
  Cl  Cl512  1  0.13486659  0.85604903  0.25333177  1
  Cl  Cl513  1  0.63600437  0.18986667  0.24975611  1
  Cl  Cl514  1  0.63865581  0.52393628  0.25009733  1
  Cl  Cl515  1  0.63787837  0.85546293  0.25294666  1
  Cl  Cl516  1  0.13628654  0.14382772  0.75235642  1
  Cl  Cl517  1  0.13969391  0.47882443  0.74935629  1
  Cl  Cl518  1  0.13879547  0.80989835  0.74558167  1
  Cl  Cl519  1  0.63943630  0.14407632  0.75216924  1
  Cl  Cl520  1  0.63688007  0.47785365  0.74938037  1
  Cl  Cl521  1  0.63975269  0.81085413  0.74665982  1
  Cl  Cl522  1  0.36401342  0.18965291  0.25125766  1
  Cl  Cl523  1  0.36068585  0.52412057  0.25015108  1
  Cl  Cl524  1  0.36098820  0.85564736  0.24890690  1
  Cl  Cl525  1  0.85994877  0.19028290  0.24672760  1
  Cl  Cl526  1  0.86202329  0.52340431  0.25569806  1
  Cl  Cl527  1  0.86249871  0.85505536  0.25046949  1
  Cl  Cl528  1  0.11309958  0.31135055  0.75268307  1
  Cl  Cl529  1  0.11290390  0.64359914  0.74457521  1
  Cl  Cl530  1  0.11192121  0.97575314  0.74975367  1
  Cl  Cl531  1  0.61253153  0.31127331  0.75416957  1
  Cl  Cl532  1  0.61261450  0.64512046  0.74706391  1
  Cl  Cl533  1  0.61180138  0.97728403  0.74922407  1
  Cl  Cl534  1  0.38709874  0.02176776  0.24750658  1
  Cl  Cl535  1  0.39055927  0.35792249  0.24931654  1
  Cl  Cl536  1  0.38760247  0.68821784  0.25205285  1
  Cl  Cl537  1  0.88861486  0.02166628  0.24637975  1
  Cl  Cl538  1  0.88852117  0.35667516  0.25065733  1
  Cl  Cl539  1  0.88777094  0.68894652  0.25623193  1
  Cl  Cl540  1  0.39021675  0.31123320  0.75071731  1
  Cl  Cl541  1  0.38644390  0.64360448  0.74566946  1
  Cl  Cl542  1  0.38652799  0.97611993  0.75045534  1
  Cl  Cl543  1  0.88746351  0.31201208  0.75204242  1
  Cl  Cl544  1  0.88935569  0.64515767  0.74420226  1
  Cl  Cl545  1  0.89073160  0.97600629  0.75088052  1
  Cl  Cl546  1  0.11112013  0.02282007  0.25118535  1
  Cl  Cl547  1  0.11416762  0.35702291  0.24766028  1
  Cl  Cl548  1  0.11146783  0.68937239  0.25300672  1
  Cl  Cl549  1  0.61299623  0.02147133  0.25095102  1
  Cl  Cl550  1  0.61017697  0.35792462  0.24784552  1
  Cl  Cl551  1  0.61219585  0.68861842  0.25296751  1
