# generated using pymatgen
data_H8PbC4(N3Cl2)2
_symmetry_space_group_name_H-M   'P 1'
_cell_length_a   16.63019155
_cell_length_b   22.52522804
_cell_length_c   21.59906062
_cell_angle_alpha   89.99946405
_cell_angle_beta   90.00377892
_cell_angle_gamma   89.99760783
_symmetry_Int_Tables_number   1
_chemical_formula_structural   H8PbC4(N3Cl2)2
_chemical_formula_sum   'H192 Pb24 C96 N144 Cl96'
_cell_volume   8090.98339798
_cell_formula_units_Z   24
loop_
 _symmetry_equiv_pos_site_id
 _symmetry_equiv_pos_as_xyz
  1  'x, y, z'
loop_
 _atom_site_type_symbol
 _atom_site_label
 _atom_site_symmetry_multiplicity
 _atom_site_fract_x
 _atom_site_fract_y
 _atom_site_fract_z
 _atom_site_occupancy
  H  H0  1  -0.00099745  0.02953311  0.67823387  1
  H  H1  1  -0.00452337  0.36138419  0.67442189  1
  H  H2  1  -0.00084591  0.69328225  0.67905532  1
  H  H3  1  0.50076947  0.02761077  0.67685826  1
  H  H4  1  0.51162449  0.36589829  0.68486435  1
  H  H5  1  0.50574421  0.69743909  0.67747336  1
  H  H6  1  0.00005786  0.29948686  0.17912414  1
  H  H7  1  -0.00275623  0.63895676  0.17922219  1
  H  H8  1  -0.00634008  0.97230187  0.17646589  1
  H  H9  1  0.50337967  0.30623688  0.17918220  1
  H  H10  1  0.50932177  0.64083906  0.18062167  1
  H  H11  1  0.51267628  0.97036470  0.17639427  1
  H  H12  1  -0.01104921  0.02804513  0.82050276  1
  H  H13  1  -0.01163777  0.35803621  0.82135724  1
  H  H14  1  0.00918774  0.69514147  0.82482070  1
  H  H15  1  0.50782484  0.02717290  0.82091478  1
  H  H16  1  0.50822094  0.35876280  0.82134556  1
  H  H17  1  0.50641923  0.69122441  0.82408385  1
  H  H18  1  -0.00068795  0.30675368  0.32803540  1
  H  H19  1  0.00301590  0.64113974  0.32113199  1
  H  H20  1  0.01522751  0.97166893  0.32604915  1
  H  H21  1  0.50433207  0.30444799  0.31864230  1
  H  H22  1  0.49404333  0.64208371  0.31994927  1
  H  H23  1  0.49656500  0.96994608  0.32187496  1
  H  H24  1  0.26307977  0.20005843  0.67888787  1
  H  H25  1  0.25960574  0.53401162  0.68135327  1
  H  H26  1  0.23831097  0.85737201  0.67673171  1
  H  H27  1  0.72871003  0.19906212  0.68131977  1
  H  H28  1  0.74010879  0.52567199  0.67415052  1
  H  H29  1  0.75779826  0.85826303  0.67295213  1
  H  H30  1  0.25552152  0.13914454  0.17120440  1
  H  H31  1  0.25891946  0.46714674  0.17679003  1
  H  H32  1  0.25691925  0.80988297  0.17699226  1
  H  H33  1  0.75909379  0.13917224  0.18073877  1
  H  H34  1  0.75932316  0.46793881  0.17895387  1
  H  H35  1  0.74453217  0.80478078  0.17414873  1
  H  H36  1  0.25881384  0.19144015  0.82800426  1
  H  H37  1  0.24795595  0.52778371  0.82473824  1
  H  H38  1  0.23483518  0.86147181  0.82064622  1
  H  H39  1  0.74761171  0.19185120  0.82344895  1
  H  H40  1  0.75050274  0.53094903  0.81983626  1
  H  H41  1  0.74921306  0.86469512  0.82209916  1
  H  H42  1  0.24914035  0.13551055  0.32050246  1
  H  H43  1  0.26460331  0.47129842  0.32383157  1
  H  H44  1  0.24928480  0.80209465  0.31558063  1
  H  H45  1  0.74339565  0.13730316  0.32318945  1
  H  H46  1  0.73037792  0.47124167  0.32008714  1
  H  H47  1  0.75114018  0.80278365  0.32900830  1
  H  H48  1  0.11041671  0.05727248  0.59748440  1
  H  H49  1  0.12804100  0.38750658  0.61210678  1
  H  H50  1  0.12465585  0.72013171  0.61143282  1
  H  H51  1  0.61312380  0.05703157  0.59915563  1
  H  H52  1  0.63242448  0.38782616  0.61249037  1
  H  H53  1  0.62829270  0.72202168  0.60654245  1
  H  H54  1  0.38828001  0.27765634  0.10226014  1
  H  H55  1  0.37264294  0.61580932  0.12207228  1
  H  H56  1  0.38293801  0.95003392  0.11406188  1
  H  H57  1  0.88802605  0.27680401  0.09765638  1
  H  H58  1  0.87538798  0.61289892  0.10726511  1
  H  H59  1  0.88611790  0.94160131  0.09360815  1
  H  H60  1  0.38110484  0.05503814  0.88887372  1
  H  H61  1  0.37936778  0.38618767  0.88648291  1
  H  H62  1  0.37031623  0.71355470  0.88133434  1
  H  H63  1  0.88444806  0.05994547  0.90305408  1
  H  H64  1  0.88681378  0.38849741  0.90759473  1
  H  H65  1  0.87472826  0.71897738  0.88375493  1
  H  H66  1  0.12606819  0.27743411  0.39385810  1
  H  H67  1  0.12954482  0.61360938  0.38875083  1
  H  H68  1  0.10947104  0.94085020  0.41689421  1
  H  H69  1  0.62657309  0.27824224  0.38935170  1
  H  H70  1  0.63366399  0.62196252  0.37477229  1
  H  H71  1  0.62143621  0.94527842  0.38913207  1
  H  H72  1  0.36607324  0.22647421  0.59291540  1
  H  H73  1  0.36312321  0.56009660  0.59695798  1
  H  H74  1  0.38109379  0.87854269  0.63002801  1
  H  H75  1  0.86968632  0.21597338  0.63185737  1
  H  H76  1  0.86476797  0.55477772  0.60732268  1
  H  H77  1  0.88075976  0.88871186  0.60337349  1
  H  H78  1  0.12188866  0.11370758  0.11166379  1
  H  H79  1  0.12489238  0.45106158  0.11920779  1
  H  H80  1  0.13313665  0.77928584  0.10761310  1
  H  H81  1  0.62041712  0.11525156  0.12511404  1
  H  H82  1  0.61664541  0.45105886  0.12815350  1
  H  H83  1  0.63047677  0.77779449  0.09684127  1
  H  H84  1  0.11747101  0.21251210  0.87954409  1
  H  H85  1  0.13222630  0.55469681  0.90157221  1
  H  H86  1  0.12043063  0.89138994  0.89991589  1
  H  H87  1  0.62003483  0.22240645  0.88799307  1
  H  H88  1  0.62983404  0.55684506  0.89129726  1
  H  H89  1  0.61514840  0.88077796  0.88390940  1
  H  H90  1  0.38126472  0.11161178  0.38345229  1
  H  H91  1  0.36055956  0.43892940  0.41250996  1
  H  H92  1  0.37310039  0.77901691  0.38890729  1
  H  H93  1  0.88147015  0.11624264  0.37945808  1
  H  H94  1  0.87086265  0.45166409  0.37464861  1
  H  H95  1  0.87176752  0.77693266  0.39887045  1
  H  H96  1  0.37696177  0.27813464  0.38594417  1
  H  H97  1  0.38818713  0.61012276  0.40219857  1
  H  H98  1  0.37268482  0.94711827  0.39112578  1
  H  H99  1  0.87765336  0.27866443  0.39770567  1
  H  H100  1  0.88093675  0.61321063  0.39134587  1
  H  H101  1  0.87041443  0.94782600  0.36964813  1
  H  H102  1  0.12959137  0.04952104  0.87377545  1
  H  H103  1  0.13052495  0.38345867  0.86881039  1
  H  H104  1  0.12095847  0.72302522  0.90561572  1
  H  H105  1  0.63000648  0.05333165  0.89295678  1
  H  H106  1  0.62805628  0.38612199  0.89506164  1
  H  H107  1  0.61689923  0.72425129  0.90369769  1
  H  H108  1  0.13511407  0.28141274  0.11850030  1
  H  H109  1  0.12330516  0.61135806  0.11100827  1
  H  H110  1  0.13162111  0.94857776  0.12160812  1
  H  H111  1  0.63642769  0.28119565  0.11699959  1
  H  H112  1  0.61883035  0.61219199  0.09799477  1
  H  H113  1  0.63135361  0.94358926  0.10227582  1
  H  H114  1  0.36602125  0.05024124  0.61662027  1
  H  H115  1  0.38338436  0.38763611  0.61965224  1
  H  H116  1  0.37920115  0.71986540  0.61184359  1
  H  H117  1  0.86359997  0.05076237  0.62038067  1
  H  H118  1  0.88101882  0.39296317  0.59799682  1
  H  H119  1  0.87551334  0.72116828  0.60792927  1
  H  H120  1  0.13228888  0.11170617  0.39658889  1
  H  H121  1  0.11940617  0.45330938  0.36810653  1
  H  H122  1  0.12459274  0.77817042  0.38758447  1
  H  H123  1  0.63423861  0.10809342  0.40345044  1
  H  H124  1  0.62525631  0.44195282  0.40373935  1
  H  H125  1  0.62333184  0.78103255  0.39359387  1
  H  H126  1  0.36172464  0.22898275  0.90930805  1
  H  H127  1  0.38032166  0.54885483  0.88376240  1
  H  H128  1  0.36773516  0.88427032  0.88375324  1
  H  H129  1  0.86848477  0.22199968  0.89395202  1
  H  H130  1  0.87924573  0.55242885  0.88800479  1
  H  H131  1  0.86326116  0.89059747  0.89780833  1
  H  H132  1  0.36928687  0.10517597  0.09725715  1
  H  H133  1  0.37103886  0.44389732  0.09774221  1
  H  H134  1  0.38204582  0.78346141  0.10844657  1
  H  H135  1  0.86658415  0.11267760  0.09780581  1
  H  H136  1  0.85907065  0.43607034  0.09078528  1
  H  H137  1  0.87811127  0.78043907  0.11391680  1
  H  H138  1  0.12126866  0.21667515  0.62563301  1
  H  H139  1  0.11869190  0.54889014  0.63075835  1
  H  H140  1  0.13879220  0.89351929  0.59134765  1
  H  H141  1  0.62556620  0.22349404  0.59579676  1
  H  H142  1  0.61525317  0.55828231  0.60707660  1
  H  H143  1  0.63206552  0.88397109  0.60552145  1
  H  H144  1  0.66093437  0.58935596  0.50345941  1
  H  H145  1  0.14802945  0.42328496  1.00316249  1
  H  H146  1  0.81907895  0.59159562  0.49903992  1
  H  H147  1  0.58150221  0.41221851  0.50066826  1
  H  H148  1  0.13141006  0.57793680  0.51636003  1
  H  H149  1  0.57252208  0.41853324  1.00080651  1
  H  H150  1  0.29035825  0.58758534  0.49296960  1
  H  H151  1  0.70236126  0.07633203  0.50772381  1
  H  H152  1  0.42338628  0.25585645  0.49389389  1
  H  H153  1  0.41972923  0.75212723  0.49995413  1
  H  H154  1  0.95901830  0.09077488  1.00476818  1
  H  H155  1  0.96769855  0.41479038  1.00557609  1
  H  H156  1  0.41481130  0.91628454  0.50145848  1
  H  H157  1  0.70203376  0.41268140  0.50630290  1
  H  H158  1  0.22123659  0.91791930  0.49366438  1
  H  H159  1  0.85882766  0.08598365  0.48891034  1
  H  H160  1  0.85961798  0.24419001  0.51757120  1
  H  H161  1  0.02101824  0.91562200  0.51082646  1
  H  H162  1  0.84463643  0.75238905  0.00566242  1
  H  H163  1  0.08201154  0.24682216  0.49926885  1
  H  H164  1  0.27514204  0.41535803  0.50894957  1
  H  H165  1  0.09267411  0.41702289  0.50469479  1
  H  H166  1  0.70035053  0.25065786  0.49172403  1
  H  H167  1  0.46141961  0.58167213  0.50475110  1
  H  H168  1  0.83166335  0.91439371  0.49801569  1
  H  H169  1  0.80345311  0.91966097  1.00718856  1
  H  H170  1  0.42144541  0.41750682  0.50774971  1
  H  H171  1  0.33711893  0.74908994  0.00095478  1
  H  H172  1  0.07779779  0.75139909  0.50259080  1
  H  H173  1  0.07433225  0.58317108  0.00603539  1
  H  H174  1  0.58036893  0.91357201  0.49920917  1
  H  H175  1  0.83790205  0.58420680  0.99186887  1
  H  H176  1  0.79462539  0.08282532  -0.00506021  1
  H  H177  1  0.13464646  0.25161482  0.98621577  1
  H  H178  1  0.15538281  0.07958648  0.00498127  1
  H  H179  1  0.35137426  0.58006820  -0.00257833  1
  H  H180  1  0.96262235  0.91490800  -0.00540608  1
  H  H181  1  0.68093628  0.58919750  0.99993035  1
  H  H182  1  0.18995876  0.07998021  0.50396692  1
  H  H183  1  0.57607357  0.24701462  0.49871136  1
  H  H184  1  0.57795326  0.08303931  1.00047780  1
  H  H185  1  0.28200421  0.24896233  1.00938697  1
  H  H186  1  0.45191899  0.24946773  -0.00420262  1
  H  H187  1  0.77612932  0.41159065  -0.00542771  1
  H  H188  1  0.41766533  0.91677492  0.00108678  1
  H  H189  1  0.28830406  0.25435810  0.49109285  1
  H  H190  1  0.34652002  0.08571367  0.49082509  1
  H  H191  1  0.05147476  0.75091310  1.00558296  1
  Pb  Pb192  1  0.25200876  0.04795855  0.74433513  1
  Pb  Pb193  1  0.24794479  0.38521925  0.74143594  1
  Pb  Pb194  1  0.24851568  0.71326130  0.75135983  1
  Pb  Pb195  1  0.74689298  0.04904210  0.75190978  1
  Pb  Pb196  1  0.75215675  0.38059622  0.75540202  1
  Pb  Pb197  1  0.75284687  0.71826259  0.75732658  1
  Pb  Pb198  1  0.25199045  0.28386037  0.24730496  1
  Pb  Pb199  1  0.25269081  0.61522075  0.25374167  1
  Pb  Pb200  1  0.24734719  0.95286829  0.26173289  1
  Pb  Pb201  1  0.75452674  0.28501120  0.24983998  1
  Pb  Pb202  1  0.75113992  0.61872366  0.24331336  1
  Pb  Pb203  1  0.75375223  0.94857492  0.24607559  1
  Pb  Pb204  1  -0.00081274  0.21369216  0.74963816  1
  Pb  Pb205  1  -0.00411879  0.54811725  0.75700082  1
  Pb  Pb206  1  0.00421663  0.88478732  0.75226747  1
  Pb  Pb207  1  0.49200792  0.21827956  0.74567685  1
  Pb  Pb208  1  0.50327280  0.55087621  0.74382476  1
  Pb  Pb209  1  0.49908869  0.88014015  0.74854112  1
  Pb  Pb210  1  -0.00068520  0.11940007  0.24574787  1
  Pb  Pb211  1  -0.00341472  0.45026674  0.23682262  1
  Pb  Pb212  1  0.00439011  0.78357039  0.24841888  1
  Pb  Pb213  1  0.50222485  0.11624503  0.25217249  1
  Pb  Pb214  1  0.50052945  0.45065366  0.26096686  1
  Pb  Pb215  1  0.49931480  0.78534828  0.24876543  1
  C  C216  1  -0.00895480  0.04582775  0.63155196  1
  C  C217  1  0.00207928  0.37917315  0.62807586  1
  C  C218  1  -0.00031203  0.71102399  0.63238131  1
  C  C219  1  0.49278965  0.04497074  0.63067038  1
  C  C220  1  0.50888312  0.38022763  0.63687267  1
  C  C221  1  0.50385323  0.71281428  0.63001433  1
  C  C222  1  0.00781086  0.28653166  0.13127215  1
  C  C223  1  -0.00108204  0.62146332  0.13254615  1
  C  C224  1  0.00332907  0.95521557  0.13011476  1
  C  C225  1  0.50945102  0.28923952  0.13244217  1
  C  C226  1  0.50050027  0.62406569  0.13405432  1
  C  C227  1  0.50839358  0.95461001  0.12916762  1
  C  C228  1  0.00144832  0.04427070  0.86684401  1
  C  C229  1  0.00170406  0.37504469  0.86718863  1
  C  C230  1  0.00182035  0.71174005  0.87157777  1
  C  C231  1  0.50626783  0.04429829  0.86780791  1
  C  C232  1  0.50528495  0.37697086  0.86773739  1
  C  C233  1  0.49803061  0.70915463  0.87002638  1
  C  C234  1  0.00164127  0.28869719  0.37450811  1
  C  C235  1  0.00476648  0.62320543  0.36740994  1
  C  C236  1  -0.00152005  0.95463267  0.37122482  1
  C  C237  1  0.50188922  0.28799634  0.36599998  1
  C  C238  1  0.50566024  0.62521750  0.36619248  1
  C  C239  1  0.49664182  0.95413440  0.36941575  1
  C  C240  1  0.24978478  0.21378457  0.63175676  1
  C  C241  1  0.24647945  0.54727384  0.63402438  1
  C  C242  1  0.25251296  0.87471800  0.63120382  1
  C  C243  1  0.74203990  0.21306720  0.63426115  1
  C  C244  1  0.73957766  0.54545885  0.62818038  1
  C  C245  1  0.75752560  0.87562273  0.62616294  1
  C  C246  1  0.24835389  0.12057385  0.12529565  1
  C  C247  1  0.25068487  0.45405023  0.12896445  1
  C  C248  1  0.25712075  0.79156268  0.13061993  1
  C  C249  1  0.74834229  0.12334064  0.13399965  1
  C  C250  1  0.74531811  0.45312690  0.13240203  1
  C  C251  1  0.75154238  0.78857560  0.12720883  1
  C  C252  1  0.24578047  0.21021500  0.87331694  1
  C  C253  1  0.25415972  0.54338041  0.87191576  1
  C  C254  1  0.24070850  0.87824465  0.86750547  1
  C  C255  1  0.74498856  0.21152176  0.86897970  1
  C  C256  1  0.75384711  0.54652903  0.86742110  1
  C  C257  1  0.74267404  0.87863123  0.86978182  1
  C  C258  1  0.25484487  0.11976565  0.36796822  1
  C  C259  1  0.24839444  0.45545656  0.36970672  1
  C  C260  1  0.24900836  0.78720437  0.36340492  1
  C  C261  1  0.75380579  0.12059958  0.36981408  1
  C  C262  1  0.74233389  0.45528179  0.36658799  1
  C  C263  1  0.74874494  0.78682029  0.37647087  1
  C  C264  1  0.22448766  0.57263787  0.96681677  1
  C  C265  1  0.46087017  0.92677564  0.03745358  1
  C  C266  1  0.30585296  0.57061083  0.96235767  1
  C  C267  1  0.45621395  0.92656966  0.46301856  1
  C  C268  1  0.78036088  0.57948597  0.53783014  1
  C  C269  1  0.44413254  0.74060413  0.95660175  1
  C  C270  1  0.93832622  0.07346183  0.54347320  1
  C  C271  1  0.18134004  0.57030417  0.54809328  1
  C  C272  1  0.27652556  0.42918307  0.03234007  1
  C  C273  1  0.54016555  0.07263117  0.96086469  1
  C  C274  1  0.05905473  0.26465554  0.04094304  1
  C  C275  1  0.73208260  0.08937917  0.46488933  1
  C  C276  1  0.03829046  0.74076079  0.54107153  1
  C  C277  1  0.49020459  0.59428996  0.46125286  1
  C  C278  1  0.72765777  0.23914902  0.53588387  1
  C  C279  1  0.53614887  0.40729281  0.96067856  1
  C  C280  1  0.76970830  0.90691112  0.96606271  1
  C  C281  1  0.80801447  0.23650131  0.54855548  1
  C  C282  1  0.54240478  0.92489922  0.03516834  1
  C  C283  1  0.71366094  0.90618760  0.53418471  1
  C  C284  1  0.17638033  0.42851084  0.45113719  1
  C  C285  1  0.19549721  0.43138290  0.03804767  1
  C  C286  1  0.96913642  0.59000199  0.45888218  1
  C  C287  1  0.54487364  0.40393565  0.54143839  1
  C  C288  1  0.72848321  0.42503274  0.46206416  1
  C  C289  1  0.32183166  0.90490520  0.54948097  1
  C  C290  1  0.48431149  0.25997587  0.03823539  1
  C  C291  1  0.46300724  0.40559358  0.54450632  1
  C  C292  1  0.22382044  0.09145482  0.46255966  1
  C  C293  1  0.54003985  0.25806365  0.45836512  1
  C  C294  1  0.70404246  0.75898232  0.46666757  1
  C  C295  1  0.26188844  0.57474618  0.53634102  1
  C  C296  1  0.46095444  0.74086058  0.53714564  1
  C  C297  1  0.77795532  0.24854458  0.95871927  1
  C  C298  1  0.54262631  0.74114699  0.53670205  1
  C  C299  1  0.78441161  0.75729986  0.46833063  1
  C  C300  1  0.98706539  0.07598363  0.96180760  1
  C  C301  1  0.72247827  0.75754804  0.03204024  1
  C  C302  1  0.51669207  0.07827663  0.53701690  1
  C  C303  1  0.76553046  0.09413884  0.03862089  1
  C  C304  1  0.27745462  0.08305042  0.03286611  1
  C  C305  1  0.06828834  0.40822105  0.94882273  1
  C  C306  1  0.26161820  0.24140108  0.53521408  1
  C  C307  1  0.53840706  0.92568902  0.46213044  1
  C  C308  1  0.68866142  0.90232616  0.95967172  1
  C  C309  1  0.71739463  0.57621356  0.96045530  1
  C  C310  1  0.29540246  0.76008541  0.03962744  1
  C  C311  1  0.96228363  0.25564182  0.46676917  1
  N  N312  1  0.24470848  0.90928228  0.53748394  1
  N  N313  1  0.98189923  0.26237337  0.03326353  1
  N  N314  1  0.18345895  0.23671335  0.95658621  1
  N  N315  1  0.28675212  0.76082490  0.45733357  1
  N  N316  1  0.46106700  0.07390370  0.95972253  1
  N  N317  1  0.95842498  0.59197770  0.04012379  1
  N  N318  1  0.00172240  0.92202285  0.46501607  1
  N  N319  1  0.25318146  0.42349819  0.46470315  1
  N  N320  1  0.06511543  0.07169262  0.95246570  1
  N  N321  1  0.75350594  0.42191458  0.03839607  1
  N  N322  1  0.44598032  0.59247623  0.04752455  1
  N  N323  1  0.81074769  0.09196611  0.45555763  1
  N  N324  1  0.04949968  0.40988027  0.54080564  1
  N  N325  1  0.94472342  0.74131885  0.95838061  1
  N  N326  1  0.56835950  0.59807377  0.45222635  1
  N  N327  1  0.98740694  0.92125933  0.03795127  1
  N  N328  1  0.18374516  0.23717467  0.54571045  1
  N  N329  1  0.30311305  0.09129453  0.45672909  1
  N  N330  1  0.56322013  0.25959015  0.04343508  1
  N  N331  1  0.70068379  0.24860226  0.95816088  1
  N  N332  1  0.04671581  0.59024914  0.45862765  1
  N  N333  1  0.52083453  0.74483672  0.96474383  1
  N  N334  1  0.79284998  0.90719770  0.53486257  1
  N  N335  1  0.21608159  0.75770842  0.03897923  1
  N  N336  1  0.01528367  0.07610895  0.53501428  1
  N  N337  1  0.29081537  0.90856123  0.95650500  1
  N  N338  1  0.80642161  0.42772502  0.45213442  1
  N  N339  1  0.46051080  0.25778462  0.45617589  1
  N  N340  1  0.97172338  0.41174522  0.53470739  1
  N  N341  1  0.80103089  0.75992577  0.03882296  1
  N  N342  1  0.04141806  0.25571322  0.46418984  1
  N  N343  1  0.68729989  0.09382661  0.04786590  1
  N  N344  1  0.52139325  0.59190091  0.03901943  1
  N  N345  1  0.20986822  0.76061434  0.45693310  1
  N  N346  1  0.03680777  0.59062713  0.04302040  1
  N  N347  1  0.99109830  0.40889979  0.96113263  1
  N  N348  1  0.19900320  0.08765055  0.03841002  1
  N  N349  1  0.95903605  0.74169305  0.53964422  1
  N  N350  1  0.02270589  0.74426345  0.96392114  1
  N  N351  1  0.21477830  0.91091730  0.96164103  1
  N  N352  1  0.79696724  0.57344819  0.95824403  1
  N  N353  1  0.45701756  0.40780703  0.95821616  1
  N  N354  1  0.70079246  0.58150647  0.53956397  1
  N  N355  1  0.26015241  0.24979621  0.96425874  1
  N  N356  1  0.92613454  0.92417626  0.45037828  1
  N  N357  1  0.67716869  0.42804459  0.04895174  1
  N  N358  1  0.06467100  0.92345025  0.04595175  1
  N  N359  1  0.43951852  0.07581130  0.54192127  1
  N  N360  1  0.04805127  0.05865181  0.59130140  1
  N  N361  1  0.06915346  0.38895878  0.59702931  1
  N  N362  1  0.06481343  0.72273743  0.59789691  1
  N  N363  1  0.55154360  0.05953885  0.59033030  1
  N  N364  1  0.57221322  0.38823211  0.59918961  1
  N  N365  1  0.56824132  0.72441596  0.59282744  1
  N  N366  1  0.44963113  0.27777318  0.09252531  1
  N  N367  1  0.43146580  0.61199205  0.10630090  1
  N  N368  1  0.44108257  0.94519324  0.09709084  1
  N  N369  1  0.95032754  0.27601295  0.09066727  1
  N  N370  1  0.93586807  0.60944240  0.09680622  1
  N  N371  1  0.94836453  0.94307865  0.08773105  1
  N  N372  1  0.44172864  0.05607192  0.90160933  1
  N  N373  1  0.43962695  0.38930078  0.90002527  1
  N  N374  1  0.42760644  0.71941947  0.89887136  1
  N  N375  1  0.94662062  0.05893561  0.90978863  1
  N  N376  1  0.94925240  0.38496025  0.91197055  1
  N  N377  1  0.93276315  0.72364778  0.89989256  1
  N  N378  1  0.06628459  0.27742228  0.40774127  1
  N  N379  1  0.06928087  0.61093721  0.40080796  1
  N  N380  1  0.04685405  0.94328969  0.41831535  1
  N  N381  1  0.56604596  0.27543347  0.40201428  1
  N  N382  1  0.57623824  0.61757853  0.39300006  1
  N  N383  1  0.56181478  0.94280281  0.40374640  1
  N  N384  1  0.30364847  0.22707380  0.58757842  1
  N  N385  1  0.30114669  0.55992263  0.59020087  1
  N  N386  1  0.32690057  0.88497653  0.60802737  1
  N  N387  1  0.81501715  0.22067877  0.60972856  1
  N  N388  1  0.80467064  0.55819124  0.59327061  1
  N  N389  1  0.82059749  0.88723370  0.59108873  1
  N  N390  1  0.18026889  0.11182424  0.09519564  1
  N  N391  1  0.18083839  0.44686079  0.09972376  1
  N  N392  1  0.19404701  0.77761555  0.09616412  1
  N  N393  1  0.67831894  0.11216733  0.10744298  1
  N  N394  1  0.67264341  0.44600119  0.10799127  1
  N  N395  1  0.69158903  0.77504301  0.08676598  1
  N  N396  1  0.17413776  0.22080390  0.89752236  1
  N  N397  1  0.19361524  0.55631056  0.91203028  1
  N  N398  1  0.18223050  0.89200056  0.90668055  1
  N  N399  1  0.67981908  0.22510917  0.90103270  1
  N  N400  1  0.69039017  0.55929007  0.90418630  1
  N  N401  1  0.67301703  0.88559765  0.90147244  1
  N  N402  1  0.32203380  0.11005632  0.39894380  1
  N  N403  1  0.29834968  0.44284149  0.41535894  1
  N  N404  1  0.31194141  0.77747434  0.39965992  1
  N  N405  1  0.82370341  0.11164525  0.39723797  1
  N  N406  1  0.81322582  0.44641264  0.39284887  1
  N  N407  1  0.81228899  0.77397243  0.41336608  1
  N  N408  1  0.43702382  0.27898493  0.40010723  1
  N  N409  1  0.45037673  0.61034709  0.40869399  1
  N  N410  1  0.43188049  0.94415359  0.40484301  1
  N  N411  1  0.93742624  0.27537873  0.41097784  1
  N  N412  1  0.94129501  0.61005666  0.40370803  1
  N  N413  1  0.92493540  0.94237833  0.39141805  1
  N  N414  1  0.07248898  0.05207764  0.89303392  1
  N  N415  1  0.07524331  0.38876048  0.89012029  1
  N  N416  1  0.05873505  0.72308629  0.91261506  1
  N  N417  1  0.56960356  0.05495566  0.90460619  1
  N  N418  1  0.56745015  0.38890393  0.90526012  1
  N  N419  1  0.55469061  0.72461675  0.90967278  1
  N  N420  1  0.07762290  0.27923885  0.10078756  1
  N  N421  1  0.06282073  0.61024806  0.09819735  1
  N  N422  1  0.07401630  0.94290624  0.10410280  1
  N  N423  1  0.57711767  0.27786063  0.10213455  1
  N  N424  1  0.55669977  0.61190804  0.09245845  1
  N  N425  1  0.57091748  0.94161829  0.09053358  1
  N  N426  1  0.42450778  0.05526909  0.60153269  1
  N  N427  1  0.44201626  0.39080594  0.60401238  1
  N  N428  1  0.43810383  0.72311368  0.59629516  1
  N  N429  1  0.92082658  0.05564146  0.60242254  1
  N  N430  1  0.94255638  0.39323757  0.58936952  1
  N  N431  1  0.93676162  0.72298653  0.59682257  1
  N  N432  1  0.19341754  0.10832671  0.40722965  1
  N  N433  1  0.17311913  0.44665164  0.39159197  1
  N  N434  1  0.18556889  0.77662680  0.39879767  1
  N  N435  1  0.69619180  0.10678215  0.41159072  1
  N  N436  1  0.68720378  0.44175702  0.40987574  1
  N  N437  1  0.68171207  0.77668734  0.41038543  1
  N  N438  1  0.29961315  0.22439633  0.91628117  1
  N  N439  1  0.32295122  0.55252458  0.90226453  1
  N  N440  1  0.30823344  0.88847620  0.89821838  1
  N  N441  1  0.80808568  0.22630076  0.90513652  1
  N  N442  1  0.81925013  0.55530726  0.90090726  1
  N  N443  1  0.80244754  0.89183206  0.90876496  1
  N  N444  1  0.30829690  0.10361423  0.08629920  1
  N  N445  1  0.30975105  0.44263763  0.08695468  1
  N  N446  1  0.32186347  0.78018009  0.09571200  1
  N  N447  1  0.80448257  0.11184006  0.09108036  1
  N  N448  1  0.79652142  0.43977791  0.08769248  1
  N  N449  1  0.81975117  0.77994862  0.09722747  1
  N  N450  1  0.17831211  0.21999990  0.60606765  1
  N  N451  1  0.17345486  0.55346746  0.60865795  1
  N  N452  1  0.20081742  0.88782382  0.58683739  1
  N  N453  1  0.68760533  0.22429145  0.58975548  1
  N  N454  1  0.67580077  0.55885120  0.59450439  1
  N  N455  1  0.69179415  0.88758884  0.59106357  1
  Cl  Cl456  1  0.23528608  0.05356090  0.60836256  1
  Cl  Cl457  1  0.25589363  0.39270025  0.60296101  1
  Cl  Cl458  1  0.25107095  0.72177119  0.62357199  1
  Cl  Cl459  1  0.73501536  0.05250642  0.61535918  1
  Cl  Cl460  1  0.75678581  0.39381501  0.62056671  1
  Cl  Cl461  1  0.75301456  0.71987836  0.62522201  1
  Cl  Cl462  1  0.26528194  0.26759707  0.10738047  1
  Cl  Cl463  1  0.24508223  0.61185779  0.12051916  1
  Cl  Cl464  1  0.25642632  0.95521705  0.13178346  1
  Cl  Cl465  1  0.76558569  0.28071393  0.11825237  1
  Cl  Cl466  1  0.74609794  0.61141848  0.10461888  1
  Cl  Cl467  1  0.76353292  0.94200071  0.11085101  1
  Cl  Cl468  1  0.25740810  0.05956343  0.87704566  1
  Cl  Cl469  1  0.25712521  0.38183400  0.87184469  1
  Cl  Cl470  1  0.24205222  0.71903658  0.88643418  1
  Cl  Cl471  1  0.76024831  0.06074318  0.88678797  1
  Cl  Cl472  1  0.76413900  0.39280998  0.89923381  1
  Cl  Cl473  1  0.74517747  0.72286415  0.89374828  1
  Cl  Cl474  1  0.25256416  0.27655156  0.38413808  1
  Cl  Cl475  1  0.26227999  0.60792671  0.38827739  1
  Cl  Cl476  1  0.23037663  0.94106785  0.40212447  1
  Cl  Cl477  1  0.74997444  0.27730473  0.38524441  1
  Cl  Cl478  1  0.75954030  0.61265594  0.37824298  1
  Cl  Cl479  1  0.74371516  0.94617847  0.37969979  1
  Cl  Cl480  1  -0.00184527  0.22339836  0.61678252  1
  Cl  Cl481  1  -0.01366324  0.55408408  0.62689413  1
  Cl  Cl482  1  0.01487723  0.89827100  0.60376350  1
  Cl  Cl483  1  0.49351459  0.22501362  0.60172961  1
  Cl  Cl484  1  0.48906807  0.56004722  0.60728984  1
  Cl  Cl485  1  0.51079946  0.88625693  0.61574476  1
  Cl  Cl486  1  -0.00836227  0.10935840  0.10957226  1
  Cl  Cl487  1  -0.02162443  0.43616432  0.09785575  1
  Cl  Cl488  1  0.00675571  0.77440320  0.10958803  1
  Cl  Cl489  1  0.49139116  0.10880129  0.12054208  1
  Cl  Cl490  1  0.48987138  0.44611262  0.12780489  1
  Cl  Cl491  1  0.50655071  0.78212087  0.11805901  1
  Cl  Cl492  1  -0.00761368  0.21689228  0.88011556  1
  Cl  Cl493  1  0.00983425  0.55494863  0.89355512  1
  Cl  Cl494  1  -0.00851191  0.89233686  0.89213986  1
  Cl  Cl495  1  0.48133944  0.22933763  0.88198395  1
  Cl  Cl496  1  0.50840909  0.55281573  0.87126650  1
  Cl  Cl497  1  0.49079824  0.88514371  0.88018066  1
  Cl  Cl498  1  0.00906534  0.11914304  0.37693602  1
  Cl  Cl499  1  -0.00483783  0.45296423  0.36720591  1
  Cl  Cl500  1  0.00131354  0.77910384  0.38144290  1
  Cl  Cl501  1  0.50984624  0.11233779  0.38666018  1
  Cl  Cl502  1  0.49189277  0.44031774  0.39696361  1
  Cl  Cl503  1  0.49610879  0.77615140  0.38243394  1
  Cl  Cl504  1  0.35574528  0.15082250  0.74711937  1
  Cl  Cl505  1  0.35609773  0.48322440  0.74674431  1
  Cl  Cl506  1  0.35876281  0.81544283  0.74890232  1
  Cl  Cl507  1  0.86109618  0.14801991  0.74242585  1
  Cl  Cl508  1  0.85480238  0.48620151  0.75432091  1
  Cl  Cl509  1  0.85467550  0.81604562  0.75322095  1
  Cl  Cl510  1  0.13955295  0.18402332  0.23975799  1
  Cl  Cl511  1  0.12850578  0.52198643  0.24589747  1
  Cl  Cl512  1  0.13896375  0.85176097  0.23976067  1
  Cl  Cl513  1  0.63410078  0.18870565  0.24560301  1
  Cl  Cl514  1  0.63508462  0.52001964  0.24702823  1
  Cl  Cl515  1  0.63737947  0.85085491  0.25156705  1
  Cl  Cl516  1  0.13411034  0.14521190  0.75289865  1
  Cl  Cl517  1  0.13532735  0.47738906  0.74607921  1
  Cl  Cl518  1  0.13495188  0.81435720  0.74703728  1
  Cl  Cl519  1  0.63924345  0.14884467  0.75512464  1
  Cl  Cl520  1  0.63659711  0.47870164  0.74526740  1
  Cl  Cl521  1  0.63761675  0.81613787  0.75099143  1
  Cl  Cl522  1  0.35885813  0.18362542  0.25711308  1
  Cl  Cl523  1  0.34906058  0.51555150  0.24778012  1
  Cl  Cl524  1  0.36008774  0.85275006  0.25545165  1
  Cl  Cl525  1  0.85565424  0.18099651  0.25688069  1
  Cl  Cl526  1  0.85596101  0.51376279  0.24731304  1
  Cl  Cl527  1  0.85366935  0.85092492  0.25444827  1
  Cl  Cl528  1  0.11807787  0.31013149  0.74550620  1
  Cl  Cl529  1  0.10951606  0.64700152  0.74607737  1
  Cl  Cl530  1  0.10549307  0.97872557  0.75692513  1
  Cl  Cl531  1  0.61438151  0.31254364  0.75113896  1
  Cl  Cl532  1  0.60770101  0.64661641  0.74593330  1
  Cl  Cl533  1  0.61031394  0.98097226  0.75213454  1
  Cl  Cl534  1  0.38362671  0.02045413  0.26661405  1
  Cl  Cl535  1  0.38826522  0.34942570  0.25636422  1
  Cl  Cl536  1  0.38993633  0.68212457  0.24602372  1
  Cl  Cl537  1  0.88740070  0.01844822  0.25831115  1
  Cl  Cl538  1  0.89752646  0.34389412  0.25385528  1
  Cl  Cl539  1  0.89025541  0.68353444  0.24321210  1
  Cl  Cl540  1  0.39348908  0.31584672  0.73968964  1
  Cl  Cl541  1  0.38813751  0.64934879  0.75302649  1
  Cl  Cl542  1  0.38966381  0.98309919  0.74348743  1
  Cl  Cl543  1  0.89415278  0.31838148  0.74656357  1
  Cl  Cl544  1  0.88973023  0.65158693  0.76384469  1
  Cl  Cl545  1  0.88582214  0.98086519  0.74237695  1
  Cl  Cl546  1  0.10634228  0.01631352  0.24838709  1
  Cl  Cl547  1  0.11763797  0.35540583  0.24620789  1
  Cl  Cl548  1  0.10862915  0.68893587  0.25380597  1
  Cl  Cl549  1  0.60667960  0.01959601  0.24620028  1
  Cl  Cl550  1  0.60786588  0.35544134  0.24740851  1
  Cl  Cl551  1  0.61275055  0.68492153  0.25083669  1
