# generated using pymatgen
data_H8PbC4(N3Cl2)2
_symmetry_space_group_name_H-M   'P 1'
_cell_length_a   16.62274683
_cell_length_b   22.50584360
_cell_length_c   21.59062889
_cell_angle_alpha   89.99987037
_cell_angle_beta   90.01213507
_cell_angle_gamma   89.99994443
_symmetry_Int_Tables_number   1
_chemical_formula_structural   H8PbC4(N3Cl2)2
_chemical_formula_sum   'H192 Pb24 C96 N144 Cl96'
_cell_volume   8077.24711443
_cell_formula_units_Z   24
loop_
 _symmetry_equiv_pos_site_id
 _symmetry_equiv_pos_as_xyz
  1  'x, y, z'
loop_
 _atom_site_type_symbol
 _atom_site_label
 _atom_site_symmetry_multiplicity
 _atom_site_fract_x
 _atom_site_fract_y
 _atom_site_fract_z
 _atom_site_occupancy
  H  H0  1  -0.00247261  0.03097461  0.68167826  1
  H  H1  1  -0.01112933  0.36731726  0.67851243  1
  H  H2  1  -0.00223238  0.69844183  0.68338041  1
  H  H3  1  0.50558067  0.03077573  0.68043895  1
  H  H4  1  0.50528568  0.36497299  0.68133717  1
  H  H5  1  0.50473447  0.69646621  0.67505776  1
  H  H6  1  -0.00015768  0.29940240  0.17702361  1
  H  H7  1  -0.00203507  0.63618316  0.17772742  1
  H  H8  1  -0.00062641  0.97159386  0.18004859  1
  H  H9  1  0.49650838  0.30169024  0.18169254  1
  H  H10  1  0.50322689  0.63355107  0.18279584  1
  H  H11  1  0.50671935  0.97014640  0.17871747  1
  H  H12  1  0.00107024  0.03223444  0.82411149  1
  H  H13  1  -0.00104371  0.36501423  0.82089772  1
  H  H14  1  0.00691412  0.69842298  0.82084998  1
  H  H15  1  0.49370562  0.03094741  0.81774986  1
  H  H16  1  0.49227464  0.36350879  0.81869313  1
  H  H17  1  0.49597732  0.69858960  0.81677597  1
  H  H18  1  0.00377296  0.30413684  0.32141474  1
  H  H19  1  -0.00410220  0.63457737  0.31837898  1
  H  H20  1  -0.00533984  0.96754147  0.31778845  1
  H  H21  1  0.49641191  0.30300181  0.31661166  1
  H  H22  1  0.50505911  0.63637732  0.32514500  1
  H  H23  1  0.50588269  0.96809627  0.32078023  1
  H  H24  1  0.24390372  0.19861730  0.68131458  1
  H  H25  1  0.23242177  0.53420426  0.67233882  1
  H  H26  1  0.24059684  0.86371538  0.68223592  1
  H  H27  1  0.75418724  0.20003151  0.68008299  1
  H  H28  1  0.76104521  0.53080471  0.67718684  1
  H  H29  1  0.75151078  0.86658513  0.67981450  1
  H  H30  1  0.25017064  0.13623655  0.17831192  1
  H  H31  1  0.24683670  0.46969293  0.17996375  1
  H  H32  1  0.25523448  0.80249659  0.17919207  1
  H  H33  1  0.75199800  0.13625512  0.18071104  1
  H  H34  1  0.74763776  0.46698614  0.17762424  1
  H  H35  1  0.74805291  0.80228161  0.18380789  1
  H  H36  1  0.25936252  0.19543768  0.82442709  1
  H  H37  1  0.25713856  0.53151719  0.82285228  1
  H  H38  1  0.25343454  0.86520176  0.81989297  1
  H  H39  1  0.73700993  0.19800785  0.82349580  1
  H  H40  1  0.74171033  0.53273932  0.82044598  1
  H  H41  1  0.74587795  0.86431213  0.81992704  1
  H  H42  1  0.23920610  0.13505844  0.32200682  1
  H  H43  1  0.24924401  0.46953099  0.32012443  1
  H  H44  1  0.23788006  0.80286913  0.32026331  1
  H  H45  1  0.76532058  0.13593302  0.32041308  1
  H  H46  1  0.74683032  0.46768266  0.31891328  1
  H  H47  1  0.76110717  0.80319347  0.31865522  1
  H  H48  1  0.12367746  0.05343175  0.61227176  1
  H  H49  1  0.12285754  0.38589578  0.61975350  1
  H  H50  1  0.12457992  0.71751826  0.61558095  1
  H  H51  1  0.62211773  0.05447802  0.60313411  1
  H  H52  1  0.61782172  0.38838509  0.60244652  1
  H  H53  1  0.62108790  0.72533359  0.60000165  1
  H  H54  1  0.38116658  0.27611554  0.10438681  1
  H  H55  1  0.37130615  0.61337399  0.11659131  1
  H  H56  1  0.36929108  0.95033132  0.12198097  1
  H  H57  1  0.88073906  0.27913942  0.10307254  1
  H  H58  1  0.87033534  0.61229986  0.11183920  1
  H  H59  1  0.87050439  0.94727528  0.11285931  1
  H  H60  1  0.37499276  0.05497359  0.89470192  1
  H  H61  1  0.37636836  0.38957450  0.89571919  1
  H  H62  1  0.38030891  0.72083979  0.89385377  1
  H  H63  1  0.87630008  0.05477397  0.89149049  1
  H  H64  1  0.87460063  0.38533854  0.89163701  1
  H  H65  1  0.87919452  0.71830988  0.88586916  1
  H  H66  1  0.12024479  0.27873830  0.39861624  1
  H  H67  1  0.12943040  0.61399157  0.38288028  1
  H  H68  1  0.12788369  0.94820593  0.38224932  1
  H  H69  1  0.62117010  0.27902835  0.38877039  1
  H  H70  1  0.62277611  0.60593492  0.39941608  1
  H  H71  1  0.62893876  0.94561127  0.39227520  1
  H  H72  1  0.37798318  0.21822909  0.62192045  1
  H  H73  1  0.37672980  0.54850864  0.62823371  1
  H  H74  1  0.37191055  0.88567561  0.61665765  1
  H  H75  1  0.87470753  0.22347306  0.60506604  1
  H  H76  1  0.86639378  0.55668751  0.59202995  1
  H  H77  1  0.86803773  0.88847039  0.60422664  1
  H  H78  1  0.12364407  0.11411249  0.10893924  1
  H  H79  1  0.12198615  0.44529539  0.10886391  1
  H  H80  1  0.12095035  0.78119003  0.11700522  1
  H  H81  1  0.62651836  0.11325093  0.11095495  1
  H  H82  1  0.62677533  0.44149132  0.10500588  1
  H  H83  1  0.62297873  0.78016638  0.11089531  1
  H  H84  1  0.11743493  0.21219858  0.87640218  1
  H  H85  1  0.12517462  0.55309877  0.88548346  1
  H  H86  1  0.12844885  0.88587341  0.88909243  1
  H  H87  1  0.63088596  0.22656910  0.90683479  1
  H  H88  1  0.63384692  0.55828352  0.90238427  1
  H  H89  1  0.63359167  0.88937341  0.89949847  1
  H  H90  1  0.37720140  0.11658940  0.37850224  1
  H  H91  1  0.37947116  0.44903470  0.38565705  1
  H  H92  1  0.37723400  0.78302352  0.37588916  1
  H  H93  1  0.86998255  0.10855989  0.40711647  1
  H  H94  1  0.87930773  0.44633930  0.38429747  1
  H  H95  1  0.87281775  0.77767903  0.39936642  1
  H  H96  1  0.37293281  0.27936012  0.38969801  1
  H  H97  1  0.37505749  0.61561110  0.39069991  1
  H  H98  1  0.37977644  0.94734175  0.38726071  1
  H  H99  1  0.87198185  0.28103632  0.38367567  1
  H  H100  1  0.88075978  0.60925041  0.39632753  1
  H  H101  1  0.87911098  0.94390241  0.39528204  1
  H  H102  1  0.12529024  0.05290342  0.89288381  1
  H  H103  1  0.12356597  0.38804646  0.89255369  1
  H  H104  1  0.12827224  0.72067672  0.89437274  1
  H  H105  1  0.62357339  0.05379329  0.88521244  1
  H  H106  1  0.62454649  0.38438911  0.88307417  1
  H  H107  1  0.62916113  0.71771291  0.87774356  1
  H  H108  1  0.12899798  0.28007025  0.11231357  1
  H  H109  1  0.11877053  0.61211739  0.10338576  1
  H  H110  1  0.11958535  0.94797044  0.10556242  1
  H  H111  1  0.62969400  0.28095610  0.11721013  1
  H  H112  1  0.61989085  0.61028448  0.10569922  1
  H  H113  1  0.61604067  0.94236650  0.09698467  1
  H  H114  1  0.37390282  0.05350915  0.61555078  1
  H  H115  1  0.37009997  0.38507459  0.62405358  1
  H  H116  1  0.37283642  0.71905902  0.61227603  1
  H  H117  1  0.87555897  0.05389472  0.60957517  1
  H  H118  1  0.87560341  0.38859175  0.60061093  1
  H  H119  1  0.87466667  0.71965080  0.61224650  1
  H  H120  1  0.13180010  0.10745988  0.40509070  1
  H  H121  1  0.13001245  0.44685586  0.39329421  1
  H  H122  1  0.13135037  0.77701449  0.40388529  1
  H  H123  1  0.62539071  0.11571224  0.37466027  1
  H  H124  1  0.63021958  0.44448742  0.39582854  1
  H  H125  1  0.62499327  0.78248820  0.37936539  1
  H  H126  1  0.36103488  0.22757429  0.90940605  1
  H  H127  1  0.37332616  0.55719751  0.89951710  1
  H  H128  1  0.37735645  0.88789209  0.88837239  1
  H  H129  1  0.87623760  0.21568641  0.87831841  1
  H  H130  1  0.88074116  0.55112913  0.87663820  1
  H  H131  1  0.88189750  0.88560906  0.87969988  1
  H  H132  1  0.37260120  0.11009349  0.10729022  1
  H  H133  1  0.37063054  0.44594565  0.10806293  1
  H  H134  1  0.36840045  0.77747053  0.09810733  1
  H  H135  1  0.87600284  0.11410192  0.10825276  1
  H  H136  1  0.87510687  0.44795116  0.10910937  1
  H  H137  1  0.87136447  0.77732998  0.11140351  1
  H  H138  1  0.12965024  0.22352464  0.60403905  1
  H  H139  1  0.13627569  0.55762764  0.58316938  1
  H  H140  1  0.12399155  0.88979587  0.60351105  1
  H  H141  1  0.62617867  0.22087116  0.61080805  1
  H  H142  1  0.62114567  0.55336882  0.62583502  1
  H  H143  1  0.61905528  0.88518518  0.61670774  1
  H  H144  1  0.59954749  0.74626413  0.99076922  1
  H  H145  1  0.35039526  0.24933412  0.50936334  1
  H  H146  1  0.43697717  0.41914698  1.00152949  1
  H  H147  1  0.85493173  0.24770191  0.98607938  1
  H  H148  1  0.28016918  0.24070473  1.00857818  1
  H  H149  1  0.40782699  0.58133471  0.49631995  1
  H  H150  1  0.94356608  0.58029438  0.50249382  1
  H  H151  1  0.80386340  0.75252075  0.50572639  1
  H  H152  1  0.42090926  0.91653034  0.49983404  1
  H  H153  1  0.55907830  0.58591595  -0.00267022  1
  H  H154  1  0.93297122  0.09811300  0.51387345  1
  H  H155  1  0.05661383  0.25624333  0.50358079  1
  H  H156  1  0.68029068  0.42216714  0.00096873  1
  H  H157  1  0.85248830  0.91472413  0.98717706  1
  H  H158  1  0.81081740  0.91528676  0.49362741  1
  H  H159  1  0.07061882  0.05613633  0.50469471  1
  H  H160  1  0.40941578  0.75019980  0.50511011  1
  H  H161  1  0.17979692  0.41819820  0.50288184  1
  H  H162  1  0.55471271  0.41277652  0.49363919  1
  H  H163  1  0.78998853  0.58276739  0.49283788  1
  H  H164  1  0.20617486  0.09523699  0.50591755  1
  H  H165  1  0.29908777  0.75015900  -0.00300518  1
  H  H166  1  0.92258515  0.74663076  0.50075364  1
  H  H167  1  0.20527346  0.74920286  0.50785649  1
  H  H168  1  0.43826214  0.74643340  1.00308203  1
  H  H169  1  0.44331472  0.24856753  -0.00252418  1
  H  H170  1  0.54430411  0.91815612  -0.00478025  1
  H  H171  1  0.67404924  0.08408477  0.00186877  1
  H  H172  1  0.94244496  0.91659507  0.50315400  1
  H  H173  1  0.18902971  0.25329748  0.49639583  1
  H  H174  1  0.39079509  0.41325254  0.51069372  1
  H  H175  1  0.70331446  0.58626846  1.00799914  1
  H  H176  1  0.69191066  0.41610225  0.50351444  1
  H  H177  1  0.17236157  0.41673132  0.00496363  1
  H  H178  1  0.12875323  0.24726724  0.98472534  1
  H  H179  1  0.85994669  0.57961101  0.98580939  1
  H  H180  1  0.08230356  0.74292652  0.50227410  1
  H  H181  1  0.67393949  0.24835420  0.50502837  1
  H  H182  1  0.79026523  0.08381110  0.50526887  1
  H  H183  1  0.69746303  0.91597304  1.00654792  1
  H  H184  1  0.06563568  0.91857508  -0.00145612  1
  H  H185  1  0.56391175  0.08051477  0.49643781  1
  H  H186  1  0.56901892  0.58647708  0.50275766  1
  H  H187  1  0.91805111  0.74796131  0.99936905  1
  H  H188  1  0.83375418  0.40980303  0.00960257  1
  H  H189  1  0.33579626  0.91751934  0.99988996  1
  H  H190  1  0.16205410  0.58434621  0.99232453  1
  H  H191  1  0.35271231  0.08105510  0.48430332  1
  Pb  Pb192  1  0.24966140  0.04601339  0.74621849  1
  Pb  Pb193  1  0.24982531  0.38037302  0.75645698  1
  Pb  Pb194  1  0.24990186  0.71174312  0.75454608  1
  Pb  Pb195  1  0.74606559  0.04867057  0.74536094  1
  Pb  Pb196  1  0.74954069  0.37945200  0.75086979  1
  Pb  Pb197  1  0.75120318  0.71212197  0.74513385  1
  Pb  Pb198  1  0.24985858  0.28535277  0.24954153  1
  Pb  Pb199  1  0.24527120  0.61902620  0.24519589  1
  Pb  Pb200  1  0.24890456  0.95485746  0.24789746  1
  Pb  Pb201  1  0.74953156  0.28760539  0.25011214  1
  Pb  Pb202  1  0.75021071  0.62016535  0.25266641  1
  Pb  Pb203  1  0.74394940  0.95226543  0.24713800  1
  Pb  Pb204  1  0.00033441  0.21353370  0.73977822  1
  Pb  Pb205  1  0.00042339  0.54453910  0.74033133  1
  Pb  Pb206  1  -0.00207692  0.88099893  0.74603753  1
  Pb  Pb207  1  0.49763451  0.21321859  0.75826352  1
  Pb  Pb208  1  0.50074227  0.54631171  0.75624923  1
  Pb  Pb209  1  0.50040681  0.87888498  0.75724041  1
  Pb  Pb210  1  -0.00448274  0.11806132  0.25940458  1
  Pb  Pb211  1  -0.00083360  0.45322351  0.24783918  1
  Pb  Pb212  1  -0.00066731  0.78828553  0.25626095  1
  Pb  Pb213  1  0.49874522  0.12134360  0.24611768  1
  Pb  Pb214  1  0.50042926  0.45424798  0.24748766  1
  Pb  Pb215  1  0.49470798  0.78454043  0.24540306  1
  C  C216  1  -0.00083155  0.04615214  0.63386549  1
  C  C217  1  -0.00407060  0.38069555  0.63070172  1
  C  C218  1  -0.00095517  0.71245920  0.63522169  1
  C  C219  1  0.50019494  0.04588837  0.63284054  1
  C  C220  1  0.49739508  0.37944707  0.63373025  1
  C  C221  1  0.49905118  0.71305420  0.62819444  1
  C  C222  1  0.00334794  0.28642244  0.12886554  1
  C  C223  1  -0.00417085  0.62048478  0.13047025  1
  C  C224  1  -0.00381915  0.95581238  0.13257126  1
  C  C225  1  0.50273794  0.28649368  0.13427540  1
  C  C226  1  0.49779344  0.61941870  0.13493890  1
  C  C227  1  0.49758908  0.95513612  0.13148107  1
  C  C228  1  0.00080629  0.04698370  0.87212287  1
  C  C229  1  -0.00065473  0.37931234  0.86862597  1
  C  C230  1  0.00420755  0.71272743  0.86865339  1
  C  C231  1  0.49755282  0.04623498  0.86534203  1
  C  C232  1  0.49798367  0.37934795  0.86595506  1
  C  C233  1  0.50212366  0.71304411  0.86457403  1
  C  C234  1  -0.00109103  0.28923801  0.36893808  1
  C  C235  1  0.00221701  0.61969047  0.36591560  1
  C  C236  1  0.00079605  0.95282635  0.36539727  1
  C  C237  1  0.49683537  0.28793209  0.36435684  1
  C  C238  1  0.50106270  0.61982932  0.37240966  1
  C  C239  1  0.50431532  0.95328384  0.36844642  1
  C  C240  1  0.25090119  0.21369519  0.63382962  1
  C  C241  1  0.24903490  0.54690674  0.62560055  1
  C  C242  1  0.24529350  0.87937419  0.63481781  1
  C  C243  1  0.75148246  0.21469477  0.63228930  1
  C  C244  1  0.74961140  0.54591486  0.63031166  1
  C  C245  1  0.74643343  0.88031846  0.63189210  1
  C  C246  1  0.24860103  0.12041346  0.13109669  1
  C  C247  1  0.24621025  0.45361106  0.13258978  1
  C  C248  1  0.24849706  0.78723822  0.13179185  1
  C  C249  1  0.75147414  0.12110762  0.13307171  1
  C  C250  1  0.74981659  0.45223041  0.12966017  1
  C  C251  1  0.74721209  0.78687993  0.13619030  1
  C  C252  1  0.24584529  0.21112999  0.87096459  1
  C  C253  1  0.25148966  0.54700797  0.87016154  1
  C  C254  1  0.25356441  0.87979305  0.86768918  1
  C  C255  1  0.74843156  0.21319565  0.87033459  1
  C  C256  1  0.75284650  0.54712753  0.86784827  1
  C  C257  1  0.75446566  0.87967802  0.86722958  1
  C  C258  1  0.24941676  0.12025888  0.36943192  1
  C  C259  1  0.25244578  0.45498369  0.36789076  1
  C  C260  1  0.24914304  0.78792577  0.36733554  1
  C  C261  1  0.75412949  0.12101600  0.36739787  1
  C  C262  1  0.75241099  0.45278573  0.36651970  1
  C  C263  1  0.75276867  0.78797501  0.36591369  1
  C  C264  1  0.68517581  0.57498134  0.54543676  1
  C  C265  1  0.46200223  0.92663340  0.46208396  1
  C  C266  1  0.96911787  0.26217456  0.03396927  1
  C  C267  1  0.55449102  0.73687151  0.95545706  1
  C  C268  1  0.28378242  0.08977743  0.03911410  1
  C  C269  1  0.28334908  0.57750573  0.96507253  1
  C  C270  1  0.23303370  0.76020075  0.46361307  1
  C  C271  1  0.04040412  0.07338939  0.96390067  1
  C  C272  1  0.77576593  0.90556935  0.53503454  1
  C  C273  1  0.69448271  0.90456856  0.54118218  1
  C  C274  1  0.53098891  0.74604759  0.53430518  1
  C  C275  1  0.04971534  0.40458879  0.54145436  1
  C  C276  1  0.97491613  0.92716127  0.46073075  1
  C  C277  1  0.21951899  0.42812359  0.46366265  1
  C  C278  1  0.72510522  0.42671939  0.46147555  1
  C  C279  1  0.43714573  0.92778729  0.04416834  1
  C  C280  1  0.22297832  0.24128575  0.53766369  1
  C  C281  1  0.95971284  0.73805961  0.96199715  1
  C  C282  1  0.05066146  0.26272543  0.03651112  1
  C  C283  1  0.29344862  0.90671089  0.96201908  1
  C  C284  1  0.21184421  0.90551573  0.96092814  1
  C  C285  1  0.72882490  0.24443387  0.96712595  1
  C  C286  1  0.32074104  0.56764898  0.54264116  1
  C  C287  1  0.96026036  0.07411177  0.96341134  1
  C  C288  1  0.30099246  0.42916620  0.45938544  1
  C  C289  1  0.44048944  0.40335490  0.54418693  1
  C  C290  1  0.47258893  0.73737241  0.96125487  1
  C  C291  1  0.04242628  0.73514902  0.54135339  1
  C  C292  1  0.73241495  0.57494059  0.96439061  1
  C  C293  1  0.04130535  0.73818765  0.96310091  1
  C  C294  1  0.72869031  0.90639703  0.96339047  1
  C  C295  1  0.96072365  0.40414941  0.96224662  1
  C  C296  1  0.94653154  0.26060736  0.45876019  1
  C  C297  1  0.71345025  0.09468437  0.04054670  1
  C  C298  1  0.95262051  0.59304657  0.03871591  1
  C  C299  1  0.97657690  0.59237246  0.46075406  1
  C  C300  1  0.52843715  0.07034491  0.53742037  1
  C  C301  1  0.52527305  0.59539691  0.03940614  1
  C  C302  1  0.02828694  0.92903743  0.03863195  1
  C  C303  1  0.54374426  0.92640982  0.46216485  1
  C  C304  1  0.96906532  0.40559226  0.53502804  1
  C  C305  1  0.47123943  0.40778186  0.96027693  1
  C  C306  1  0.24183225  0.57128443  0.52782791  1
  C  C307  1  0.52207968  0.40404111  0.53629234  1
  C  C308  1  0.96049186  0.73652369  0.54043533  1
  C  C309  1  0.47663729  0.25956635  0.03941528  1
  C  C310  1  0.77389234  0.76199112  0.46193553  1
  C  C311  1  0.30476184  0.23937627  0.54399415  1
  N  N312  1  0.76675088  0.09213569  0.46180783  1
  N  N313  1  0.80417990  0.42749918  0.45760520  1
  N  N314  1  0.45910681  0.26209070  0.45844019  1
  N  N315  1  0.05545670  0.59419995  0.45639596  1
  N  N316  1  0.02539160  0.26088117  0.46290046  1
  N  N317  1  0.30786609  0.09862090  0.45618866  1
  N  N318  1  0.05397059  0.92878023  0.45643237  1
  N  N319  1  0.69528151  0.76281297  0.45497493  1
  N  N320  1  0.71506221  0.41710038  0.04005225  1
  N  N321  1  0.22982451  0.08689363  0.46270682  1
  N  N322  1  0.94895449  0.92858535  0.04038713  1
  N  N323  1  0.03059166  0.59247434  0.03492891  1
  N  N324  1  0.31133246  0.76165600  0.45429722  1
  N  N325  1  0.78966841  0.23870144  0.53750142  1
  N  N326  1  0.71161989  0.23741581  0.54071038  1
  N  N327  1  0.70834581  0.76064906  0.04242603  1
  N  N328  1  0.44616692  0.59622815  0.04308795  1
  N  N329  1  0.29282174  0.90677076  0.54388206  1
  N  N330  1  0.19322433  0.76235621  0.04274216  1
  N  N331  1  0.03864203  0.40600976  0.96340456  1
  N  N332  1  0.21645341  0.90778180  0.53964956  1
  N  N333  1  0.81110346  0.57212212  0.95447367  1
  N  N334  1  0.53581851  0.26190738  0.45816926  1
  N  N335  1  0.45228935  0.74226203  0.53897186  1
  N  N336  1  0.20642494  0.09148165  0.03805511  1
  N  N337  1  0.68978208  0.09496878  0.45228107  1
  N  N338  1  0.27069418  0.76092300  0.03759729  1
  N  N339  1  0.20460915  0.57554862  0.95947776  1
  N  N340  1  0.44926850  0.06898134  0.54056645  1
  N  N341  1  0.54241503  0.07266008  0.95731387  1
  N  N342  1  0.46582925  0.07322714  0.96026715  1
  N  N343  1  0.80649179  0.23975694  0.95651511  1
  N  N344  1  0.20964303  0.42530005  0.04182891  1
  N  N345  1  0.55050154  0.40643179  0.95648064  1
  N  N346  1  0.04168170  0.07316979  0.54271574  1
  N  N347  1  0.55570996  0.26059683  0.04368553  1
  N  N348  1  0.28802731  0.42606735  0.03986654  1
  N  N349  1  0.25806756  0.24642747  0.96425745  1
  N  N350  1  0.78505508  0.75951237  0.04258970  1
  N  N351  1  0.80758932  0.90618445  0.95514655  1
  N  N352  1  0.79281294  0.09505931  0.03904431  1
  N  N353  1  0.79304072  0.43234847  0.03728270  1
  N  N354  1  0.51569458  0.92533089  0.03675581  1
  N  N355  1  0.18125421  0.23322055  0.95507566  1
  N  N356  1  0.45410918  0.59843365  0.46356541  1
  N  N357  1  0.76316422  0.57557733  0.53511146  1
  N  N358  1  0.96067347  0.06589083  0.53984704  1
  N  N359  1  0.53177848  0.58545886  0.46357203  1
  N  N360  1  0.06372086  0.05076020  0.59842711  1
  N  N361  1  0.06567624  0.38963876  0.60023836  1
  N  N362  1  0.06513562  0.72037855  0.60056004  1
  N  N363  1  0.56101044  0.05642969  0.59354910  1
  N  N364  1  0.55636431  0.38947733  0.59263619  1
  N  N365  1  0.56025413  0.72792486  0.58930941  1
  N  N366  1  0.44258568  0.27537673  0.09452597  1
  N  N367  1  0.43093743  0.61099441  0.10267939  1
  N  N368  1  0.42608558  0.94497946  0.10322921  1
  N  N369  1  0.94111719  0.27661453  0.09044228  1
  N  N370  1  0.92940091  0.60960817  0.09687557  1
  N  N371  1  0.93048802  0.94544598  0.09971690  1
  N  N372  1  0.43678793  0.05675759  0.90359524  1
  N  N373  1  0.43762763  0.39172319  0.90510170  1
  N  N374  1  0.44147128  0.72282982  0.90424506  1
  N  N375  1  0.93515446  0.05819393  0.90740667  1
  N  N376  1  0.93457618  0.38851683  0.90485419  1
  N  N377  1  0.93789402  0.72216319  0.90195333  1
  N  N378  1  0.05880521  0.28068468  0.40829028  1
  N  N379  1  0.06965853  0.61087282  0.39728794  1
  N  N380  1  0.06821055  0.94410245  0.39682507  1
  N  N381  1  0.56021432  0.27765183  0.39993517  1
  N  N382  1  0.56179331  0.60722944  0.40994582  1
  N  N383  1  0.56896860  0.94242448  0.40567428  1
  N  N384  1  0.32046088  0.22245546  0.60382690  1
  N  N385  1  0.32396918  0.55296811  0.60309480  1
  N  N386  1  0.31196697  0.88948677  0.60290082  1
  N  N387  1  0.81391357  0.22458263  0.59500619  1
  N  N388  1  0.80387681  0.55543826  0.58670501  1
  N  N389  1  0.80726904  0.89036044  0.59289112  1
  N  N390  1  0.18419883  0.11091063  0.09669971  1
  N  N391  1  0.18279046  0.44254049  0.09755341  1
  N  N392  1  0.17981210  0.77826623  0.10148688  1
  N  N393  1  0.68655639  0.11025193  0.09805343  1
  N  N394  1  0.68740044  0.44250208  0.09293335  1
  N  N395  1  0.68373125  0.77749668  0.10043687  1
  N  N396  1  0.17389636  0.21945899  0.89547968  1
  N  N397  1  0.18430608  0.55650323  0.90099533  1
  N  N398  1  0.18808003  0.88944587  0.90404061  1
  N  N399  1  0.69235164  0.22774618  0.91384882  1
  N  N400  1  0.69576461  0.55937587  0.91068711  1
  N  N401  1  0.69535965  0.89044477  0.90874017  1
  N  N402  1  0.31962808  0.10989522  0.39604086  1
  N  N403  1  0.32044368  0.44539848  0.40129396  1
  N  N404  1  0.31951864  0.77906490  0.39409968  1
  N  N405  1  0.80772279  0.11020694  0.41125193  1
  N  N406  1  0.81932920  0.44332079  0.39836967  1
  N  N407  1  0.81101926  0.77673676  0.40742402  1
  N  N408  1  0.43375538  0.27845006  0.40062153  1
  N  N409  1  0.43471441  0.61118306  0.40494783  1
  N  N410  1  0.43879633  0.94333078  0.40253175  1
  N  N411  1  0.93002744  0.27721831  0.40039703  1
  N  N412  1  0.94210988  0.60817922  0.40566400  1
  N  N413  1  0.94062073  0.94185012  0.40523712  1
  N  N414  1  0.06613104  0.05693568  0.90820543  1
  N  N415  1  0.06258077  0.38997020  0.90385385  1
  N  N416  1  0.06794150  0.72305321  0.90679443  1
  N  N417  1  0.56323051  0.05648215  0.89832635  1
  N  N418  1  0.56513844  0.38871794  0.89741315  1
  N  N419  1  0.57116263  0.72202184  0.89520760  1
  N  N420  1  0.07055417  0.27765169  0.09556149  1
  N  N421  1  0.05725271  0.61011874  0.09343706  1
  N  N422  1  0.05844376  0.94524535  0.09474854  1
  N  N423  1  0.57008562  0.27718167  0.10287929  1
  N  N424  1  0.55861704  0.60941722  0.09540345  1
  N  N425  1  0.55395363  0.94460493  0.08980621  1
  N  N426  1  0.43327529  0.05391816  0.60079120  1
  N  N427  1  0.42725181  0.38824429  0.60490243  1
  N  N428  1  0.43193529  0.72112479  0.59673255  1
  N  N429  1  0.93629201  0.06050799  0.59943018  1
  N  N430  1  0.93630094  0.39114474  0.58950494  1
  N  N431  1  0.93477247  0.72255569  0.59917452  1
  N  N432  1  0.19345355  0.11117671  0.41209075  1
  N  N433  1  0.19052114  0.44427571  0.40531846  1
  N  N434  1  0.19339750  0.77591997  0.41057991  1
  N  N435  1  0.68269331  0.11134723  0.39306763  1
  N  N436  1  0.69162875  0.44207938  0.40591588  1
  N  N437  1  0.68397736  0.77917965  0.39546660  1
  N  N438  1  0.29887768  0.22321810  0.91508663  1
  N  N439  1  0.31274273  0.55986503  0.90995519  1
  N  N440  1  0.31813929  0.89041572  0.90259449  1
  N  N441  1  0.81898081  0.22044756  0.89705142  1
  N  N442  1  0.82300996  0.55453669  0.89521037  1
  N  N443  1  0.82315213  0.88962643  0.89600205  1
  N  N444  1  0.31249828  0.10727369  0.09500023  1
  N  N445  1  0.31001824  0.44285439  0.09697996  1
  N  N446  1  0.30638194  0.77625988  0.09123133  1
  N  N447  1  0.81475128  0.11160206  0.09702146  1
  N  N448  1  0.81515936  0.44171041  0.09661533  1
  N  N449  1  0.81020223  0.77540653  0.10043438  1
  N  N450  1  0.19083196  0.22520774  0.59407782  1
  N  N451  1  0.19812746  0.55859617  0.57830817  1
  N  N452  1  0.18566228  0.89079051  0.59581802  1
  N  N453  1  0.68667613  0.22340848  0.59800391  1
  N  N454  1  0.67711294  0.55738414  0.60473182  1
  N  N455  1  0.67739166  0.88947195  0.59968923  1
  Cl  Cl456  1  0.24548727  0.06434544  0.60752259  1
  Cl  Cl457  1  0.24615094  0.38698429  0.62618670  1
  Cl  Cl458  1  0.24853455  0.72025371  0.62032072  1
  Cl  Cl459  1  0.75360051  0.05693355  0.60421446  1
  Cl  Cl460  1  0.74376843  0.38805851  0.61720660  1
  Cl  Cl461  1  0.74858760  0.71965504  0.61000205  1
  Cl  Cl462  1  0.25848260  0.27170154  0.11018757  1
  Cl  Cl463  1  0.24298963  0.61131843  0.10905398  1
  Cl  Cl464  1  0.24383826  0.94726778  0.11358644  1
  Cl  Cl465  1  0.75540798  0.28143428  0.11659254  1
  Cl  Cl466  1  0.74413535  0.60749544  0.11569754  1
  Cl  Cl467  1  0.74024851  0.94238781  0.10901490  1
  Cl  Cl468  1  0.25292886  0.05375279  0.87704522  1
  Cl  Cl469  1  0.24831280  0.38870226  0.89175994  1
  Cl  Cl470  1  0.25680119  0.72135418  0.89199758  1
  Cl  Cl471  1  0.74687221  0.05219360  0.87770917  1
  Cl  Cl472  1  0.75077473  0.38767243  0.89146903  1
  Cl  Cl473  1  0.75326523  0.71545145  0.87510662  1
  Cl  Cl474  1  0.24512771  0.27563790  0.38418361  1
  Cl  Cl475  1  0.25383127  0.61522940  0.37728599  1
  Cl  Cl476  1  0.25242566  0.95245189  0.37726686  1
  Cl  Cl477  1  0.74395338  0.27862717  0.38500449  1
  Cl  Cl478  1  0.75251119  0.60604910  0.39332657  1
  Cl  Cl479  1  0.75612309  0.94805834  0.38056870  1
  Cl  Cl480  1  0.00335650  0.22296031  0.60263837  1
  Cl  Cl481  1  -0.00806950  0.55468376  0.60515022  1
  Cl  Cl482  1  -0.00408453  0.89121976  0.61129807  1
  Cl  Cl483  1  0.50569282  0.21840337  0.62659915  1
  Cl  Cl484  1  0.50235620  0.55857751  0.62084700  1
  Cl  Cl485  1  0.49500353  0.88207650  0.62468523  1
  Cl  Cl486  1  -0.00126315  0.11613572  0.12755973  1
  Cl  Cl487  1  -0.00181533  0.44773921  0.11438290  1
  Cl  Cl488  1  -0.00553793  0.77883641  0.12211423  1
  Cl  Cl489  1  0.49967672  0.11376073  0.11867358  1
  Cl  Cl490  1  0.49932397  0.44544128  0.11343640  1
  Cl  Cl491  1  0.49285953  0.78049871  0.10919012  1
  Cl  Cl492  1  -0.00223207  0.21460314  0.87087343  1
  Cl  Cl493  1  0.00302334  0.55070234  0.87352232  1
  Cl  Cl494  1  0.00553213  0.88541223  0.87939105  1
  Cl  Cl495  1  0.48834381  0.22679169  0.89333652  1
  Cl  Cl496  1  0.50673145  0.55613609  0.88856530  1
  Cl  Cl497  1  0.51093755  0.89250910  0.89396450  1
  Cl  Cl498  1  -0.00072991  0.10777857  0.40336572  1
  Cl  Cl499  1  0.00382503  0.44726699  0.37864449  1
  Cl  Cl500  1  0.00096779  0.77679867  0.39149466  1
  Cl  Cl501  1  0.50061866  0.11317064  0.38146251  1
  Cl  Cl502  1  0.50678533  0.44831429  0.38166544  1
  Cl  Cl503  1  0.50092772  0.77835080  0.37843646  1
  Cl  Cl504  1  0.36186382  0.14719024  0.74597119  1
  Cl  Cl505  1  0.36405498  0.47962118  0.74761685  1
  Cl  Cl506  1  0.36382362  0.81138614  0.75266338  1
  Cl  Cl507  1  0.86394914  0.14589846  0.74546068  1
  Cl  Cl508  1  0.86087461  0.48049368  0.75564414  1
  Cl  Cl509  1  0.86300977  0.81361901  0.75025678  1
  Cl  Cl510  1  0.14211421  0.18629069  0.25237744  1
  Cl  Cl511  1  0.14011278  0.52257292  0.24819090  1
  Cl  Cl512  1  0.13952100  0.85304338  0.24816053  1
  Cl  Cl513  1  0.63788858  0.18680521  0.25287245  1
  Cl  Cl514  1  0.63913363  0.52035320  0.24819478  1
  Cl  Cl515  1  0.64068539  0.85661724  0.25412600  1
  Cl  Cl516  1  0.13804460  0.14670120  0.74808080  1
  Cl  Cl517  1  0.14094146  0.48130166  0.75290009  1
  Cl  Cl518  1  0.14040421  0.81214395  0.75207997  1
  Cl  Cl519  1  0.64417543  0.14528815  0.75125844  1
  Cl  Cl520  1  0.63847176  0.48059734  0.74910918  1
  Cl  Cl521  1  0.63926079  0.81276779  0.74973324  1
  Cl  Cl522  1  0.36281117  0.18788996  0.25466609  1
  Cl  Cl523  1  0.36236437  0.52119823  0.24767800  1
  Cl  Cl524  1  0.36079793  0.85365454  0.25214122  1
  Cl  Cl525  1  0.86092973  0.18732191  0.25299047  1
  Cl  Cl526  1  0.86138285  0.51912930  0.24937254  1
  Cl  Cl527  1  0.86266210  0.85457796  0.24827738  1
  Cl  Cl528  1  0.11273561  0.31352260  0.74899698  1
  Cl  Cl529  1  0.10985625  0.64675130  0.75175429  1
  Cl  Cl530  1  0.11416987  0.97977368  0.74870241  1
  Cl  Cl531  1  0.61208054  0.31334337  0.75591398  1
  Cl  Cl532  1  0.61368832  0.64638192  0.74914971  1
  Cl  Cl533  1  0.61200299  0.97960145  0.74809429  1
  Cl  Cl534  1  0.38768350  0.02111245  0.24830264  1
  Cl  Cl535  1  0.38732015  0.35458812  0.25061881  1
  Cl  Cl536  1  0.39444123  0.68774435  0.24982364  1
  Cl  Cl537  1  0.89338017  0.02158452  0.24846923  1
  Cl  Cl538  1  0.88764076  0.35430263  0.25122967  1
  Cl  Cl539  1  0.88639987  0.68783982  0.24979528  1
  Cl  Cl540  1  0.38724346  0.31245415  0.74791660  1
  Cl  Cl541  1  0.38978117  0.64690139  0.74763817  1
  Cl  Cl542  1  0.38895117  0.97934283  0.74530985  1
  Cl  Cl543  1  0.88733415  0.31279167  0.74908944  1
  Cl  Cl544  1  0.88851045  0.64528615  0.75093801  1
  Cl  Cl545  1  0.89320513  0.97819133  0.75031942  1
  Cl  Cl546  1  0.11159342  0.02054107  0.25716376  1
  Cl  Cl547  1  0.11364899  0.35394330  0.24520383  1
  Cl  Cl548  1  0.11122989  0.68708890  0.24990133  1
  Cl  Cl549  1  0.61005265  0.01974926  0.25201853  1
  Cl  Cl550  1  0.61207246  0.35406634  0.24493617  1
  Cl  Cl551  1  0.61392883  0.68803077  0.25312796  1
