# generated using pymatgen
data_H8PbC4(N3Cl2)2
_symmetry_space_group_name_H-M   'P 1'
_cell_length_a   16.62743695
_cell_length_b   22.50855833
_cell_length_c   21.59119434
_cell_angle_alpha   90.00194003
_cell_angle_beta   90.00758273
_cell_angle_gamma   90.00196722
_symmetry_Int_Tables_number   1
_chemical_formula_structural   H8PbC4(N3Cl2)2
_chemical_formula_sum   'H192 Pb24 C96 N144 Cl96'
_cell_volume   8080.71241803
_cell_formula_units_Z   24
loop_
 _symmetry_equiv_pos_site_id
 _symmetry_equiv_pos_as_xyz
  1  'x, y, z'
loop_
 _atom_site_type_symbol
 _atom_site_label
 _atom_site_symmetry_multiplicity
 _atom_site_fract_x
 _atom_site_fract_y
 _atom_site_fract_z
 _atom_site_occupancy
  H  H0  1  -0.00984454  0.03025793  0.68268880  1
  H  H1  1  -0.00457594  0.36461494  0.68386006  1
  H  H2  1  -0.00930497  0.70030682  0.68143786  1
  H  H3  1  0.50724122  0.02886603  0.67808419  1
  H  H4  1  0.49987046  0.36559028  0.67851614  1
  H  H5  1  0.51097521  0.69483716  0.67719799  1
  H  H6  1  0.00318117  0.30399320  0.18246646  1
  H  H7  1  0.01326409  0.63447227  0.17742577  1
  H  H8  1  -0.00194917  0.97207787  0.17715562  1
  H  H9  1  0.49807519  0.30376614  0.17690820  1
  H  H10  1  0.48350505  0.63567549  0.17816267  1
  H  H11  1  0.50691963  0.97123775  0.18002836  1
  H  H12  1  -0.00646451  0.02903116  0.82179334  1
  H  H13  1  -0.01077681  0.36596589  0.82311552  1
  H  H14  1  0.00093267  0.69542151  0.81839710  1
  H  H15  1  0.51439142  0.03242038  0.82423453  1
  H  H16  1  0.50120542  0.36257803  0.82464888  1
  H  H17  1  0.49962818  0.70118523  0.82593234  1
  H  H18  1  0.01058951  0.30081992  0.31728991  1
  H  H19  1  -0.00032977  0.63860553  0.31928473  1
  H  H20  1  -0.00500857  0.96938788  0.31915250  1
  H  H21  1  0.49179695  0.30359668  0.31803347  1
  H  H22  1  0.49936309  0.63624858  0.32001263  1
  H  H23  1  0.49935406  0.96632485  0.32517236  1
  H  H24  1  0.25742271  0.19982388  0.68424198  1
  H  H25  1  0.24093274  0.53257321  0.68054719  1
  H  H26  1  0.24543648  0.86097174  0.67650752  1
  H  H27  1  0.74186763  0.20058289  0.68128485  1
  H  H28  1  0.76053444  0.53172968  0.68230441  1
  H  H29  1  0.75306158  0.86438208  0.67723880  1
  H  H30  1  0.24921933  0.13556867  0.17958612  1
  H  H31  1  0.25759036  0.46830605  0.17902721  1
  H  H32  1  0.23468563  0.80132255  0.17741197  1
  H  H33  1  0.75082457  0.13529317  0.17907502  1
  H  H34  1  0.75706345  0.46956994  0.17640126  1
  H  H35  1  0.76652253  0.80583106  0.17425119  1
  H  H36  1  0.24060785  0.19673079  0.82330823  1
  H  H37  1  0.24566116  0.51998259  0.82344273  1
  H  H38  1  0.25754457  0.86634282  0.81783943  1
  H  H39  1  0.74957635  0.19268813  0.82103533  1
  H  H40  1  0.75291390  0.52833852  0.82333445  1
  H  H41  1  0.75158404  0.86558688  0.82226208  1
  H  H42  1  0.25180099  0.13543814  0.31893325  1
  H  H43  1  0.24877900  0.47101325  0.31939984  1
  H  H44  1  0.25127838  0.80650480  0.32149314  1
  H  H45  1  0.74173202  0.13560568  0.31863715  1
  H  H46  1  0.75699681  0.46872535  0.32042236  1
  H  H47  1  0.75111693  0.80178850  0.31669868  1
  H  H48  1  0.12007108  0.05148201  0.61539915  1
  H  H49  1  0.12834112  0.38608472  0.62340830  1
  H  H50  1  0.12743214  0.71684412  0.62362170  1
  H  H51  1  0.61659748  0.05591130  0.59568341  1
  H  H52  1  0.62843935  0.38682627  0.61116883  1
  H  H53  1  0.62017734  0.72494557  0.59641033  1
  H  H54  1  0.36815552  0.28011503  0.11078295  1
  H  H55  1  0.38289704  0.60438641  0.09031615  1
  H  H56  1  0.37736810  0.94713821  0.11244503  1
  H  H57  1  0.87089345  0.28418540  0.12034734  1
  H  H58  1  0.87493388  0.61564294  0.12244564  1
  H  H59  1  0.87787634  0.94450052  0.10394556  1
  H  H60  1  0.37582318  0.04994460  0.87749990  1
  H  H61  1  0.38414625  0.39129505  0.89884326  1
  H  H62  1  0.37602634  0.72074101  0.89896384  1
  H  H63  1  0.87766713  0.05504088  0.89968109  1
  H  H64  1  0.88241731  0.39198981  0.90555354  1
  H  H65  1  0.87377693  0.72117947  0.88404969  1
  H  H66  1  0.12008592  0.27695100  0.39938640  1
  H  H67  1  0.12528714  0.61312708  0.38858761  1
  H  H68  1  0.12966319  0.94728002  0.38112268  1
  H  H69  1  0.62298789  0.28025587  0.38254109  1
  H  H70  1  0.62308117  0.61169361  0.39296693  1
  H  H71  1  0.62707976  0.94596597  0.39019424  1
  H  H72  1  0.37646021  0.22024110  0.60930766  1
  H  H73  1  0.37712048  0.55048773  0.62239232  1
  H  H74  1  0.37210294  0.88609349  0.60833385  1
  H  H75  1  0.87852961  0.21856678  0.62382954  1
  H  H76  1  0.87207564  0.55769788  0.60176363  1
  H  H77  1  0.86765302  0.89062199  0.59896531  1
  H  H78  1  0.12669974  0.11252384  0.10922110  1
  H  H79  1  0.12223850  0.44857894  0.11767654  1
  H  H80  1  0.13670380  0.77193827  0.08838842  1
  H  H81  1  0.62530152  0.11196778  0.10765148  1
  H  H82  1  0.62087380  0.44849539  0.11745068  1
  H  H83  1  0.62375944  0.78499009  0.12900038  1
  H  H84  1  0.13857166  0.22669809  0.90877191  1
  H  H85  1  0.12392707  0.55379332  0.89200710  1
  H  H86  1  0.12505166  0.88722888  0.88183406  1
  H  H87  1  0.62862274  0.22014004  0.89405038  1
  H  H88  1  0.62468358  0.55412509  0.89086512  1
  H  H89  1  0.62453018  0.88804180  0.89111027  1
  H  H90  1  0.37799142  0.11113886  0.38540044  1
  H  H91  1  0.37393121  0.44643420  0.38967024  1
  H  H92  1  0.37343916  0.78029738  0.39523789  1
  H  H93  1  0.87918509  0.11690896  0.37810114  1
  H  H94  1  0.86617353  0.44337055  0.40163252  1
  H  H95  1  0.87536554  0.77977103  0.38555098  1
  H  H96  1  0.37355141  0.27953760  0.39284783  1
  H  H97  1  0.37476723  0.61143264  0.39142178  1
  H  H98  1  0.37891108  0.94472956  0.39644565  1
  H  H99  1  0.87323690  0.28197431  0.37671039  1
  H  H100  1  0.87568487  0.61265521  0.38871503  1
  H  H101  1  0.88138667  0.94358398  0.39804667  1
  H  H102  1  0.12566017  0.05336838  0.88290439  1
  H  H103  1  0.12723075  0.38244851  0.87543583  1
  H  H104  1  0.12280548  0.72336788  0.89065520  1
  H  H105  1  0.62124173  0.05541639  0.90585040  1
  H  H106  1  0.63261062  0.38647299  0.88777275  1
  H  H107  1  0.62376107  0.72833989  0.89508220  1
  H  H108  1  0.11956948  0.27986657  0.10680338  1
  H  H109  1  0.12067810  0.60452386  0.09450456  1
  H  H110  1  0.12629693  0.94566772  0.10977014  1
  H  H111  1  0.61623255  0.27701971  0.10104908  1
  H  H112  1  0.62523537  0.61760399  0.12706209  1
  H  H113  1  0.62557715  0.94540127  0.10347661  1
  H  H114  1  0.36981735  0.04794746  0.62144329  1
  H  H115  1  0.37995785  0.39180851  0.60565838  1
  H  H116  1  0.37398776  0.71658195  0.62185657  1
  H  H117  1  0.87126216  0.05561355  0.60771086  1
  H  H118  1  0.87997726  0.38598184  0.60647658  1
  H  H119  1  0.88006419  0.72342129  0.60166260  1
  H  H120  1  0.12896745  0.11274124  0.38967995  1
  H  H121  1  0.12597633  0.44611058  0.39158317  1
  H  H122  1  0.12500035  0.77897400  0.39018991  1
  H  H123  1  0.63209230  0.10826574  0.39977608  1
  H  H124  1  0.61905249  0.44820055  0.37758144  1
  H  H125  1  0.62564116  0.78252147  0.38611065  1
  H  H126  1  0.38265469  0.21573600  0.87300929  1
  H  H127  1  0.37218060  0.55159033  0.88772134  1
  H  H128  1  0.37356955  0.89011727  0.89518405  1
  H  H129  1  0.87623702  0.21955319  0.88893022  1
  H  H130  1  0.87256280  0.55418099  0.89783126  1
  H  H131  1  0.87344404  0.89120071  0.89382445  1
  H  H132  1  0.37582772  0.11313870  0.11281272  1
  H  H133  1  0.37014308  0.44088591  0.09978172  1
  H  H134  1  0.37819837  0.78431282  0.13120792  1
  H  H135  1  0.87422729  0.11128144  0.10579849  1
  H  H136  1  0.86772198  0.44234284  0.09609551  1
  H  H137  1  0.86480053  0.77214707  0.08767017  1
  H  H138  1  0.12717225  0.21956104  0.62045194  1
  H  H139  1  0.12971422  0.55615852  0.60183740  1
  H  H140  1  0.12305073  0.88736311  0.60520304  1
  H  H141  1  0.63116091  0.22134918  0.60118843  1
  H  H142  1  0.62456254  0.55115917  0.62178158  1
  H  H143  1  0.61901212  0.88548579  0.61576555  1
  H  H144  1  0.18709328  0.57109884  0.99745079  1
  H  H145  1  0.80326889  0.58457970  0.49585159  1
  H  H146  1  0.80170747  0.91847274  0.49590205  1
  H  H147  1  0.92739013  0.08598253  0.50129790  1
  H  H148  1  0.92307957  0.58598111  0.49998350  1
  H  H149  1  0.46543810  0.58194257  -0.00690230  1
  H  H150  1  0.69740647  0.24531627  0.49137203  1
  H  H151  1  0.70146059  0.08120487  0.50461137  1
  H  H152  1  0.04854023  0.25294395  0.50578787  1
  H  H153  1  0.54429503  0.07896166  0.49376639  1
  H  H154  1  0.04644934  0.57857013  -0.00561471  1
  H  H155  1  0.67012800  0.75609293  0.49847541  1
  H  H156  1  0.58086362  0.74874596  1.00208163  1
  H  H157  1  0.10985167  0.41315371  -0.00908551  1
  H  H158  1  0.16338910  0.24233045  0.50529568  1
  H  H159  1  0.91596794  0.75088556  0.99557811  1
  H  H160  1  0.21667702  0.25326044  1.00695805  1
  H  H161  1  0.42128977  0.75282431  1.00202261  1
  H  H162  1  0.93803312  0.41002985  0.49693492  1
  H  H163  1  0.22013776  0.75135167  -0.00900164  1
  H  H164  1  0.68588499  0.24666252  0.99826309  1
  H  H165  1  0.06879819  0.74290170  0.99724740  1
  H  H166  1  0.82956805  0.75537047  0.49893854  1
  H  H167  1  0.54799733  0.75277333  0.49555417  1
  H  H168  1  0.16989096  0.08376167  -0.00070208  1
  H  H169  1  0.34066410  0.08128438  0.49624309  1
  H  H170  1  0.66963490  0.58241095  0.99611209  1
  H  H171  1  0.17481181  0.08184143  0.49888350  1
  H  H172  1  0.31700820  0.56814588  0.99452726  1
  H  H173  1  0.79848558  0.41419195  0.50745615  1
  H  H174  1  0.90183572  0.25502615  0.00819818  1
  H  H175  1  0.78186480  0.74878501  -0.00976942  1
  H  H176  1  0.19440453  0.58162194  0.49214916  1
  H  H177  1  0.59543643  0.41569944  0.99492537  1
  H  H178  1  0.07540004  0.59986081  0.49744736  1
  H  H179  1  0.34066261  0.08194038  0.00236234  1
  H  H180  1  0.32438677  0.42320432  0.49561956  1
  H  H181  1  0.64451167  0.42325960  0.48661987  1
  H  H182  1  0.94702355  0.91391057  0.50375869  1
  H  H183  1  0.43125922  0.26050534  0.50465579  1
  H  H184  1  0.94590324  0.74879287  0.49263361  1
  H  H185  1  0.06257009  0.25206383  -0.00244091  1
  H  H186  1  0.09929224  0.41262095  0.51027002  1
  H  H187  1  0.40675171  0.25057244  0.00427793  1
  H  H188  1  0.58182629  0.26429988  0.49247622  1
  H  H189  1  0.32230340  0.23769240  0.49689491  1
  H  H190  1  0.31351577  0.92126211  1.00067330  1
  H  H191  1  0.08102295  0.91910604  0.00468532  1
  Pb  Pb192  1  0.24910336  0.04632042  0.74966344  1
  Pb  Pb193  1  0.25440748  0.38005404  0.74941185  1
  Pb  Pb194  1  0.25467337  0.71437446  0.75970203  1
  Pb  Pb195  1  0.75132900  0.04572652  0.74769982  1
  Pb  Pb196  1  0.75511810  0.38034285  0.75024565  1
  Pb  Pb197  1  0.74365084  0.71616344  0.74607391  1
  Pb  Pb198  1  0.25088010  0.28508774  0.25055749  1
  Pb  Pb199  1  0.25217943  0.61532670  0.24184104  1
  Pb  Pb200  1  0.25073827  0.95424527  0.24719935  1
  Pb  Pb201  1  0.74773303  0.28775364  0.24485475  1
  Pb  Pb202  1  0.74877450  0.62140851  0.25395766  1
  Pb  Pb203  1  0.75602612  0.95016017  0.25359268  1
  Pb  Pb204  1  0.00325926  0.21299621  0.75819329  1
  Pb  Pb205  1  -0.00014051  0.55146203  0.74606176  1
  Pb  Pb206  1  -0.00037872  0.87869859  0.74787634  1
  Pb  Pb207  1  0.50631447  0.21444115  0.74341664  1
  Pb  Pb208  1  0.50170468  0.54478136  0.75883425  1
  Pb  Pb209  1  0.49750306  0.88182985  0.75166444  1
  Pb  Pb210  1  0.00008755  0.12072512  0.24912930  1
  Pb  Pb211  1  -0.00516711  0.45241284  0.25249251  1
  Pb  Pb212  1  0.00543351  0.78353391  0.23965440  1
  Pb  Pb213  1  0.50544234  0.11687420  0.25742826  1
  Pb  Pb214  1  0.50142274  0.45264871  0.24296183  1
  Pb  Pb215  1  0.49883788  0.78781472  0.25507252  1
  C  C216  1  -0.00607048  0.04572100  0.63519280  1
  C  C217  1  0.00158853  0.37910863  0.63610197  1
  C  C218  1  -0.00075512  0.71357535  0.63364622  1
  C  C219  1  0.49815653  0.04357292  0.63071740  1
  C  C220  1  0.50312534  0.38091426  0.63120395  1
  C  C221  1  0.50190675  0.71090671  0.63046229  1
  C  C222  1  -0.00246907  0.28912909  0.13480008  1
  C  C223  1  0.00338209  0.61959594  0.13040827  1
  C  C224  1  0.00114529  0.95475905  0.13034250  1
  C  C225  1  0.49367594  0.28733916  0.12978787  1
  C  C226  1  0.49665335  0.62021941  0.13164314  1
  C  C227  1  0.50312997  0.95596057  0.13244129  1
  C  C228  1  -0.00113692  0.04536635  0.86863701  1
  C  C229  1  0.00056763  0.38027220  0.87020606  1
  C  C230  1  -0.00018402  0.71182155  0.86573539  1
  C  C231  1  0.50331134  0.04604807  0.87174944  1
  C  C232  1  0.50650951  0.37952967  0.87139272  1
  C  C233  1  0.49965487  0.71623222  0.87382570  1
  C  C234  1  0.00094565  0.28668854  0.36474548  1
  C  C235  1  0.00079998  0.62244068  0.36675300  1
  C  C236  1  0.00228132  0.95382477  0.36637057  1
  C  C237  1  0.49676288  0.28789293  0.36550890  1
  C  C238  1  0.49910195  0.62060223  0.36751382  1
  C  C239  1  0.50192393  0.95209137  0.37306679  1
  C  C240  1  0.25352001  0.21346917  0.63605078  1
  C  C241  1  0.24907461  0.54619363  0.63286602  1
  C  C242  1  0.24694237  0.87818569  0.62983744  1
  C  C243  1  0.75047195  0.21347249  0.63341451  1
  C  C244  1  0.75220650  0.54657156  0.63494614  1
  C  C245  1  0.74681490  0.87977609  0.62994872  1
  C  C246  1  0.25060691  0.12015021  0.13190406  1
  C  C247  1  0.24963767  0.45266085  0.13219318  1
  C  C248  1  0.24984490  0.78696232  0.13087555  1
  C  C249  1  0.75009202  0.12003266  0.13148230  1
  C  C250  1  0.74819361  0.45372675  0.12969486  1
  C  C251  1  0.75187189  0.78909665  0.12850163  1
  C  C252  1  0.25379046  0.21268109  0.86970174  1
  C  C253  1  0.24735559  0.54013750  0.86918190  1
  C  C254  1  0.25172130  0.88137045  0.86538001  1
  C  C255  1  0.75132690  0.20998302  0.86785388  1
  C  C256  1  0.74950520  0.54505200  0.87036822  1
  C  C257  1  0.74962817  0.88148700  0.86939027  1
  C  C258  1  0.25306525  0.11967847  0.36651375  1
  C  C259  1  0.24989994  0.45490179  0.36671000  1
  C  C260  1  0.24999741  0.78937971  0.36843646  1
  C  C261  1  0.75135705  0.12065160  0.36586538  1
  C  C262  1  0.74671976  0.45407319  0.36780459  1
  C  C263  1  0.75060004  0.78751174  0.36476594  1
  C  C264  1  0.97711395  0.73842935  0.53557720  1
  C  C265  1  0.94116339  0.59062385  0.04432793  1
  C  C266  1  0.46994386  0.41088954  0.53777304  1
  C  C267  1  0.79115735  0.76386330  0.45917140  1
  C  C268  1  0.73177310  0.09315902  0.46158116  1
  C  C269  1  0.27870382  0.90883769  0.95994612  1
  C  C270  1  0.32060254  0.23906272  0.95404222  1
  C  C271  1  0.54726476  0.92668351  0.46422628  1
  C  C272  1  0.77311521  0.57368960  0.53919124  1
  C  C273  1  0.52239752  0.07216981  0.96752006  1
  C  C274  1  0.21498483  0.09277349  0.46078522  1
  C  C275  1  0.22569204  0.57185051  0.53520265  1
  C  C276  1  0.02813132  0.26308890  0.03883290  1
  C  C277  1  0.27385769  0.42158344  0.03782078  1
  C  C278  1  0.21226275  0.09335284  0.03740453  1
  C  C279  1  0.77003736  0.42241643  0.03500228  1
  C  C280  1  0.29464472  0.09312851  0.03887503  1
  C  C281  1  0.95504931  0.74097566  0.95652602  1
  C  C282  1  0.96037800  0.59547497  0.45968561  1
  C  C283  1  0.47386900  0.41197165  0.96533978  1
  C  C284  1  0.28695597  0.23340437  0.53903370  1
  C  C285  1  0.97869966  0.92535187  0.46121485  1
  C  C286  1  0.29709726  0.09230002  0.45934578  1
  C  C287  1  0.76912646  0.42604396  0.46412000  1
  C  C288  1  0.30631777  0.57017451  0.54443213  1
  C  C289  1  0.68125726  0.76002663  0.04666112  1
  C  C290  1  0.97237773  0.40237222  0.53901868  1
  C  C291  1  0.80836037  0.23602547  0.54490497  1
  C  C292  1  0.06122881  0.40526028  0.95789892  1
  C  C293  1  0.44186170  0.74205798  0.54458738  1
  C  C294  1  0.43761733  0.06994998  0.54323683  1
  C  C295  1  0.46636892  0.92626751  0.46648708  1
  C  C296  1  0.32129117  0.76371710  0.04736658  1
  C  C297  1  0.05407072  0.40289084  0.54525148  1
  C  C298  1  0.05752101  0.73612879  0.54498067  1
  C  C299  1  0.46343682  0.26397749  0.46097656  1
  C  C300  1  0.72791091  0.23685468  0.53506103  1
  C  C301  1  0.98076777  0.40863261  0.96671118  1
  C  C302  1  0.96366061  0.07413573  0.54140761  1
  C  C303  1  0.44232523  0.07017101  0.95837870  1
  C  C304  1  0.20527803  0.23428180  0.54307855  1
  C  C305  1  0.04736297  0.07523482  0.95749410  1
  C  C306  1  0.69209050  0.90898417  0.54089720  1
  C  C307  1  0.78401640  0.91181739  0.96156334  1
  C  C308  1  0.02003522  0.26209785  0.46146147  1
  C  C309  1  0.21224189  0.91095428  0.53861694  1
  C  C310  1  0.94626310  0.26466935  0.04377010  1
  C  C311  1  0.70918432  0.76458475  0.45905144  1
  N  N312  1  0.56433922  0.59570721  0.04765825  1
  N  N313  1  0.53951995  0.74708030  0.96425758  1
  N  N314  1  0.19678998  0.42456995  0.04260451  1
  N  N315  1  0.46023066  0.59193536  0.46043936  1
  N  N316  1  0.01918592  0.58857148  0.03576532  1
  N  N317  1  0.28712623  0.42824126  0.45808919  1
  N  N318  1  0.28954272  0.91099099  0.53845493  1
  N  N319  1  0.20977385  0.58386905  0.95496051  1
  N  N320  1  0.03477592  0.74202096  0.95764788  1
  N  N321  1  0.52007574  0.74365397  0.53686968  1
  N  N322  1  0.77090399  0.90988066  0.53613539  1
  N  N323  1  0.46177228  0.73554464  0.96812915  1
  N  N324  1  0.81046751  0.09574350  0.45439835  1
  N  N325  1  0.05754742  0.92603459  0.45555936  1
  N  N326  1  0.69049977  0.42830361  0.45471960  1
  N  N327  1  0.70656547  0.91047081  0.96213357  1
  N  N328  1  0.45858921  0.92779022  0.04077586  1
  N  N329  1  0.04180672  0.92539953  0.04095064  1
  N  N330  1  0.19934183  0.90715709  0.95626952  1
  N  N331  1  0.78667567  0.57439449  0.96363593  1
  N  N332  1  0.48777865  0.59066489  0.03705427  1
  N  N333  1  0.96366948  0.92525731  0.03710000  1
  N  N334  1  0.29209890  0.58288563  0.95353294  1
  N  N335  1  0.53471241  0.92727997  0.03782829  1
  N  N336  1  0.28534574  0.75711460  0.46089461  1
  N  N337  1  0.44959315  0.25851522  0.04081237  1
  N  N338  1  0.94150348  0.26376933  0.45367323  1
  N  N339  1  0.79741044  0.24027135  0.95831739  1
  N  N340  1  0.69454415  0.57236866  0.54601195  1
  N  N341  1  0.71080070  0.09263802  0.03839092  1
  N  N342  1  0.04016393  0.59542857  0.45892619  1
  N  N343  1  0.20927745  0.75685795  0.45949784  1
  N  N344  1  0.53635887  0.59210960  0.46088643  1
  N  N345  1  0.51607918  0.07278909  0.53572217  1
  N  N346  1  0.70851940  0.57486912  0.95973992  1
  N  N347  1  0.24294336  0.24301763  0.96503518  1
  N  N348  1  0.69287417  0.42491652  0.04081680  1
  N  N349  1  0.04294228  0.07276730  0.54363347  1
  N  N350  1  0.20898491  0.42911989  0.46015493  1
  N  N351  1  0.97003549  0.07604014  0.96424150  1
  N  N352  1  0.55264287  0.40885696  0.96063977  1
  N  N353  1  0.52766276  0.25714560  0.03623636  1
  N  N354  1  0.75855649  0.75562526  0.03389828  1
  N  N355  1  0.24408692  0.75932164  0.03436501  1
  N  N356  1  0.71927080  0.24125616  0.95875495  1
  N  N357  1  0.78703137  0.09235050  0.03787275  1
  N  N358  1  0.54781339  0.40885206  0.53847631  1
  N  N359  1  0.54278649  0.26233940  0.45602286  1
  N  N360  1  0.05983720  0.05521221  0.60223723  1
  N  N361  1  0.07061274  0.38864490  0.60575799  1
  N  N362  1  0.07045429  0.72155638  0.60414902  1
  N  N363  1  0.55431533  0.05415530  0.58891290  1
  N  N364  1  0.56843106  0.38995877  0.59785982  1
  N  N365  1  0.55838819  0.72253969  0.58908131  1
  N  N366  1  0.42782174  0.27758708  0.09712326  1
  N  N367  1  0.44492996  0.60799976  0.08688400  1
  N  N368  1  0.43759333  0.94562873  0.09941529  1
  N  N369  1  0.92881186  0.28063539  0.10356087  1
  N  N370  1  0.93119726  0.60959664  0.10284530  1
  N  N371  1  0.93888390  0.94251561  0.09355104  1
  N  N372  1  0.43117841  0.05449846  0.89901461  1
  N  N373  1  0.44511244  0.39401226  0.91010080  1
  N  N374  1  0.43642590  0.72365302  0.91027133  1
  N  N375  1  0.93967772  0.05679620  0.90759364  1
  N  N376  1  0.94418302  0.39343485  0.91391346  1
  N  N377  1  0.93309645  0.72384347  0.89910917  1
  N  N378  1  0.05832216  0.27590901  0.40718273  1
  N  N379  1  0.06486226  0.61533725  0.40229749  1
  N  N380  1  0.07038221  0.94382547  0.39647431  1
  N  N381  1  0.56320887  0.27967870  0.39777627  1
  N  N382  1  0.56211083  0.60956365  0.40322302  1
  N  N383  1  0.56893759  0.94215223  0.40701817  1
  N  N384  1  0.31589998  0.22105528  0.59741536  1
  N  N385  1  0.31995000  0.55494196  0.60323648  1
  N  N386  1  0.31145366  0.89047072  0.59650068  1
  N  N387  1  0.82164066  0.22207274  0.60414089  1
  N  N388  1  0.81037131  0.55800845  0.59344678  1
  N  N389  1  0.80573761  0.89050520  0.59034372  1
  N  N390  1  0.18667633  0.11005036  0.09580430  1
  N  N391  1  0.18121355  0.44367871  0.10252145  1
  N  N392  1  0.19910615  0.77561005  0.08535403  1
  N  N393  1  0.68628215  0.10959751  0.09638586  1
  N  N394  1  0.67926229  0.44454084  0.10114089  1
  N  N395  1  0.67743490  0.77914024  0.10561851  1
  N  N396  1  0.20101835  0.22527728  0.91333571  1
  N  N397  1  0.18480776  0.55397289  0.90412522  1
  N  N398  1  0.18455840  0.89046386  0.89676587  1
  N  N399  1  0.68971427  0.22028500  0.90494527  1
  N  N400  1  0.68447550  0.55624273  0.90354681  1
  N  N401  1  0.68495500  0.89166042  0.90332435  1
  N  N402  1  0.31902045  0.10908477  0.40030614  1
  N  N403  1  0.31339872  0.44588753  0.40218691  1
  N  N404  1  0.31223221  0.77750138  0.40462778  1
  N  N405  1  0.82071888  0.11274534  0.39474318  1
  N  N406  1  0.80447220  0.44158987  0.41003187  1
  N  N407  1  0.81573664  0.77791674  0.40020634  1
  N  N408  1  0.43435296  0.27760777  0.40433037  1
  N  N409  1  0.43543940  0.61009301  0.40283532  1
  N  N410  1  0.43861629  0.94159009  0.41090754  1
  N  N411  1  0.93146879  0.27881241  0.39355116  1
  N  N412  1  0.93588379  0.61026047  0.40211866  1
  N  N413  1  0.94315407  0.94198213  0.40681783  1
  N  N414  1  0.06738706  0.05713725  0.89956419  1
  N  N415  1  0.07212324  0.38786787  0.89676765  1
  N  N416  1  0.06222629  0.72037580  0.90259443  1
  N  N417  1  0.55991714  0.05772957  0.91519328  1
  N  N418  1  0.57344160  0.38819503  0.90295881  1
  N  N419  1  0.56364656  0.72764533  0.90838706  1
  N  N420  1  0.05861943  0.27826527  0.09583197  1
  N  N421  1  0.05896887  0.60820471  0.08816934  1
  N  N422  1  0.06609895  0.94431124  0.09684898  1
  N  N423  1  0.55457566  0.27475044  0.09193560  1
  N  N424  1  0.56914465  0.61213963  0.10717951  1
  N  N425  1  0.56398428  0.94486900  0.09444715  1
  N  N426  1  0.42654532  0.05326381  0.60244370  1
  N  N427  1  0.44065636  0.39368795  0.59363982  1
  N  N428  1  0.43044305  0.72238668  0.60253962  1
  N  N429  1  0.93208449  0.05778474  0.59730613  1
  N  N430  1  0.94104482  0.38792196  0.59607856  1
  N  N431  1  0.94123808  0.72416713  0.59224041  1
  N  N432  1  0.18915078  0.10982552  0.40280223  1
  N  N433  1  0.18654036  0.44379452  0.40257279  1
  N  N434  1  0.18563882  0.77676070  0.40219345  1
  N  N435  1  0.69412568  0.10821639  0.40763630  1
  N  N436  1  0.67696783  0.44696164  0.39591245  1
  N  N437  1  0.68523729  0.77923782  0.40007445  1
  N  N438  1  0.32753435  0.22122100  0.89466243  1
  N  N439  1  0.31247475  0.55259139  0.90171936  1
  N  N440  1  0.31211318  0.89302484  0.90470133  1
  N  N441  1  0.81662561  0.22296322  0.90079420  1
  N  N442  1  0.81158968  0.55667444  0.90750951  1
  N  N443  1  0.81328793  0.89403830  0.90593588  1
  N  N444  1  0.31648481  0.10984424  0.09805259  1
  N  N445  1  0.30853080  0.43873365  0.09163432  1
  N  N446  1  0.32464240  0.77938384  0.10751161  1
  N  N447  1  0.81299989  0.10945957  0.09544298  1
  N  N448  1  0.80610674  0.43985684  0.08821506  1
  N  N449  1  0.80310871  0.77652255  0.08364198  1
  N  N450  1  0.18578133  0.22200646  0.60356085  1
  N  N451  1  0.19073901  0.55665571  0.59171781  1
  N  N452  1  0.18311011  0.89113089  0.59360709  1
  N  N453  1  0.69245751  0.22266730  0.59167796  1
  N  N454  1  0.68335377  0.55570034  0.60563190  1
  N  N455  1  0.67715058  0.89090789  0.59917587  1
  Cl  Cl456  1  0.24440714  0.05125538  0.61742866  1
  Cl  Cl457  1  0.25791498  0.39128974  0.61551669  1
  Cl  Cl458  1  0.25086708  0.71127943  0.63263982  1
  Cl  Cl459  1  0.74001524  0.05450992  0.60972023  1
  Cl  Cl460  1  0.75449566  0.38733754  0.61335311  1
  Cl  Cl461  1  0.74714791  0.72643256  0.61126243  1
  Cl  Cl462  1  0.24446471  0.27655428  0.10746959  1
  Cl  Cl463  1  0.25201946  0.60016021  0.09524714  1
  Cl  Cl464  1  0.25082707  0.94284982  0.11181344  1
  Cl  Cl465  1  0.73773291  0.27897575  0.10924126  1
  Cl  Cl466  1  0.74974688  0.61800963  0.12182956  1
  Cl  Cl467  1  0.75211813  0.94274661  0.12117203  1
  Cl  Cl468  1  0.24787863  0.05483893  0.88046523  1
  Cl  Cl469  1  0.26143298  0.38638654  0.88117124  1
  Cl  Cl470  1  0.24753775  0.72717023  0.89791342  1
  Cl  Cl471  1  0.75153532  0.05279479  0.87906008  1
  Cl  Cl472  1  0.75963858  0.38862652  0.88371470  1
  Cl  Cl473  1  0.74850049  0.72714224  0.88980332  1
  Cl  Cl474  1  0.24697148  0.27919076  0.38469180  1
  Cl  Cl475  1  0.24777317  0.60802090  0.37636267  1
  Cl  Cl476  1  0.25408398  0.94633445  0.37488501  1
  Cl  Cl477  1  0.74431020  0.28200682  0.37892401  1
  Cl  Cl478  1  0.75134319  0.61086723  0.38880516  1
  Cl  Cl479  1  0.75922745  0.94215638  0.39255481  1
  Cl  Cl480  1  0.00397822  0.22213758  0.62499021  1
  Cl  Cl481  1  -0.00066526  0.56130297  0.60996667  1
  Cl  Cl482  1  -0.00909962  0.88750252  0.61207213  1
  Cl  Cl483  1  0.50396818  0.22394526  0.60674694  1
  Cl  Cl484  1  0.50100323  0.54825305  0.63122806  1
  Cl  Cl485  1  0.49538203  0.88075338  0.61881163  1
  Cl  Cl486  1  -0.00116757  0.11234198  0.11903105  1
  Cl  Cl487  1  -0.00846463  0.45016618  0.11948040  1
  Cl  Cl488  1  0.00767124  0.76967271  0.09729495  1
  Cl  Cl489  1  0.50280406  0.11657542  0.12619741  1
  Cl  Cl490  1  0.49355552  0.44373118  0.10763518  1
  Cl  Cl491  1  0.50094697  0.77556421  0.12015083  1
  Cl  Cl492  1  0.01178252  0.22416445  0.89303372  1
  Cl  Cl493  1  0.00164543  0.55748791  0.89149117  1
  Cl  Cl494  1  0.00020515  0.88622132  0.88116975  1
  Cl  Cl495  1  0.50771899  0.22174164  0.87630971  1
  Cl  Cl496  1  0.49541055  0.55803117  0.89888245  1
  Cl  Cl497  1  0.49750857  0.88311374  0.88234062  1
  Cl  Cl498  1  0.00437111  0.11463864  0.38139984  1
  Cl  Cl499  1  -0.00405714  0.44703577  0.38837324  1
  Cl  Cl500  1  0.00072389  0.77758921  0.37378861  1
  Cl  Cl501  1  0.50977718  0.10769491  0.39590245  1
  Cl  Cl502  1  0.49464814  0.44367225  0.37597946  1
  Cl  Cl503  1  0.50026424  0.77800470  0.39217279  1
  Cl  Cl504  1  0.35884707  0.14621628  0.75225265  1
  Cl  Cl505  1  0.36319618  0.48119879  0.75155375  1
  Cl  Cl506  1  0.35842246  0.81183531  0.75133222  1
  Cl  Cl507  1  0.86381322  0.14701461  0.74630708  1
  Cl  Cl508  1  0.85991299  0.48257152  0.75073866  1
  Cl  Cl509  1  0.86239076  0.81292259  0.75132699  1
  Cl  Cl510  1  0.13807834  0.18703525  0.24655387  1
  Cl  Cl511  1  0.13726041  0.52190947  0.24642945  1
  Cl  Cl512  1  0.13886769  0.85311418  0.24621513  1
  Cl  Cl513  1  0.63870965  0.18648970  0.25311690  1
  Cl  Cl514  1  0.63687613  0.52024411  0.24625925  1
  Cl  Cl515  1  0.63600255  0.85396046  0.24752578  1
  Cl  Cl516  1  0.13836843  0.14538172  0.74785279  1
  Cl  Cl517  1  0.14153570  0.47888227  0.75203488  1
  Cl  Cl518  1  0.13618967  0.81016910  0.75497514  1
  Cl  Cl519  1  0.64320524  0.14873982  0.74854805  1
  Cl  Cl520  1  0.63925881  0.47893408  0.75251533  1
  Cl  Cl521  1  0.64004437  0.81104326  0.75049180  1
  Cl  Cl522  1  0.35823394  0.18862456  0.25210946  1
  Cl  Cl523  1  0.35462171  0.52076217  0.24513701  1
  Cl  Cl524  1  0.36171234  0.85317155  0.24237967  1
  Cl  Cl525  1  0.86262266  0.18902646  0.25289179  1
  Cl  Cl526  1  0.85727515  0.51937362  0.25276440  1
  Cl  Cl527  1  0.85655169  0.85233285  0.25058168  1
  Cl  Cl528  1  0.11801727  0.31222746  0.75064866  1
  Cl  Cl529  1  0.11007452  0.64431557  0.75396876  1
  Cl  Cl530  1  0.11342196  0.97874285  0.75195147  1
  Cl  Cl531  1  0.60912813  0.31338174  0.74795236  1
  Cl  Cl532  1  0.60999754  0.64781051  0.75676071  1
  Cl  Cl533  1  0.60896076  0.98075888  0.74829960  1
  Cl  Cl534  1  0.38721380  0.02117505  0.25147522  1
  Cl  Cl535  1  0.38743727  0.35293749  0.24851569  1
  Cl  Cl536  1  0.38814792  0.68617216  0.24666583  1
  Cl  Cl537  1  0.89159102  0.01835751  0.25142311  1
  Cl  Cl538  1  0.88607810  0.35388382  0.25273484  1
  Cl  Cl539  1  0.88746101  0.68641893  0.24668705  1
  Cl  Cl540  1  0.38918929  0.31153197  0.75107797  1
  Cl  Cl541  1  0.38923206  0.64537143  0.75926479  1
  Cl  Cl542  1  0.38769849  0.97957944  0.75067255  1
  Cl  Cl543  1  0.89464839  0.31560222  0.75315556  1
  Cl  Cl544  1  0.89205005  0.64605064  0.75194249  1
  Cl  Cl545  1  0.89067963  0.98036599  0.75005166  1
  Cl  Cl546  1  0.11296318  0.02073327  0.24988423  1
  Cl  Cl547  1  0.10960632  0.35410327  0.24862321  1
  Cl  Cl548  1  0.10681018  0.68747016  0.24689985  1
  Cl  Cl549  1  0.60763318  0.02035579  0.25723437  1
  Cl  Cl550  1  0.60839774  0.35426596  0.25010864  1
  Cl  Cl551  1  0.61128981  0.68766320  0.24650573  1
