# generated using pymatgen
data_H8PbC4(N3Cl2)2
_symmetry_space_group_name_H-M   'P 1'
_cell_length_a   16.62797564
_cell_length_b   22.51316908
_cell_length_c   21.59318227
_cell_angle_alpha   90.00118457
_cell_angle_beta   89.98183346
_cell_angle_gamma   90.00398446
_symmetry_Int_Tables_number   1
_chemical_formula_structural   H8PbC4(N3Cl2)2
_chemical_formula_sum   'H192 Pb24 C96 N144 Cl96'
_cell_volume   8083.37339325
_cell_formula_units_Z   24
loop_
 _symmetry_equiv_pos_site_id
 _symmetry_equiv_pos_as_xyz
  1  'x, y, z'
loop_
 _atom_site_type_symbol
 _atom_site_label
 _atom_site_symmetry_multiplicity
 _atom_site_fract_x
 _atom_site_fract_y
 _atom_site_fract_z
 _atom_site_occupancy
  H  H0  1  -0.00602219  0.03194134  0.68293612  1
  H  H1  1  -0.01140614  0.36633583  0.67773614  1
  H  H2  1  -0.01594629  0.69852622  0.67422597  1
  H  H3  1  0.49764170  0.02927627  0.68122682  1
  H  H4  1  0.49921011  0.36068723  0.67940516  1
  H  H5  1  0.50751499  0.69473992  0.67731184  1
  H  H6  1  0.00259251  0.30550803  0.17633111  1
  H  H7  1  0.00658932  0.63244147  0.17774685  1
  H  H8  1  -0.00167638  0.97010212  0.18074380  1
  H  H9  1  0.49171019  0.30218725  0.17878145  1
  H  H10  1  0.49645165  0.63895170  0.17327582  1
  H  H11  1  0.50610657  0.96996169  0.17593041  1
  H  H12  1  -0.00704766  0.02889400  0.81928725  1
  H  H13  1  0.00262335  0.36120302  0.82143022  1
  H  H14  1  0.00165718  0.69388439  0.81727121  1
  H  H15  1  0.51008085  0.02716948  0.82369573  1
  H  H16  1  0.49328725  0.36688824  0.82135635  1
  H  H17  1  0.49991276  0.69558660  0.82147545  1
  H  H18  1  0.00905827  0.30715658  0.32296020  1
  H  H19  1  0.00304051  0.63894914  0.32473545  1
  H  H20  1  -0.00130337  0.96636576  0.31886340  1
  H  H21  1  0.49663074  0.30251042  0.32587137  1
  H  H22  1  0.50383615  0.63998602  0.32000624  1
  H  H23  1  0.49870665  0.96704238  0.31899110  1
  H  H24  1  0.24489005  0.20151743  0.67878810  1
  H  H25  1  0.24347110  0.53143996  0.68025905  1
  H  H26  1  0.23656375  0.85838429  0.67780227  1
  H  H27  1  0.74799884  0.19862922  0.68102560  1
  H  H28  1  0.74796607  0.53087802  0.67644632  1
  H  H29  1  0.76043522  0.86420595  0.68035495  1
  H  H30  1  0.25103799  0.13936526  0.17921121  1
  H  H31  1  0.25158500  0.47135255  0.17941266  1
  H  H32  1  0.23465538  0.80326210  0.17750979  1
  H  H33  1  0.73927051  0.13708806  0.17893920  1
  H  H34  1  0.76429305  0.46966664  0.17326412  1
  H  H35  1  0.76420035  0.80112675  0.17743098  1
  H  H36  1  0.24975206  0.19471385  0.82006625  1
  H  H37  1  0.23932039  0.52894465  0.82488257  1
  H  H38  1  0.23119737  0.86851277  0.82042853  1
  H  H39  1  0.75525941  0.19964288  0.82170809  1
  H  H40  1  0.75855755  0.52885346  0.82440099  1
  H  H41  1  0.76809554  0.86457318  0.82354767  1
  H  H42  1  0.25280178  0.13594732  0.31664082  1
  H  H43  1  0.25424252  0.47024053  0.31899636  1
  H  H44  1  0.25184500  0.80170602  0.32186927  1
  H  H45  1  0.74880953  0.13832099  0.31787492  1
  H  H46  1  0.75239394  0.47007998  0.32273259  1
  H  H47  1  0.74752234  0.80314648  0.32135087  1
  H  H48  1  0.12442324  0.04896603  0.61597862  1
  H  H49  1  0.12183858  0.38558723  0.61896559  1
  H  H50  1  0.12514987  0.71630718  0.62567453  1
  H  H51  1  0.62632604  0.05117070  0.61289501  1
  H  H52  1  0.62286153  0.38612739  0.60757473  1
  H  H53  1  0.62098112  0.72254188  0.59796654  1
  H  H54  1  0.38260764  0.27746463  0.09699946  1
  H  H55  1  0.37468524  0.61222225  0.10155783  1
  H  H56  1  0.37563884  0.94502080  0.11442393  1
  H  H57  1  0.88242865  0.27922140  0.10401772  1
  H  H58  1  0.87642620  0.61143593  0.11547759  1
  H  H59  1  0.87814604  0.94403803  0.10802216  1
  H  H60  1  0.36815147  0.04792038  0.87345987  1
  H  H61  1  0.38277483  0.39111431  0.90111361  1
  H  H62  1  0.37696668  0.72188138  0.89436149  1
  H  H63  1  0.87154298  0.05748281  0.89108163  1
  H  H64  1  0.88026306  0.38842428  0.89371526  1
  H  H65  1  0.87708945  0.72054965  0.88777361  1
  H  H66  1  0.11395572  0.27673785  0.40775960  1
  H  H67  1  0.11231407  0.60833370  0.40494159  1
  H  H68  1  0.12355047  0.94509697  0.38864776  1
  H  H69  1  0.62081537  0.28194103  0.39430308  1
  H  H70  1  0.61934176  0.61093186  0.39852184  1
  H  H71  1  0.62424809  0.94480553  0.39022975  1
  H  H72  1  0.38263735  0.21727978  0.61863055  1
  H  H73  1  0.38367991  0.54805479  0.62892426  1
  H  H74  1  0.37381267  0.88426090  0.62370731  1
  H  H75  1  0.88055514  0.22269419  0.61988419  1
  H  H76  1  0.88370438  0.55123804  0.61691139  1
  H  H77  1  0.87131053  0.88595038  0.60043173  1
  H  H78  1  0.13143516  0.11225782  0.10506530  1
  H  H79  1  0.12163684  0.44837460  0.11290010  1
  H  H80  1  0.12785992  0.77360621  0.09404396  1
  H  H81  1  0.63493273  0.10809322  0.09284973  1
  H  H82  1  0.62270933  0.45141796  0.12220395  1
  H  H83  1  0.62361630  0.78210384  0.12444013  1
  H  H84  1  0.11736822  0.22016397  0.88411658  1
  H  H85  1  0.13167830  0.55883773  0.90633528  1
  H  H86  1  0.13279009  0.89158387  0.90861470  1
  H  H87  1  0.61756934  0.21803288  0.87785588  1
  H  H88  1  0.62660970  0.55276110  0.88676211  1
  H  H89  1  0.62581399  0.88272336  0.87346921  1
  H  H90  1  0.37299488  0.11371133  0.38992973  1
  H  H91  1  0.37423288  0.44516361  0.39033709  1
  H  H92  1  0.37342910  0.77904328  0.39358067  1
  H  H93  1  0.87268441  0.10976032  0.38868327  1
  H  H94  1  0.87628090  0.44723690  0.39317609  1
  H  H95  1  0.87499482  0.77917979  0.39029261  1
  H  H96  1  0.37245901  0.28123063  0.39444125  1
  H  H97  1  0.37193402  0.61361168  0.38354813  1
  H  H98  1  0.37608769  0.94395484  0.39368959  1
  H  H99  1  0.86868578  0.28798525  0.37467146  1
  H  H100  1  0.86618543  0.61797672  0.38252834  1
  H  H101  1  0.87382778  0.94438593  0.38996520  1
  H  H102  1  0.12051358  0.05264247  0.88724515  1
  H  H103  1  0.12952308  0.38817345  0.88855140  1
  H  H104  1  0.12673647  0.71776519  0.88630388  1
  H  H105  1  0.61264763  0.06108590  0.90807888  1
  H  H106  1  0.63047011  0.38562462  0.87830080  1
  H  H107  1  0.62522146  0.72095823  0.89272830  1
  H  H108  1  0.13122018  0.28079128  0.11064107  1
  H  H109  1  0.12510121  0.61145983  0.10184965  1
  H  H110  1  0.12586996  0.94936241  0.11303286  1
  H  H111  1  0.62946395  0.28431262  0.12091748  1
  H  H112  1  0.62362253  0.61298253  0.10781481  1
  H  H113  1  0.62377469  0.94173951  0.09994619  1
  H  H114  1  0.37771273  0.05541852  0.60849900  1
  H  H115  1  0.37381328  0.38435824  0.61049085  1
  H  H116  1  0.37362263  0.71924344  0.61881575  1
  H  H117  1  0.87747738  0.05987336  0.60879242  1
  H  H118  1  0.87416773  0.39177016  0.60011314  1
  H  H119  1  0.88175913  0.72489451  0.59028909  1
  H  H120  1  0.12408751  0.11107324  0.38401554  1
  H  H121  1  0.12472758  0.44830700  0.38454121  1
  H  H122  1  0.12444141  0.77965432  0.38747413  1
  H  H123  1  0.62331778  0.11834684  0.38726172  1
  H  H124  1  0.62701195  0.44700520  0.38956319  1
  H  H125  1  0.62616653  0.77872314  0.39688531  1
  H  H126  1  0.36529114  0.22317076  0.89840622  1
  H  H127  1  0.37747964  0.54972260  0.88100997  1
  H  H128  1  0.37557212  0.88188464  0.86806489  1
  H  H129  1  0.86458135  0.22523476  0.90155369  1
  H  H130  1  0.87486155  0.55681412  0.89891102  1
  H  H131  1  0.86747045  0.89559945  0.91181135  1
  H  H132  1  0.37990847  0.11459425  0.11361554  1
  H  H133  1  0.37036982  0.44583457  0.10553487  1
  H  H134  1  0.37356481  0.78357968  0.12312944  1
  H  H135  1  0.87902142  0.11769984  0.12494008  1
  H  H136  1  0.86631049  0.43998058  0.08840324  1
  H  H137  1  0.86754374  0.77320668  0.09017172  1
  H  H138  1  0.13631810  0.22767001  0.59500375  1
  H  H139  1  0.13862454  0.55761743  0.59689900  1
  H  H140  1  0.12742504  0.88811231  0.59653679  1
  H  H141  1  0.63288394  0.22282500  0.60144569  1
  H  H142  1  0.63694699  0.55760771  0.59668090  1
  H  H143  1  0.62374803  0.88143343  0.62258063  1
  H  H144  1  0.88411053  0.25663037  0.48852383  1
  H  H145  1  0.92779457  0.73729565  0.99540451  1
  H  H146  1  0.36928254  0.57625224  0.51451521  1
  H  H147  1  0.60921522  0.25313642  0.01196212  1
  H  H148  1  0.82229014  0.09261283  0.49586146  1
  H  H149  1  0.08956054  0.24920664  0.00552545  1
  H  H150  1  0.89271837  0.58327111  0.48880951  1
  H  H151  1  0.93955030  0.89858280  0.01424242  1
  H  H152  1  0.20907633  0.58342956  0.49198830  1
  H  H153  1  0.09593719  0.41822629  0.50512523  1
  H  H154  1  0.53365944  0.08646761  1.00659408  1
  H  H155  1  0.78291447  0.91978788  1.00832385  1
  H  H156  1  0.20105033  0.91441695  0.49538546  1
  H  H157  1  0.90951115  0.58118209  0.00196406  1
  H  H158  1  0.66131047  0.58229846  0.99331376  1
  H  H159  1  0.07358028  0.94840865  0.00486302  1
  H  H160  1  0.03979313  0.59128279  0.50773641  1
  H  H161  1  0.07717506  0.91167556  0.49849535  1
  H  H162  1  0.67038848  0.10527761  0.50190814  1
  H  H163  1  0.56705803  0.91360596  -0.00200991  1
  H  H164  1  0.63668877  0.41899643  0.01164573  1
  H  H165  1  0.40589555  0.91215431  0.00275155  1
  H  H166  1  0.44674703  0.41992308  1.00800801  1
  H  H167  1  0.92518075  0.90227360  0.49044514  1
  H  H168  1  0.16757605  0.10600979  0.49370548  1
  H  H169  1  0.57779941  0.04993125  0.50321627  1
  H  H170  1  0.08450838  0.42069014  0.99650679  1
  H  H171  1  0.32577196  0.41426148  0.49973178  1
  H  H172  1  0.21088281  0.25640283  0.49565739  1
  H  H173  1  0.32014740  0.09831653  0.50287884  1
  H  H174  1  0.42565313  0.58179989  -0.00134168  1
  H  H175  1  0.78608175  0.74882284  -0.00760590  1
  H  H176  1  0.32888382  0.75036447  0.50281991  1
  H  H177  1  0.43006721  0.07377869  0.49626502  1
  H  H178  1  0.45080250  0.24988641  -0.00866735  1
  H  H179  1  0.66941711  0.41460371  0.50099684  1
  H  H180  1  0.08057736  0.74215074  0.99818710  1
  H  H181  1  0.15854095  0.75017347  0.49926180  1
  H  H182  1  0.92451761  0.08803363  0.99813989  1
  H  H183  1  0.07147198  0.04380445  0.50824310  1
  H  H184  1  0.20317838  0.74636771  -0.00558074  1
  H  H185  1  0.80524849  0.91036293  0.49094239  1
  H  H186  1  0.71426428  0.08492363  -0.00614140  1
  H  H187  1  0.34045333  0.08430896  0.00349176  1
  H  H188  1  0.94651830  0.10829637  0.51840367  1
  H  H189  1  0.21274141  0.91458215  1.01244177  1
  H  H190  1  0.03890258  0.25445702  0.50727238  1
  H  H191  1  0.79916803  0.25341140  1.00843864  1
  Pb  Pb192  1  0.25186489  0.04532432  0.74136024  1
  Pb  Pb193  1  0.25556483  0.38371827  0.75213607  1
  Pb  Pb194  1  0.25251253  0.71310345  0.75796471  1
  Pb  Pb195  1  0.74648057  0.05209293  0.75271703  1
  Pb  Pb196  1  0.75302442  0.37999574  0.74904342  1
  Pb  Pb197  1  0.75164729  0.71398291  0.74845685  1
  Pb  Pb198  1  0.24868907  0.28741945  0.25404963  1
  Pb  Pb199  1  0.24827500  0.61991975  0.24857349  1
  Pb  Pb200  1  0.24548806  0.95009126  0.25540156  1
  Pb  Pb201  1  0.74885061  0.28755491  0.24807850  1
  Pb  Pb202  1  0.74140326  0.61708642  0.24935410  1
  Pb  Pb203  1  0.74910179  0.95357567  0.24649165  1
  Pb  Pb204  1  0.00713634  0.21630362  0.74938053  1
  Pb  Pb205  1  0.00331634  0.54765130  0.74854965  1
  Pb  Pb206  1  -0.00015163  0.88382706  0.75368276  1
  Pb  Pb207  1  0.49640873  0.21507053  0.75234480  1
  Pb  Pb208  1  0.50642767  0.54735859  0.75161906  1
  Pb  Pb209  1  0.50188064  0.87861665  0.75229425  1
  Pb  Pb210  1  0.00047792  0.12061448  0.25595491  1
  Pb  Pb211  1  -0.00240818  0.45369741  0.24458030  1
  Pb  Pb212  1  -0.00657013  0.78203344  0.23984996  1
  Pb  Pb213  1  0.49752050  0.11810456  0.24821747  1
  Pb  Pb214  1  0.49746879  0.45247739  0.25077728  1
  Pb  Pb215  1  0.49909217  0.78716009  0.25577614  1
  C  C216  1  -0.00074488  0.04659188  0.63517660  1
  C  C217  1  -0.00442678  0.38167386  0.63050749  1
  C  C218  1  -0.00254616  0.71317454  0.62758372  1
  C  C219  1  0.50146486  0.04420633  0.63345470  1
  C  C220  1  0.49896513  0.37662583  0.63219329  1
  C  C221  1  0.50082121  0.71142067  0.63072075  1
  C  C222  1  0.00582192  0.28862296  0.12944932  1
  C  C223  1  0.00200375  0.61827319  0.12994108  1
  C  C224  1  0.00091003  0.95436933  0.13328660  1
  C  C225  1  0.50201981  0.28703292  0.13156263  1
  C  C226  1  0.49782499  0.62160631  0.12647188  1
  C  C227  1  0.50230567  0.95303918  0.12884259  1
  C  C228  1  -0.00503221  0.04589729  0.86623266  1
  C  C229  1  0.00414894  0.37854621  0.86823087  1
  C  C230  1  0.00125473  0.71004347  0.86474781  1
  C  C231  1  0.49720396  0.04434744  0.86961590  1
  C  C232  1  0.50197174  0.38087639  0.86893647  1
  C  C233  1  0.50075356  0.71226598  0.86859929  1
  C  C234  1  -0.00275649  0.29149540  0.36980369  1
  C  C235  1  -0.00635578  0.62280664  0.37172428  1
  C  C236  1  -0.00180081  0.95100507  0.36665068  1
  C  C237  1  0.49658732  0.28822771  0.37376958  1
  C  C238  1  0.49821073  0.62310166  0.36693264  1
  C  C239  1  0.49959897  0.95249594  0.36689280  1
  C  C240  1  0.25450007  0.21603083  0.63144620  1
  C  C241  1  0.25596373  0.54539808  0.63307940  1
  C  C242  1  0.24566098  0.87586402  0.63160201  1
  C  C243  1  0.75369876  0.21427014  0.63390057  1
  C  C244  1  0.75671756  0.54576538  0.62937755  1
  C  C245  1  0.75190579  0.87726194  0.63256860  1
  C  C246  1  0.25423439  0.12229984  0.13238443  1
  C  C247  1  0.24747208  0.45534336  0.13236703  1
  C  C248  1  0.24496275  0.78780841  0.13069540  1
  C  C249  1  0.75077269  0.12178530  0.13212472  1
  C  C250  1  0.75042724  0.45399314  0.12705882  1
  C  C251  1  0.75227887  0.78625749  0.13055628  1
  C  C252  1  0.24422720  0.21160310  0.86696729  1
  C  C253  1  0.24980413  0.54520334  0.87126378  1
  C  C254  1  0.24646633  0.88023388  0.86770251  1
  C  C255  1  0.74599076  0.21400022  0.86912779  1
  C  C256  1  0.75281565  0.54550194  0.87131788  1
  C  C257  1  0.75410475  0.87977783  0.86998605  1
  C  C258  1  0.24905042  0.12121061  0.36451165  1
  C  C259  1  0.25151185  0.45421475  0.36628295  1
  C  C260  1  0.24981558  0.78659352  0.36962455  1
  C  C261  1  0.74887358  0.12270054  0.36554591  1
  C  C262  1  0.75132089  0.45471911  0.37021380  1
  C  C263  1  0.74954728  0.78775514  0.36898351  1
  C  C264  1  0.06250592  0.73856292  0.54314418  1
  C  C265  1  0.03558691  0.59220199  0.03473743  1
  C  C266  1  0.98370199  0.74162282  0.53165994  1
  C  C267  1  0.29714422  0.09402401  0.04137055  1
  C  C268  1  0.79155146  0.42702689  0.46329904  1
  C  C269  1  0.70993615  0.42634913  0.46347837  1
  C  C270  1  0.28548645  0.10075954  0.46023353  1
  C  C271  1  0.54383263  0.59123272  0.03511962  1
  C  C272  1  0.96922111  0.25600675  0.03643774  1
  C  C273  1  0.45187697  0.92324191  0.03944421  1
  C  C274  1  0.70634155  0.10289819  0.45992198  1
  C  C275  1  0.04385171  0.40902153  0.95894715  1
  C  C276  1  0.95394776  0.59176680  0.03799484  1
  C  C277  1  0.23152318  0.57730563  0.96610150  1
  C  C278  1  0.56073504  0.40518525  0.95708783  1
  C  C279  1  0.76678768  0.24145156  0.96644994  1
  C  C280  1  0.20420670  0.42710516  0.45755111  1
  C  C281  1  0.23855491  0.90370086  0.96748920  1
  C  C282  1  0.48069004  0.26010624  0.03493537  1
  C  C283  1  0.31746226  0.89938986  0.95165564  1
  C  C284  1  0.69374738  0.89987601  0.54403364  1
  C  C285  1  0.20466740  0.76035053  0.46244331  1
  C  C286  1  0.53668804  0.26308836  0.46623222  1
  C  C287  1  0.28579164  0.42557293  0.46119730  1
  C  C288  1  0.78476945  0.57661730  0.96628093  1
  C  C289  1  0.96709901  0.41103355  0.53537722  1
  C  C290  1  0.68607805  0.23846282  0.95687684  1
  C  C291  1  0.45607550  0.26283957  0.46615245  1
  C  C292  1  0.47996137  0.40778232  0.96631698  1
  C  C293  1  0.46491158  0.06762736  0.53844369  1
  C  C294  1  0.23893323  0.57166030  0.53522256  1
  C  C295  1  0.96194434  0.07572411  0.95893880  1
  C  C296  1  0.04859577  0.40889381  0.54034937  1
  C  C297  1  0.93350582  0.26472274  0.45474216  1
  C  C298  1  0.77422829  0.90133525  0.53428449  1
  C  C299  1  0.30766609  0.75914316  0.04471365  1
  C  C300  1  0.43065838  0.07354204  0.95319581  1
  C  C301  1  0.45923826  0.40549146  0.54022146  1
  C  C302  1  0.30609987  0.90915580  0.54641648  1
  C  C303  1  0.44963716  0.74191917  0.54299965  1
  C  C304  1  0.73393097  0.57450823  0.53396859  1
  C  C305  1  0.76538294  0.42220348  0.03021656  1
  C  C306  1  0.04303276  0.73603398  0.95743523  1
  C  C307  1  0.28696083  0.76031491  0.46447751  1
  C  C308  1  0.31966472  0.56831654  0.54654051  1
  C  C309  1  0.80254159  0.24210027  0.54450296  1
  C  C310  1  0.27897509  0.42450015  0.03927281  1
  C  C311  1  0.03969295  0.92427984  0.45930280  1
  N  N312  1  0.72565753  0.24180784  0.53695342  1
  N  N313  1  0.52589690  0.59117363  0.46083567  1
  N  N314  1  0.23663881  0.23993079  0.53596015  1
  N  N315  1  0.52672892  0.74362353  0.53520965  1
  N  N316  1  0.96407424  0.93306707  0.03897085  1
  N  N317  1  0.81497715  0.09624715  0.04690715  1
  N  N318  1  0.55931486  0.26118897  0.04473460  1
  N  N319  1  0.50822589  0.07757083  0.96381141  1
  N  N320  1  0.53692977  0.40664737  0.53828976  1
  N  N321  1  0.19564232  0.24051301  0.95686237  1
  N  N322  1  0.54011115  0.74325246  0.96062420  1
  N  N323  1  0.68835328  0.42689978  0.04256501  1
  N  N324  1  0.76367147  0.75610550  0.03649184  1
  N  N325  1  0.01200666  0.26007826  0.46443676  1
  N  N326  1  0.31395274  0.23619224  0.54275009  1
  N  N327  1  0.53976309  0.92852061  0.46093390  1
  N  N328  1  0.76132129  0.90945434  0.96453088  1
  N  N329  1  0.70586184  0.57485719  0.96044715  1
  N  N330  1  0.27194903  0.24192574  0.96157260  1
  N  N331  1  0.93758604  0.60032500  0.45893061  1
  N  N332  1  0.04866349  0.06951856  0.54357594  1
  N  N333  1  0.79154669  0.76020964  0.46135954  1
  N  N334  1  0.04818599  0.25761219  0.03969868  1
  N  N335  1  0.45025027  0.59196012  0.45583022  1
  N  N336  1  0.01494614  0.58842404  0.46399315  1
  N  N337  1  0.96481232  0.06981592  0.53985454  1
  N  N338  1  0.71554098  0.75999951  0.46327157  1
  N  N339  1  0.53149279  0.92241976  0.03596725  1
  N  N340  1  0.22974018  0.75699014  0.03590411  1
  N  N341  1  0.68494903  0.90444517  0.95324525  1
  N  N342  1  0.46363173  0.92829066  0.46191145  1
  N  N343  1  0.21807843  0.09191822  0.03834074  1
  N  N344  1  0.73803223  0.09210095  0.03778925  1
  N  N345  1  0.20571939  0.09958439  0.45709891  1
  N  N346  1  0.46439236  0.59075843  0.03448758  1
  N  N347  1  0.81108454  0.57142709  0.53933091  1
  N  N348  1  0.96338494  0.73800377  0.95672938  1
  N  N349  1  0.54517290  0.06567880  0.54014633  1
  N  N350  1  0.78553185  0.09621108  0.45821178  1
  N  N351  1  0.95988147  0.92491636  0.45930690  1
  N  N352  1  0.46396295  0.74382455  0.96101250  1
  N  N353  1  0.22793918  0.90881137  0.53787081  1
  N  N354  1  0.20140217  0.42565085  0.04051049  1
  N  N355  1  0.96460080  0.40907583  0.96127760  1
  N  N356  1  0.68692578  0.75882066  0.04655413  1
  N  N357  1  0.04113780  0.07357492  0.95851696  1
  N  N358  1  0.04603841  0.92880299  0.04218892  1
  N  N359  1  0.30837656  0.57434979  0.95904731  1
  N  N360  1  0.06520829  0.04739786  0.60123497  1
  N  N361  1  0.06467853  0.39078063  0.60072579  1
  N  N362  1  0.07096089  0.72155442  0.60259192  1
  N  N363  1  0.56674622  0.04706476  0.59883551  1
  N  N364  1  0.56174388  0.38795587  0.59674938  1
  N  N365  1  0.55885720  0.72390685  0.59099288  1
  N  N366  1  0.44448221  0.27576197  0.08883978  1
  N  N367  1  0.43567425  0.60985865  0.09073522  1
  N  N368  1  0.43392125  0.94167696  0.09746780  1
  N  N369  1  0.94281023  0.27510636  0.09194280  1
  N  N370  1  0.93445517  0.60818257  0.09840036  1
  N  N371  1  0.93910099  0.93831832  0.09853886  1
  N  N372  1  0.42354470  0.05425840  0.89438607  1
  N  N373  1  0.44436481  0.39206201  0.91021239  1
  N  N374  1  0.43799377  0.72487793  0.90404046  1
  N  N375  1  0.93191768  0.05894734  0.90255585  1
  N  N376  1  0.94165532  0.39000831  0.90447255  1
  N  N377  1  0.93778204  0.71863957  0.90045310  1
  N  N378  1  0.05121593  0.27972788  0.41310233  1
  N  N379  1  0.05049362  0.61214416  0.41340670  1
  N  N380  1  0.06367768  0.94211453  0.40254411  1
  N  N381  1  0.56163172  0.27824666  0.40990044  1
  N  N382  1  0.55729628  0.61080156  0.40608198  1
  N  N383  1  0.56371108  0.94318917  0.40205033  1
  N  N384  1  0.32452655  0.22094740  0.60199052  1
  N  N385  1  0.32857418  0.55234876  0.60731004  1
  N  N386  1  0.31706754  0.88972136  0.60466907  1
  N  N387  1  0.82263383  0.22572259  0.60329818  1
  N  N388  1  0.82557657  0.55332205  0.60011272  1
  N  N389  1  0.80995532  0.88731475  0.59103362  1
  N  N390  1  0.19295479  0.10987748  0.09537769  1
  N  N391  1  0.18170930  0.44517412  0.09984801  1
  N  N392  1  0.18966684  0.77626726  0.08823349  1
  N  N393  1  0.69743391  0.11015297  0.08839528  1
  N  N394  1  0.67873705  0.44638469  0.10224347  1
  N  N395  1  0.68036046  0.77624860  0.10561759  1
  N  N396  1  0.17711437  0.22144771  0.89832178  1
  N  N397  1  0.19326985  0.55988890  0.91362814  1
  N  N398  1  0.19484872  0.89107691  0.91360370  1
  N  N399  1  0.67406283  0.22230124  0.89753947  1
  N  N400  1  0.68577764  0.55518149  0.90224144  1
  N  N401  1  0.68130193  0.88728695  0.89397015  1
  N  N402  1  0.31251024  0.11193894  0.40252368  1
  N  N403  1  0.31393998  0.44247246  0.40294339  1
  N  N404  1  0.31322179  0.77656897  0.40622754  1
  N  N405  1  0.81199892  0.11133510  0.40065413  1
  N  N406  1  0.81635132  0.44383853  0.40693621  1
  N  N407  1  0.81439484  0.77695452  0.40281867  1
  N  N408  1  0.43121752  0.27778575  0.40966966  1
  N  N409  1  0.43124403  0.61169351  0.39785902  1
  N  N410  1  0.43714268  0.94329952  0.40373641  1
  N  N411  1  0.92451927  0.28235768  0.39537595  1
  N  N412  1  0.92405583  0.61258079  0.39931275  1
  N  N413  1  0.93461620  0.93804707  0.40073764  1
  N  N414  1  0.05996854  0.05553535  0.90024274  1
  N  N415  1  0.06963821  0.39078772  0.90199319  1
  N  N416  1  0.06678657  0.72108536  0.89976498  1
  N  N417  1  0.55027913  0.05729762  0.91305035  1
  N  N418  1  0.57354437  0.38922713  0.89781098  1
  N  N419  1  0.56452396  0.72355684  0.90346493  1
  N  N420  1  0.07142330  0.27813968  0.09692779  1
  N  N421  1  0.06433040  0.60807686  0.09023723  1
  N  N422  1  0.06607313  0.95131804  0.09835291  1
  N  N423  1  0.57176778  0.27710893  0.10427455  1
  N  N424  1  0.56444471  0.60952933  0.09235528  1
  N  N425  1  0.56251783  0.94222821  0.09049578  1
  N  N426  1  0.43818274  0.05676981  0.59620935  1
  N  N427  1  0.43373892  0.38782884  0.59702788  1
  N  N428  1  0.43133358  0.72280464  0.60093775  1
  N  N429  1  0.93896302  0.06387007  0.59956821  1
  N  N430  1  0.93531327  0.39458320  0.58982078  1
  N  N431  1  0.94339310  0.72642793  0.58289383  1
  N  N432  1  0.18342832  0.11556837  0.39845054  1
  N  N433  1  0.18396776  0.44403916  0.40003393  1
  N  N434  1  0.18345202  0.77653765  0.40302517  1
  N  N435  1  0.68295716  0.11670510  0.40179801  1
  N  N436  1  0.68620096  0.44377589  0.40447680  1
  N  N437  1  0.68774989  0.77752983  0.40626871  1
  N  N438  1  0.30329269  0.22451117  0.90588674  1
  N  N439  1  0.31966750  0.55410271  0.89854428  1
  N  N440  1  0.32156155  0.88555397  0.89140053  1
  N  N441  1  0.80307512  0.22586405  0.91052550  1
  N  N442  1  0.81410309  0.55901621  0.91076273  1
  N  N443  1  0.80513216  0.89286281  0.91486857  1
  N  N444  1  0.32082196  0.11187406  0.09922121  1
  N  N445  1  0.30957887  0.44244763  0.09439171  1
  N  N446  1  0.31725835  0.77779687  0.10339820  1
  N  N447  1  0.82221059  0.11261933  0.10626962  1
  N  N448  1  0.80430965  0.43919207  0.08229605  1
  N  N449  1  0.80526783  0.77513477  0.08634356  1
  N  N450  1  0.19877192  0.22952522  0.59000501  1
  N  N451  1  0.20070634  0.55714437  0.58961014  1
  N  N452  1  0.18951847  0.88601331  0.58950899  1
  N  N453  1  0.69499888  0.22420382  0.59415253  1
  N  N454  1  0.69854730  0.55882278  0.58790177  1
  N  N455  1  0.68076420  0.88580534  0.60328445  1
  Cl  Cl456  1  0.25007394  0.05761290  0.60438772  1
  Cl  Cl457  1  0.25079799  0.38469228  0.61890830  1
  Cl  Cl458  1  0.25263727  0.72399246  0.62807487  1
  Cl  Cl459  1  0.75383886  0.06184239  0.60964180  1
  Cl  Cl460  1  0.74780910  0.38778455  0.61625265  1
  Cl  Cl461  1  0.74879204  0.71924695  0.61829161  1
  Cl  Cl462  1  0.25731994  0.28146504  0.12249043  1
  Cl  Cl463  1  0.25085373  0.61690533  0.11508026  1
  Cl  Cl464  1  0.24735547  0.94301229  0.12165142  1
  Cl  Cl465  1  0.75777403  0.28398671  0.11249379  1
  Cl  Cl466  1  0.74677262  0.61037106  0.11479821  1
  Cl  Cl467  1  0.75477235  0.94300585  0.10307354  1
  Cl  Cl468  1  0.24312982  0.04974033  0.87170770  1
  Cl  Cl469  1  0.25664370  0.39095183  0.88374558  1
  Cl  Cl470  1  0.24939818  0.72190917  0.89558569  1
  Cl  Cl471  1  0.73590104  0.06147529  0.89732200  1
  Cl  Cl472  1  0.75770809  0.39118272  0.88272460  1
  Cl  Cl473  1  0.75520805  0.72446944  0.89442309  1
  Cl  Cl474  1  0.23418687  0.27519840  0.39760225  1
  Cl  Cl475  1  0.23504811  0.60749486  0.38361699  1
  Cl  Cl476  1  0.24747126  0.94249353  0.39386477  1
  Cl  Cl477  1  0.74407196  0.28310898  0.37532482  1
  Cl  Cl478  1  0.74101246  0.60920503  0.38366976  1
  Cl  Cl479  1  0.75105722  0.94886062  0.38049304  1
  Cl  Cl480  1  0.01431326  0.22348201  0.60196531  1
  Cl  Cl481  1  0.01562737  0.56202835  0.60711635  1
  Cl  Cl482  1  0.00133474  0.89175643  0.60813684  1
  Cl  Cl483  1  0.50994624  0.21562853  0.62134171  1
  Cl  Cl484  1  0.51650548  0.55214956  0.62445666  1
  Cl  Cl485  1  0.49832369  0.88246234  0.62548922  1
  Cl  Cl486  1  0.00693015  0.11562897  0.12374224  1
  Cl  Cl487  1  -0.00637265  0.44393262  0.11218121  1
  Cl  Cl488  1  -0.00602753  0.77397395  0.09548370  1
  Cl  Cl489  1  0.51330355  0.10732493  0.10291712  1
  Cl  Cl490  1  0.49345349  0.44923234  0.11511406  1
  Cl  Cl491  1  0.49821459  0.78438988  0.12521081  1
  Cl  Cl492  1  -0.00692636  0.22527113  0.88316530  1
  Cl  Cl493  1  0.00156780  0.55753172  0.88200027  1
  Cl  Cl494  1  -0.00513001  0.89409873  0.89939966  1
  Cl  Cl495  1  0.48781486  0.22008614  0.88866568  1
  Cl  Cl496  1  0.50311256  0.55528708  0.88817139  1
  Cl  Cl497  1  0.50246975  0.89515629  0.88681994  1
  Cl  Cl498  1  -0.00200629  0.10422883  0.39718240  1
  Cl  Cl499  1  0.00081335  0.45048683  0.37821724  1
  Cl  Cl500  1  -0.00252071  0.78288760  0.37180252  1
  Cl  Cl501  1  0.49808388  0.10906966  0.38321223  1
  Cl  Cl502  1  0.49950019  0.44618362  0.37817233  1
  Cl  Cl503  1  0.50139378  0.77759518  0.38605510  1
  Cl  Cl504  1  0.36105001  0.14620752  0.74431853  1
  Cl  Cl505  1  0.36706897  0.47843222  0.74875952  1
  Cl  Cl506  1  0.36122497  0.81486119  0.75427300  1
  Cl  Cl507  1  0.86045191  0.14534639  0.74618388  1
  Cl  Cl508  1  0.86413096  0.48165181  0.74394730  1
  Cl  Cl509  1  0.86481224  0.81387021  0.75655887  1
  Cl  Cl510  1  0.14114710  0.18395891  0.25301272  1
  Cl  Cl511  1  0.13822251  0.51780467  0.24557261  1
  Cl  Cl512  1  0.14024121  0.85405413  0.24990478  1
  Cl  Cl513  1  0.64196161  0.18396389  0.24701682  1
  Cl  Cl514  1  0.63962203  0.51640430  0.24224190  1
  Cl  Cl515  1  0.64029311  0.85237431  0.24371086  1
  Cl  Cl516  1  0.13838453  0.14535408  0.74201657  1
  Cl  Cl517  1  0.14427043  0.48411469  0.74818261  1
  Cl  Cl518  1  0.13784455  0.81296664  0.75363766  1
  Cl  Cl519  1  0.64264705  0.14423099  0.75421285  1
  Cl  Cl520  1  0.64292739  0.48108536  0.75898352  1
  Cl  Cl521  1  0.64279965  0.81655561  0.75522965  1
  Cl  Cl522  1  0.36076289  0.18562210  0.25086220  1
  Cl  Cl523  1  0.35892084  0.51855876  0.25032939  1
  Cl  Cl524  1  0.36043387  0.85232666  0.24872701  1
  Cl  Cl525  1  0.86344678  0.18732287  0.24781088  1
  Cl  Cl526  1  0.85837263  0.51911234  0.24977736  1
  Cl  Cl527  1  0.86161059  0.85350744  0.24465865  1
  Cl  Cl528  1  0.10970654  0.31171102  0.74641188  1
  Cl  Cl529  1  0.11091261  0.65093738  0.74642449  1
  Cl  Cl530  1  0.10999491  0.97988109  0.74714061  1
  Cl  Cl531  1  0.61254246  0.31301598  0.75943511  1
  Cl  Cl532  1  0.61261536  0.64976800  0.75894191  1
  Cl  Cl533  1  0.61118938  0.98166683  0.74822222  1
  Cl  Cl534  1  0.39302582  0.02081480  0.24612550  1
  Cl  Cl535  1  0.38998823  0.34981508  0.25275698  1
  Cl  Cl536  1  0.38625787  0.68674391  0.25427969  1
  Cl  Cl537  1  0.88953540  0.01948980  0.24636713  1
  Cl  Cl538  1  0.88789526  0.35205865  0.25318849  1
  Cl  Cl539  1  0.89014544  0.68685821  0.24923761  1
  Cl  Cl540  1  0.38885914  0.31124520  0.74861930  1
  Cl  Cl541  1  0.38808854  0.64426969  0.74718730  1
  Cl  Cl542  1  0.38850070  0.97879186  0.75368871  1
  Cl  Cl543  1  0.89083529  0.31343279  0.74568865  1
  Cl  Cl544  1  0.89023128  0.64757858  0.74959843  1
  Cl  Cl545  1  0.89173850  0.97924902  0.74821268  1
  Cl  Cl546  1  0.10977311  0.01817006  0.25873149  1
  Cl  Cl547  1  0.10770671  0.35116545  0.25064805  1
  Cl  Cl548  1  0.10774667  0.68362126  0.24892082  1
  Cl  Cl549  1  0.61131331  0.01868028  0.24593825  1
  Cl  Cl550  1  0.60736803  0.35034832  0.24318529  1
  Cl  Cl551  1  0.60507471  0.68317426  0.24540166  1
