# generated using pymatgen
data_H8PbC4(N3Cl2)2
_symmetry_space_group_name_H-M   'P 1'
_cell_length_a   16.62451717
_cell_length_b   22.51102230
_cell_length_c   21.59312682
_cell_angle_alpha   90.00018833
_cell_angle_beta   90.00945734
_cell_angle_gamma   90.00409267
_symmetry_Int_Tables_number   1
_chemical_formula_structural   H8PbC4(N3Cl2)2
_chemical_formula_sum   'H192 Pb24 C96 N144 Cl96'
_cell_volume   8080.90102204
_cell_formula_units_Z   24
loop_
 _symmetry_equiv_pos_site_id
 _symmetry_equiv_pos_as_xyz
  1  'x, y, z'
loop_
 _atom_site_type_symbol
 _atom_site_label
 _atom_site_symmetry_multiplicity
 _atom_site_fract_x
 _atom_site_fract_y
 _atom_site_fract_z
 _atom_site_occupancy
  H  H0  1  -0.00696216  0.03281136  0.67741898  1
  H  H1  1  0.01117685  0.36086899  0.67791717  1
  H  H2  1  0.00821998  0.69710849  0.68267996  1
  H  H3  1  0.49824082  0.02760908  0.67781563  1
  H  H4  1  0.48381913  0.36640672  0.67363681  1
  H  H5  1  0.50036301  0.69613551  0.68017230  1
  H  H6  1  0.00708987  0.30212096  0.18040067  1
  H  H7  1  0.00803035  0.63633096  0.17676324  1
  H  H8  1  -0.01333913  0.97036112  0.17868515  1
  H  H9  1  0.49850074  0.30263538  0.17765568  1
  H  H10  1  0.49907301  0.63443986  0.17748064  1
  H  H11  1  0.51310006  0.97043565  0.17797707  1
  H  H12  1  0.00829758  0.03212646  0.82011247  1
  H  H13  1  -0.00253435  0.36008501  0.82074522  1
  H  H14  1  -0.00824329  0.69768841  0.82018477  1
  H  H15  1  0.48966720  0.03428274  0.82172086  1
  H  H16  1  0.49336463  0.36066739  0.82084541  1
  H  H17  1  0.49858766  0.69755476  0.81933677  1
  H  H18  1  0.00697224  0.30193426  0.32297980  1
  H  H19  1  -0.00571577  0.63538691  0.32481075  1
  H  H20  1  0.00846379  0.97085678  0.32022730  1
  H  H21  1  0.49528292  0.30328595  0.32126152  1
  H  H22  1  0.50441977  0.63605891  0.32004491  1
  H  H23  1  0.50042876  0.96946065  0.31777609  1
  H  H24  1  0.24897484  0.19843259  0.67925211  1
  H  H25  1  0.26322572  0.52955430  0.67568334  1
  H  H26  1  0.24610862  0.86541903  0.68413854  1
  H  H27  1  0.75684933  0.19654348  0.67553199  1
  H  H28  1  0.74017964  0.53090530  0.68161173  1
  H  H29  1  0.74892687  0.86147529  0.67400822  1
  H  H30  1  0.24301303  0.13877544  0.17909028  1
  H  H31  1  0.25975897  0.47136567  0.17905619  1
  H  H32  1  0.26413864  0.80338282  0.17897765  1
  H  H33  1  0.75338847  0.13857770  0.17682973  1
  H  H34  1  0.75544520  0.46848519  0.18217062  1
  H  H35  1  0.73176305  0.80075677  0.17971580  1
  H  H36  1  0.25736488  0.19304459  0.82244061  1
  H  H37  1  0.24232648  0.53012791  0.82029160  1
  H  H38  1  0.25479294  0.86287571  0.82693624  1
  H  H39  1  0.73776702  0.19816832  0.82205559  1
  H  H40  1  0.75007126  0.53084309  0.82243699  1
  H  H41  1  0.74808114  0.86341636  0.81857924  1
  H  H42  1  0.24808209  0.13724824  0.32268506  1
  H  H43  1  0.24174793  0.47163620  0.32034830  1
  H  H44  1  0.24250173  0.80174674  0.31681380  1
  H  H45  1  0.75614783  0.13787151  0.32241567  1
  H  H46  1  0.75784537  0.46997706  0.31847912  1
  H  H47  1  0.75540434  0.80604404  0.31919090  1
  H  H48  1  0.13220960  0.05337504  0.62374986  1
  H  H49  1  0.12350384  0.38883230  0.59896497  1
  H  H50  1  0.11995267  0.72053628  0.60298181  1
  H  H51  1  0.62975352  0.05017669  0.61485102  1
  H  H52  1  0.62645216  0.38025154  0.62687820  1
  H  H53  1  0.62387279  0.72268829  0.60869453  1
  H  H54  1  0.37480681  0.27746496  0.10758809  1
  H  H55  1  0.37027227  0.61033102  0.11148993  1
  H  H56  1  0.37580548  0.94731882  0.12268373  1
  H  H57  1  0.87387771  0.28128233  0.11881714  1
  H  H58  1  0.86820956  0.61773562  0.12320991  1
  H  H59  1  0.88307395  0.94262858  0.09345400  1
  H  H60  1  0.38241605  0.05767789  0.90390877  1
  H  H61  1  0.38499110  0.38979655  0.90330359  1
  H  H62  1  0.37399995  0.72106490  0.88856442  1
  H  H63  1  0.87707505  0.05409938  0.88303032  1
  H  H64  1  0.88285422  0.38842323  0.89894014  1
  H  H65  1  0.88001444  0.72154066  0.89932675  1
  H  H66  1  0.12962911  0.27596581  0.39388688  1
  H  H67  1  0.12398904  0.61191550  0.38978586  1
  H  H68  1  0.11457465  0.94408387  0.40380711  1
  H  H69  1  0.63200511  0.28080815  0.37951635  1
  H  H70  1  0.61844139  0.61134511  0.39666233  1
  H  H71  1  0.62010191  0.94439528  0.39347183  1
  H  H72  1  0.36465232  0.22258052  0.60393306  1
  H  H73  1  0.37232943  0.55792038  0.59470980  1
  H  H74  1  0.37939727  0.88401102  0.62304078  1
  H  H75  1  0.86771466  0.22308224  0.59515882  1
  H  H76  1  0.87554315  0.55035468  0.62425621  1
  H  H77  1  0.87917500  0.88785153  0.61078568  1
  H  H78  1  0.12393957  0.11183516  0.10280802  1
  H  H79  1  0.12086348  0.45069942  0.12395215  1
  H  H80  1  0.12401451  0.78324590  0.12950315  1
  H  H81  1  0.62045454  0.11540477  0.11468382  1
  H  H82  1  0.62081917  0.44869270  0.12449156  1
  H  H83  1  0.63012990  0.77242856  0.09125350  1
  H  H84  1  0.12572314  0.21700343  0.88568254  1
  H  H85  1  0.13193051  0.55861165  0.90185020  1
  H  H86  1  0.12287064  0.88782810  0.88893572  1
  H  H87  1  0.62595654  0.22468714  0.90096231  1
  H  H88  1  0.63517467  0.55674225  0.90135060  1
  H  H89  1  0.62528888  0.88903546  0.88884494  1
  H  H90  1  0.36349555  0.11071775  0.40123794  1
  H  H91  1  0.37714950  0.45082455  0.38168226  1
  H  H92  1  0.37738552  0.78086779  0.37462573  1
  H  H93  1  0.86916697  0.11176056  0.40229511  1
  H  H94  1  0.87304784  0.44180176  0.39781507  1
  H  H95  1  0.87657050  0.77780999  0.39307573  1
  H  H96  1  0.38412544  0.27993341  0.40218496  1
  H  H97  1  0.37019322  0.61657359  0.38053730  1
  H  H98  1  0.37179013  0.94598225  0.38669003  1
  H  H99  1  0.88050571  0.27811944  0.39223838  1
  H  H100  1  0.87507272  0.60869244  0.39805925  1
  H  H101  1  0.86867017  0.95124178  0.37543145  1
  H  H102  1  0.12537973  0.05650301  0.89788734  1
  H  H103  1  0.13106053  0.38368752  0.88020522  1
  H  H104  1  0.12776472  0.71778776  0.87845288  1
  H  H105  1  0.62877466  0.05177610  0.87583511  1
  H  H106  1  0.63162462  0.38277729  0.87602173  1
  H  H107  1  0.62220605  0.72008255  0.89069764  1
  H  H108  1  0.12261906  0.27825901  0.10484911  1
  H  H109  1  0.11334808  0.60804102  0.09181491  1
  H  H110  1  0.12785711  0.94995326  0.12611193  1
  H  H111  1  0.62404682  0.27838681  0.10727489  1
  H  H112  1  0.61879358  0.61248212  0.10306309  1
  H  H113  1  0.62219179  0.94232416  0.09565561  1
  H  H114  1  0.38048941  0.05782368  0.60308040  1
  H  H115  1  0.38465436  0.39446620  0.58631523  1
  H  H116  1  0.37581066  0.71804949  0.60893537  1
  H  H117  1  0.88670633  0.05918652  0.59254366  1
  H  H118  1  0.87657070  0.38101121  0.61807506  1
  H  H119  1  0.87234957  0.71733510  0.62594468  1
  H  H120  1  0.11583735  0.11581656  0.38700921  1
  H  H121  1  0.12921746  0.44354544  0.39973838  1
  H  H122  1  0.12954538  0.77814112  0.39575666  1
  H  H123  1  0.62198559  0.11460344  0.38195184  1
  H  H124  1  0.62528466  0.44825645  0.38257135  1
  H  H125  1  0.62824428  0.77978771  0.38766367  1
  H  H126  1  0.37426863  0.22304614  0.89681535  1
  H  H127  1  0.37829294  0.55135433  0.88136589  1
  H  H128  1  0.37077969  0.89216276  0.90227635  1
  H  H129  1  0.87271274  0.21554338  0.87912116  1
  H  H130  1  0.88286214  0.55416975  0.88548453  1
  H  H131  1  0.87488071  0.88907770  0.88697874  1
  H  H132  1  0.37232007  0.11402174  0.11259767  1
  H  H133  1  0.36534588  0.44108814  0.09404817  1
  H  H134  1  0.36871631  0.77807654  0.09454012  1
  H  H135  1  0.86923771  0.11204172  0.10016392  1
  H  H136  1  0.86818681  0.44324369  0.10443943  1
  H  H137  1  0.87347499  0.78314406  0.12778417  1
  H  H138  1  0.11585642  0.21863896  0.61723338  1
  H  H139  1  0.12585703  0.55067324  0.61845486  1
  H  H140  1  0.13075989  0.88932504  0.60745039  1
  H  H141  1  0.62066773  0.21959810  0.61725599  1
  H  H142  1  0.62787138  0.55448462  0.60238176  1
  H  H143  1  0.63081258  0.89010308  0.60131469  1
  H  H144  1  0.84033093  0.91930655  0.50441413  1
  H  H145  1  0.04118934  0.91634953  0.50711675  1
  H  H146  1  0.71300642  0.74481534  -0.00468345  1
  H  H147  1  0.59725789  0.08114421  0.50359623  1
  H  H148  1  0.69137220  0.58048452  0.49407865  1
  H  H149  1  0.44936253  0.08827937  1.00856583  1
  H  H150  1  0.05408100  0.39943846  0.49595108  1
  H  H151  1  0.94720977  0.41093511  1.00212901  1
  H  H152  1  0.05622791  0.74762599  0.49541420  1
  H  H153  1  0.56074377  0.56953191  0.00717870  1
  H  H154  1  0.56642637  0.76712895  0.98518753  1
  H  H155  1  0.45881492  0.41553895  1.00419525  1
  H  H156  1  0.91179582  0.42649866  0.51922193  1
  H  H157  1  0.55754275  0.58301869  0.50616284  1
  H  H158  1  0.85248459  0.57964597  0.51070282  1
  H  H159  1  0.85133782  0.24803970  0.99341900  1
  H  H160  1  0.34987012  0.91189249  0.50992207  1
  H  H161  1  0.82709614  0.90765117  0.99529880  1
  H  H162  1  0.15917877  0.91864026  0.99619215  1
  H  H163  1  0.41077674  0.59007941  0.00498997  1
  H  H164  1  0.06659724  0.24588173  -0.00270267  1
  H  H165  1  0.14955394  0.08808939  0.49435074  1
  H  H166  1  0.18863725  0.91497018  0.49825059  1
  H  H167  1  0.28813475  0.41431365  -0.00398686  1
  H  H168  1  0.19107633  0.75143752  0.50357254  1
  H  H169  1  0.19630054  0.41532896  0.50503107  1
  H  H170  1  0.45039566  0.25414532  0.50928060  1
  H  H171  1  0.29561375  0.75177506  -0.00994454  1
  H  H172  1  0.60470290  0.25496500  0.48811983  1
  H  H173  1  0.64925963  0.08663161  0.00658732  1
  H  H174  1  0.81191630  0.08394499  -0.00667712  1
  H  H175  1  0.67446368  0.91860791  0.99892880  1
  H  H176  1  0.10105554  0.41662252  0.99145248  1
  H  H177  1  0.84961558  0.58174041  0.99334902  1
  H  H178  1  0.42791077  0.72727693  0.99632410  1
  H  H179  1  0.61863703  0.41264769  0.51229428  1
  H  H180  1  0.95986311  0.91524034  -0.00879157  1
  H  H181  1  0.35175426  0.75199745  0.48793562  1
  H  H182  1  0.54923168  0.91803436  -0.00579788  1
  H  H183  1  0.80570384  0.41493463  -0.00379076  1
  H  H184  1  0.89590614  0.74556750  0.51230967  1
  H  H185  1  0.43912466  0.08069904  0.49879580  1
  H  H186  1  0.64471614  0.41914103  0.01044932  1
  H  H187  1  0.57087024  0.75270039  0.50514660  1
  H  H188  1  0.94178648  0.74994874  1.00644193  1
  H  H189  1  0.13552882  0.75193292  0.01431317  1
  H  H190  1  0.08412921  0.58317307  0.49628286  1
  H  H191  1  0.30605741  0.25123236  0.49389678  1
  Pb  Pb192  1  0.25267657  0.04667679  0.75153521  1
  Pb  Pb193  1  0.25242376  0.37972977  0.74715744  1
  Pb  Pb194  1  0.25282655  0.71299236  0.74529776  1
  Pb  Pb195  1  0.75292832  0.04709799  0.74730749  1
  Pb  Pb196  1  0.75505542  0.37869647  0.75393745  1
  Pb  Pb197  1  0.75020234  0.71319179  0.75835229  1
  Pb  Pb198  1  0.25306743  0.28606419  0.25256906  1
  Pb  Pb199  1  0.24587957  0.62077206  0.24574658  1
  Pb  Pb200  1  0.24849539  0.95287405  0.25529063  1
  Pb  Pb201  1  0.74823158  0.28626494  0.24929453  1
  Pb  Pb202  1  0.75123254  0.61763959  0.25178395  1
  Pb  Pb203  1  0.74862696  0.95450292  0.24238191  1
  Pb  Pb204  1  0.00097011  0.21154747  0.74929610  1
  Pb  Pb205  1  0.00280029  0.54700490  0.75038500  1
  Pb  Pb206  1  0.00179162  0.87963779  0.74884042  1
  Pb  Pb207  1  0.50079301  0.21452416  0.74886040  1
  Pb  Pb208  1  0.50290385  0.54506340  0.75103549  1
  Pb  Pb209  1  0.50232374  0.88098159  0.75665815  1
  Pb  Pb210  1  -0.00186748  0.12088156  0.24827578  1
  Pb  Pb211  1  0.00144084  0.45023971  0.25363546  1
  Pb  Pb212  1  -0.00184729  0.78752396  0.25806499  1
  Pb  Pb213  1  0.49710755  0.12039902  0.25603984  1
  Pb  Pb214  1  0.49605877  0.45357260  0.24103016  1
  Pb  Pb215  1  0.50224492  0.78366586  0.24141190  1
  C  C216  1  0.00390373  0.04823839  0.63074377  1
  C  C217  1  0.00369641  0.37654462  0.63057549  1
  C  C218  1  -0.00024091  0.71168078  0.63517151  1
  C  C219  1  0.50251041  0.04458402  0.63078781  1
  C  C220  1  0.49927876  0.38051658  0.62718755  1
  C  C221  1  0.50034154  0.71216494  0.63276872  1
  C  C222  1  0.00149495  0.28723698  0.13287246  1
  C  C223  1  -0.00337419  0.62087675  0.13016236  1
  C  C224  1  -0.00041220  0.95503551  0.13201786  1
  C  C225  1  0.49942256  0.28640779  0.13052579  1
  C  C226  1  0.49595243  0.61909370  0.12974601  1
  C  C227  1  0.50405711  0.95479753  0.13110458  1
  C  C228  1  0.00374446  0.04731794  0.86740276  1
  C  C229  1  0.00357637  0.37657005  0.86786375  1
  C  C230  1  -0.00048923  0.71223006  0.86765395  1
  C  C231  1  0.50014923  0.04819818  0.86913932  1
  C  C232  1  0.50309165  0.37641265  0.86776252  1
  C  C233  1  0.49833268  0.71276899  0.86714622  1
  C  C234  1  0.00549625  0.28566348  0.37004693  1
  C  C235  1  -0.00170673  0.61893086  0.37193516  1
  C  C236  1  -0.00316969  0.95547539  0.36705343  1
  C  C237  1  0.50440452  0.28792725  0.36851376  1
  C  C238  1  0.49785913  0.62189091  0.36771202  1
  C  C239  1  0.49724324  0.95393973  0.36530198  1
  C  C240  1  0.24337560  0.21323190  0.63174308  1
  C  C241  1  0.25349844  0.54576950  0.62915407  1
  C  C242  1  0.25241209  0.87959344  0.63627943  1
  C  C243  1  0.74800159  0.21239919  0.62878152  1
  C  C244  1  0.74827013  0.54533871  0.63398369  1
  C  C245  1  0.75339989  0.87889732  0.62739652  1
  C  C246  1  0.24637227  0.12218816  0.13197670  1
  C  C247  1  0.24879153  0.45547889  0.13236265  1
  C  C248  1  0.25170521  0.78780777  0.13228726  1
  C  C249  1  0.74711569  0.12193258  0.12970230  1
  C  C250  1  0.74751987  0.45384086  0.13462413  1
  C  C251  1  0.74460303  0.78615378  0.13284048  1
  C  C252  1  0.25221242  0.21052916  0.86887640  1
  C  C253  1  0.25093613  0.54617342  0.86728086  1
  C  C254  1  0.24903293  0.88018008  0.87354542  1
  C  C255  1  0.74625987  0.21305601  0.86937373  1
  C  C256  1  0.75642694  0.54724307  0.86945307  1
  C  C257  1  0.75015826  0.87948388  0.86603258  1
  C  C258  1  0.24210332  0.12136564  0.36995967  1
  C  C259  1  0.24946165  0.45578426  0.36742505  1
  C  C260  1  0.25019475  0.78709833  0.36438025  1
  C  C261  1  0.74907683  0.12173307  0.36921276  1
  C  C262  1  0.75222761  0.45421313  0.36577540  1
  C  C263  1  0.75337569  0.78901139  0.36617529  1
  C  C264  1  0.02440389  0.73755236  0.53810294  1
  C  C265  1  0.52430187  0.59460012  0.46444180  1
  C  C266  1  0.71925100  0.91214560  0.53415263  1
  C  C267  1  0.46257886  0.25509652  0.03913892  1
  C  C268  1  0.97588470  0.73901660  0.96510363  1
  C  C269  1  0.28076816  0.91350158  0.96749518  1
  C  C270  1  0.80483617  0.57034928  0.54483462  1
  C  C271  1  0.80230019  0.23911363  0.95904000  1
  C  C272  1  0.05719386  0.40642369  0.95559708  1
  C  C273  1  0.19057094  0.23863579  0.54171401  1
  C  C274  1  0.77622411  0.09387895  0.03456816  1
  C  C275  1  0.28080764  0.24489883  0.96095670  1
  C  C276  1  0.48184136  0.07580269  0.96684553  1
  C  C277  1  0.27187691  0.24018403  0.53532784  1
  C  C278  1  0.94849341  0.26079505  0.04312688  1
  C  C279  1  0.55276752  0.07247414  0.54090823  1
  C  C280  1  0.94287214  0.73629509  0.54616606  1
  C  C281  1  0.56221181  0.07291449  0.95575638  1
  C  C282  1  0.48030132  0.26235321  0.46526348  1
  C  C283  1  0.02994801  0.25861932  0.03685639  1
  C  C284  1  0.06172841  0.07501194  0.54432912  1
  C  C285  1  0.98682323  0.92685553  0.03562647  1
  C  C286  1  0.77014567  0.24381104  0.53429845  1
  C  C287  1  0.18684381  0.76153187  0.04685339  1
  C  C288  1  0.56415747  0.40563169  0.95370932  1
  C  C289  1  0.72115652  0.24213520  0.96482165  1
  C  C290  1  0.56696375  0.40451586  0.54230282  1
  C  C291  1  0.77329498  0.42662907  0.03828212  1
  C  C292  1  0.01257969  0.92781475  0.46330986  1
  C  C293  1  0.44325317  0.59703733  0.45717241  1
  C  C294  1  0.22407777  0.76146823  0.46134786  1
  C  C295  1  0.04090604  0.25471679  0.46186870  1
  C  C296  1  0.30556731  0.76213346  0.45383971  1
  C  C297  1  0.44363657  0.92507441  0.04452910  1
  C  C298  1  0.72331333  0.57111295  0.53688021  1
  C  C299  1  0.69813496  0.09138446  0.45734400  1
  C  C300  1  0.22307830  0.90455870  0.53969310  1
  C  C301  1  0.05655911  0.73666120  0.95638174  1
  C  C302  1  0.22732272  0.42689030  0.46231959  1
  C  C303  1  0.30484023  0.90298619  0.54533042  1
  C  C304  1  0.26750956  0.76079979  0.03457099  1
  C  C305  1  0.96290409  0.58898251  0.46637799  1
  C  C306  1  0.27344518  0.57744440  0.53432380  1
  C  C307  1  0.93778610  0.59470954  0.04375332  1
  C  C308  1  0.95671707  0.07523955  0.95717859  1
  C  C309  1  0.69167192  0.42847288  0.04529858  1
  C  C310  1  0.48734569  0.40873266  0.52952893  1
  C  C311  1  0.71103183  0.90818589  0.95857227  1
  N  N312  1  0.45420843  0.92588834  0.45730418  1
  N  N313  1  0.53782345  0.73450972  0.96035182  1
  N  N314  1  0.27286255  0.09438181  0.46531245  1
  N  N315  1  0.97791115  0.40838932  0.96098505  1
  N  N316  1  0.53990910  0.25573252  0.03759916  1
  N  N317  1  0.01414666  0.59099474  0.03256371  1
  N  N318  1  0.52187636  0.92465621  0.03634443  1
  N  N319  1  0.30438189  0.57554648  0.95563475  1
  N  N320  1  0.45693472  0.73783525  0.53992732  1
  N  N321  1  0.30605610  0.42883977  0.45624775  1
  N  N322  1  0.48613833  0.40786167  0.96199714  1
  N  N323  1  0.18622256  0.42907051  0.04699383  1
  N  N324  1  0.21495420  0.09112497  0.03827319  1
  N  N325  1  0.72636460  0.57373772  0.96506396  1
  N  N326  1  0.55886983  0.26076935  0.45566655  1
  N  N327  1  0.53030968  0.92541042  0.45957678  1
  N  N328  1  0.96361676  0.25582545  0.46285946  1
  N  N329  1  0.77502249  0.08984972  0.46498612  1
  N  N330  1  0.19633113  0.57506313  0.54076587  1
  N  N331  1  0.47310820  0.07610881  0.53823407  1
  N  N332  1  0.45705490  0.74241059  0.95752401  1
  N  N333  1  0.77965968  0.42606698  0.46121091  1
  N  N334  1  0.06471383  0.92915561  0.04640412  1
  N  N335  1  0.71137978  0.75995539  0.45809319  1
  N  N336  1  0.20210070  0.91030312  0.96234924  1
  N  N337  1  0.70371096  0.42770584  0.45602170  1
  N  N338  1  0.81205090  0.76175950  0.04883293  1
  N  N339  1  0.78794781  0.75875414  0.45948581  1
  N  N340  1  0.29113491  0.09188871  0.04131117  1
  N  N341  1  0.03385490  0.07620435  0.96321929  1
  N  N342  1  0.73545524  0.75799965  0.03798833  1
  N  N343  1  0.52971617  0.59849742  0.03502729  1
  N  N344  1  0.02905282  0.40969201  0.53810212  1
  N  N345  1  0.45098546  0.58804145  0.04138082  1
  N  N346  1  0.94973036  0.39805539  0.54195714  1
  N  N347  1  0.80423819  0.57296622  0.95838860  1
  N  N348  1  0.26309193  0.42495827  0.03854220  1
  N  N349  1  0.69304287  0.24268249  0.54054406  1
  N  N350  1  0.22835503  0.57768910  0.96237452  1
  N  N351  1  0.79077547  0.90830387  0.95702038  1
  N  N352  1  0.93430656  0.93004887  0.45397654  1
  N  N353  1  0.04190724  0.59041787  0.46223159  1
  N  N354  1  0.69691921  0.09460595  0.04063372  1
  N  N355  1  0.53513026  0.73780490  0.54051210  1
  N  N356  1  0.79809650  0.91002158  0.53841310  1
  N  N357  1  0.19500397  0.09635555  0.45927945  1
  N  N358  1  0.98539243  0.07746740  0.53304373  1
  N  N359  1  0.20320492  0.24319907  0.95866355  1
  N  N360  1  0.07574306  0.05765862  0.60396064  1
  N  N361  1  0.06191339  0.38522571  0.58970562  1
  N  N362  1  0.05853317  0.72230431  0.59390565  1
  N  N363  1  0.57097362  0.05475876  0.59906495  1
  N  N364  1  0.57271846  0.38711401  0.60382795  1
  N  N365  1  0.56292492  0.72399622  0.59725241  1
  N  N366  1  0.43489936  0.27370003  0.09495510  1
  N  N367  1  0.42992521  0.61108654  0.09648730  1
  N  N368  1  0.43261027  0.94301378  0.10333860  1
  N  N369  1  0.93201656  0.27770874  0.10136051  1
  N  N370  1  0.92445379  0.61227291  0.10348028  1
  N  N371  1  0.94531680  0.94247042  0.08788669  1
  N  N372  1  0.44415652  0.05983302  0.91151208  1
  N  N373  1  0.44740583  0.38737521  0.90980056  1
  N  N374  1  0.43417696  0.71838320  0.90282951  1
  N  N375  1  0.93555148  0.05791510  0.89927699  1
  N  N376  1  0.94496081  0.38678339  0.90782805  1
  N  N377  1  0.94118931  0.72357916  0.90823364  1
  N  N378  1  0.06961670  0.27282549  0.40605777  1
  N  N379  1  0.06414459  0.60942528  0.40437856  1
  N  N380  1  0.05235997  0.94294061  0.41025999  1
  N  N381  1  0.57346009  0.27707732  0.39637291  1
  N  N382  1  0.55749958  0.61036468  0.40743569  1
  N  N383  1  0.55854757  0.94286076  0.40289184  1
  N  N384  1  0.30381940  0.22433554  0.59265853  1
  N  N385  1  0.31073114  0.55956500  0.58705252  1
  N  N386  1  0.32151954  0.88771194  0.60553580  1
  N  N387  1  0.80605012  0.22523916  0.58709638  1
  N  N388  1  0.81851900  0.55463270  0.60542990  1
  N  N389  1  0.81990479  0.88882883  0.59568390  1
  N  N390  1  0.18559425  0.10989197  0.09438336  1
  N  N391  1  0.17770157  0.44661258  0.10580004  1
  N  N392  1  0.17904665  0.77803776  0.10763155  1
  N  N393  1  0.67964162  0.11220350  0.09907641  1
  N  N394  1  0.67734850  0.44535476  0.10546397  1
  N  N395  1  0.69261565  0.77376849  0.08835238  1
  N  N396  1  0.18547044  0.22151857  0.89986729  1
  N  N397  1  0.19399064  0.55970519  0.90796668  1
  N  N398  1  0.18183987  0.88914709  0.90465881  1
  N  N399  1  0.68737386  0.22642568  0.91098493  1
  N  N400  1  0.69709887  0.55839321  0.90929586  1
  N  N401  1  0.68559547  0.89209489  0.90169227  1
  N  N402  1  0.30162830  0.10985475  0.40956028  1
  N  N403  1  0.31800917  0.44678308  0.39729186  1
  N  N404  1  0.32024659  0.77790618  0.39353172  1
  N  N405  1  0.80700932  0.10955501  0.40895113  1
  N  N406  1  0.81116016  0.44265664  0.40530521  1
  N  N407  1  0.81525564  0.77626931  0.40256192  1
  N  N408  1  0.44590830  0.27814952  0.41087406  1
  N  N409  1  0.42794026  0.61322135  0.39876794  1
  N  N410  1  0.43206594  0.94329853  0.39875547  1
  N  N411  1  0.94125464  0.27531753  0.40432519  1
  N  N412  1  0.93558617  0.60609286  0.41022051  1
  N  N413  1  0.92626373  0.94719887  0.39371209  1
  N  N414  1  0.06353157  0.05847849  0.90602146  1
  N  N415  1  0.07331604  0.38833862  0.89736724  1
  N  N416  1  0.07053761  0.72086834  0.89739247  1
  N  N417  1  0.57265703  0.05656321  0.89638051  1
  N  N418  1  0.57514654  0.38739850  0.89497537  1
  N  N419  1  0.56172482  0.72718509  0.90087869  1
  N  N420  1  0.06171058  0.27553668  0.09399957  1
  N  N421  1  0.05093532  0.60787658  0.08762593  1
  N  N422  1  0.07083728  0.94673036  0.10655855  1
  N  N423  1  0.56314125  0.27563407  0.09584845  1
  N  N424  1  0.55770470  0.60642143  0.09350196  1
  N  N425  1  0.56036956  0.94499239  0.08893642  1
  N  N426  1  0.44215309  0.05628864  0.59282027  1
  N  N427  1  0.44630793  0.39428492  0.58063725  1
  N  N428  1  0.43606953  0.72082515  0.59718057  1
  N  N429  1  0.94918076  0.06045007  0.58826900  1
  N  N430  1  0.93510404  0.38893698  0.60263537  1
  N  N431  1  0.92922610  0.72040535  0.60659923  1
  N  N432  1  0.17529291  0.11248066  0.40160889  1
  N  N433  1  0.19077409  0.44297065  0.40802989  1
  N  N434  1  0.19085811  0.77695548  0.40518788  1
  N  N435  1  0.67951298  0.11017830  0.39889946  1
  N  N436  1  0.68503264  0.44462528  0.39715814  1
  N  N437  1  0.68873950  0.77894784  0.40048078  1
  N  N438  1  0.31334359  0.22537296  0.90708564  1
  N  N439  1  0.31958582  0.55588478  0.89652743  1
  N  N440  1  0.31010512  0.89467348  0.91265600  1
  N  N441  1  0.81614839  0.22108900  0.89827704  1
  N  N442  1  0.82359566  0.55711965  0.90048816  1
  N  N443  1  0.81466313  0.88713587  0.90086679  1
  N  N444  1  0.31213200  0.11110472  0.09933180  1
  N  N445  1  0.30279404  0.44283165  0.08944023  1
  N  N446  1  0.30683923  0.77692557  0.08830081  1
  N  N447  1  0.80778987  0.11002618  0.09009979  1
  N  N448  1  0.80676632  0.44250590  0.09410120  1
  N  N449  1  0.81700249  0.77839748  0.10799863  1
  N  N450  1  0.17409657  0.22271934  0.60006099  1
  N  N451  1  0.18406224  0.55547501  0.60146186  1
  N  N452  1  0.19176987  0.88996954  0.59669965  1
  N  N453  1  0.67902411  0.22290926  0.60067459  1
  N  N454  1  0.68931095  0.55555170  0.59277966  1
  N  N455  1  0.69124998  0.89300905  0.58908200  1
  Cl  Cl456  1  0.25822438  0.05795041  0.61714417  1
  Cl  Cl457  1  0.24656545  0.39268533  0.61208348  1
  Cl  Cl458  1  0.24771155  0.72021980  0.61217053  1
  Cl  Cl459  1  0.75821966  0.04907441  0.61704444  1
  Cl  Cl460  1  0.75697467  0.38105139  0.62395962  1
  Cl  Cl461  1  0.74369397  0.72206438  0.62794810  1
  Cl  Cl462  1  0.25063327  0.28389312  0.12101194  1
  Cl  Cl463  1  0.24528129  0.60969804  0.11460859  1
  Cl  Cl464  1  0.25216338  0.94297429  0.12259776  1
  Cl  Cl465  1  0.74785012  0.27708146  0.11722737  1
  Cl  Cl466  1  0.74089450  0.61565157  0.11781616  1
  Cl  Cl467  1  0.75300900  0.93970809  0.09968000  1
  Cl  Cl468  1  0.25265581  0.05106665  0.88253858  1
  Cl  Cl469  1  0.26348549  0.39148459  0.89427922  1
  Cl  Cl470  1  0.25567874  0.72668312  0.88016032  1
  Cl  Cl471  1  0.75441321  0.05375325  0.88318465  1
  Cl  Cl472  1  0.76166715  0.38981907  0.88925818  1
  Cl  Cl473  1  0.74501139  0.72337994  0.89893540  1
  Cl  Cl474  1  0.25884088  0.27896545  0.38793412  1
  Cl  Cl475  1  0.24490923  0.61260447  0.37838600  1
  Cl  Cl476  1  0.24113357  0.94539793  0.39035398  1
  Cl  Cl477  1  0.75624445  0.27910357  0.38220207  1
  Cl  Cl478  1  0.74777448  0.60943973  0.38595263  1
  Cl  Cl479  1  0.74217055  0.94590724  0.37626906  1
  Cl  Cl480  1  -0.00962993  0.22085735  0.61870204  1
  Cl  Cl481  1  0.00217357  0.55139583  0.61543737  1
  Cl  Cl482  1  0.00487024  0.89089326  0.61456260  1
  Cl  Cl483  1  0.49127364  0.22312140  0.61221744  1
  Cl  Cl484  1  0.50126437  0.55599333  0.61759659  1
  Cl  Cl485  1  0.50898713  0.88359543  0.62621932  1
  Cl  Cl486  1  -0.00389328  0.11299477  0.11631448  1
  Cl  Cl487  1  -0.00928119  0.44134791  0.11569660  1
  Cl  Cl488  1  -0.00311026  0.78388936  0.12865242  1
  Cl  Cl489  1  0.49608658  0.11433660  0.12205283  1
  Cl  Cl490  1  0.48419191  0.44151399  0.09991241  1
  Cl  Cl491  1  0.50249764  0.77396319  0.09735060  1
  Cl  Cl492  1  0.00178865  0.21845871  0.88137015  1
  Cl  Cl493  1  0.00629671  0.55255834  0.88195147  1
  Cl  Cl494  1  -0.00232831  0.89123747  0.88442050  1
  Cl  Cl495  1  0.50047312  0.22265785  0.87987087  1
  Cl  Cl496  1  0.50976322  0.55474571  0.89379257  1
  Cl  Cl497  1  0.50179580  0.88858143  0.89625305  1
  Cl  Cl498  1  -0.00614117  0.11485418  0.38116336  1
  Cl  Cl499  1  -0.00118823  0.43946536  0.39691257  1
  Cl  Cl500  1  0.00228367  0.77635229  0.39292015  1
  Cl  Cl501  1  0.48750520  0.11017434  0.39386674  1
  Cl  Cl502  1  0.50120077  0.45092802  0.37221634  1
  Cl  Cl503  1  0.50642578  0.77552169  0.37539519  1
  Cl  Cl504  1  0.36170189  0.14923218  0.74909278  1
  Cl  Cl505  1  0.36071832  0.48278388  0.75403372  1
  Cl  Cl506  1  0.36385650  0.81426154  0.75109916  1
  Cl  Cl507  1  0.85899029  0.14973989  0.75448679  1
  Cl  Cl508  1  0.86473641  0.48083473  0.74705440  1
  Cl  Cl509  1  0.86250479  0.81343331  0.74891258  1
  Cl  Cl510  1  0.13845130  0.18663407  0.25372567  1
  Cl  Cl511  1  0.13430658  0.51885200  0.24662562  1
  Cl  Cl512  1  0.13832271  0.85135214  0.24692444  1
  Cl  Cl513  1  0.63472089  0.18674649  0.25598770  1
  Cl  Cl514  1  0.63128526  0.52166542  0.24268319  1
  Cl  Cl515  1  0.63719197  0.85311609  0.24626323  1
  Cl  Cl516  1  0.14082113  0.14736505  0.74720859  1
  Cl  Cl517  1  0.13981099  0.47994324  0.74672854  1
  Cl  Cl518  1  0.14181344  0.81429149  0.75379811  1
  Cl  Cl519  1  0.63817783  0.14650569  0.74665851  1
  Cl  Cl520  1  0.64399469  0.48046261  0.75483299  1
  Cl  Cl521  1  0.64096456  0.81480981  0.75633674  1
  Cl  Cl522  1  0.35788903  0.18583127  0.25330420  1
  Cl  Cl523  1  0.35804203  0.51984679  0.25071664  1
  Cl  Cl524  1  0.36103224  0.85312971  0.25210127  1
  Cl  Cl525  1  0.85609497  0.18384576  0.24654290  1
  Cl  Cl526  1  0.85320400  0.52012003  0.25130287  1
  Cl  Cl527  1  0.85887145  0.85305716  0.24738955  1
  Cl  Cl528  1  0.11369759  0.31339864  0.75237277  1
  Cl  Cl529  1  0.11137204  0.64923336  0.75143649  1
  Cl  Cl530  1  0.11406707  0.98007466  0.74469827  1
  Cl  Cl531  1  0.61550570  0.31402398  0.74616015  1
  Cl  Cl532  1  0.61122068  0.64796258  0.75915575  1
  Cl  Cl533  1  0.61324234  0.98151371  0.75802561  1
  Cl  Cl534  1  0.38693269  0.01889617  0.24820280  1
  Cl  Cl535  1  0.39233530  0.34985475  0.25206489  1
  Cl  Cl536  1  0.38514097  0.68637481  0.24851118  1
  Cl  Cl537  1  0.88783563  0.01817599  0.25197239  1
  Cl  Cl538  1  0.88632998  0.35187910  0.24906161  1
  Cl  Cl539  1  0.88729164  0.68609320  0.24838100  1
  Cl  Cl540  1  0.39428976  0.31861418  0.74578916  1
  Cl  Cl541  1  0.39351540  0.64773244  0.75284874  1
  Cl  Cl542  1  0.39272445  0.98165989  0.74670242  1
  Cl  Cl543  1  0.89497916  0.31565217  0.75012466  1
  Cl  Cl544  1  0.88809459  0.64621097  0.74903732  1
  Cl  Cl545  1  0.88981738  0.98003285  0.75485217  1
  Cl  Cl546  1  0.10942180  0.01888641  0.24837244  1
  Cl  Cl547  1  0.10511962  0.35606218  0.25091948  1
  Cl  Cl548  1  0.10638554  0.68557080  0.25159064  1
  Cl  Cl549  1  0.60932092  0.02024131  0.24620434  1
  Cl  Cl550  1  0.61199356  0.35565907  0.24947852  1
  Cl  Cl551  1  0.60232610  0.68569332  0.24379299  1
