# generated using pymatgen
data_H8PbC4(N3Cl2)2
_symmetry_space_group_name_H-M   'P 1'
_cell_length_a   16.62003608
_cell_length_b   22.49797629
_cell_length_c   21.58703670
_cell_angle_alpha   89.99932975
_cell_angle_beta   90.00659286
_cell_angle_gamma   90.00023771
_symmetry_Int_Tables_number   1
_chemical_formula_structural   H8PbC4(N3Cl2)2
_chemical_formula_sum   'H192 Pb24 C96 N144 Cl96'
_cell_volume   8071.76378482
_cell_formula_units_Z   24
loop_
 _symmetry_equiv_pos_site_id
 _symmetry_equiv_pos_as_xyz
  1  'x, y, z'
loop_
 _atom_site_type_symbol
 _atom_site_label
 _atom_site_symmetry_multiplicity
 _atom_site_fract_x
 _atom_site_fract_y
 _atom_site_fract_z
 _atom_site_occupancy
  H  H0  1  -0.00253848  0.03329190  0.68199153  1
  H  H1  1  0.00170328  0.36659440  0.67963920  1
  H  H2  1  -0.00131794  0.69914644  0.67972334  1
  H  H3  1  0.50074015  0.03317655  0.68144895  1
  H  H4  1  0.50326478  0.36636116  0.67917974  1
  H  H5  1  0.49846039  0.69905900  0.68065960  1
  H  H6  1  0.00021153  0.30186462  0.18152840  1
  H  H7  1  -0.00041636  0.63310541  0.17914978  1
  H  H8  1  0.00185562  0.96714478  0.18127676  1
  H  H9  1  0.49691527  0.30028324  0.18065680  1
  H  H10  1  0.50262728  0.63249906  0.18089979  1
  H  H11  1  0.50157843  0.96786577  0.18122644  1
  H  H12  1  -0.00597712  0.03377098  0.81771118  1
  H  H13  1  -0.00292575  0.36559044  0.81813759  1
  H  H14  1  0.00676018  0.70000288  0.81785856  1
  H  H15  1  0.49578382  0.03312512  0.81894639  1
  H  H16  1  0.50182209  0.36586497  0.81765335  1
  H  H17  1  0.49892960  0.69840578  0.81717417  1
  H  H18  1  0.00345049  0.30077075  0.31948685  1
  H  H19  1  -0.00234610  0.63377459  0.32144991  1
  H  H20  1  -0.00501035  0.96679369  0.31660921  1
  H  H21  1  0.49577313  0.29961942  0.31884882  1
  H  H22  1  0.49994413  0.63450386  0.31895459  1
  H  H23  1  0.50013742  0.96693534  0.32077955  1
  H  H24  1  0.25145467  0.19966947  0.68002870  1
  H  H25  1  0.25120754  0.53264845  0.67991582  1
  H  H26  1  0.24643529  0.86576972  0.68247340  1
  H  H27  1  0.74530776  0.20083536  0.68017246  1
  H  H28  1  0.75547410  0.53483040  0.67962921  1
  H  H29  1  0.75456516  0.86631069  0.68119343  1
  H  H30  1  0.25325798  0.13310108  0.18105425  1
  H  H31  1  0.24792320  0.46705279  0.18263873  1
  H  H32  1  0.25101231  0.80115046  0.18284396  1
  H  H33  1  0.75379828  0.13415225  0.17953963  1
  H  H34  1  0.75580002  0.46590087  0.18120721  1
  H  H35  1  0.74535162  0.80006179  0.18245813  1
  H  H36  1  0.25298302  0.19942600  0.81787831  1
  H  H37  1  0.25240185  0.53238794  0.81808757  1
  H  H38  1  0.24790531  0.86708125  0.81681424  1
  H  H39  1  0.74759399  0.19961465  0.81823776  1
  H  H40  1  0.74463781  0.53297109  0.82047013  1
  H  H41  1  0.74894984  0.86627683  0.81866423  1
  H  H42  1  0.24865043  0.13404823  0.31634361  1
  H  H43  1  0.24528414  0.46662479  0.32093785  1
  H  H44  1  0.25620356  0.80000801  0.32045403  1
  H  H45  1  0.75579601  0.13419942  0.31816779  1
  H  H46  1  0.74593513  0.46731229  0.31986420  1
  H  H47  1  0.75154033  0.80023394  0.31849688  1
  H  H48  1  0.12798396  0.05273124  0.61712904  1
  H  H49  1  0.12380985  0.38683309  0.60673346  1
  H  H50  1  0.12730175  0.72010445  0.61096258  1
  H  H51  1  0.62730991  0.05481469  0.61182001  1
  H  H52  1  0.61801679  0.39150910  0.60113988  1
  H  H53  1  0.62644923  0.71935065  0.61328817  1
  H  H54  1  0.37845701  0.27695619  0.10441058  1
  H  H55  1  0.37153984  0.61258640  0.11633401  1
  H  H56  1  0.37114990  0.94853580  0.11488021  1
  H  H57  1  0.87674778  0.28016852  0.11039852  1
  H  H58  1  0.87193692  0.61163287  0.11066350  1
  H  H59  1  0.87177361  0.94691857  0.11410892  1
  H  H60  1  0.37947091  0.05610912  0.89824280  1
  H  H61  1  0.37568804  0.38659363  0.88569740  1
  H  H62  1  0.37468569  0.72217079  0.88907885  1
  H  H63  1  0.88213703  0.05534897  0.89692278  1
  H  H64  1  0.87578297  0.38871415  0.89341034  1
  H  H65  1  0.86926017  0.71720933  0.87542036  1
  H  H66  1  0.12314626  0.27886432  0.39674898  1
  H  H67  1  0.12599630  0.61312020  0.38906622  1
  H  H68  1  0.12773154  0.94736865  0.38179424  1
  H  H69  1  0.62773205  0.28139155  0.38408365  1
  H  H70  1  0.62372243  0.61271280  0.38996502  1
  H  H71  1  0.62680540  0.94481836  0.38845611  1
  H  H72  1  0.36958658  0.22276135  0.60333576  1
  H  H73  1  0.37476689  0.55558542  0.60974708  1
  H  H74  1  0.37506637  0.88552021  0.61423864  1
  H  H75  1  0.87369708  0.21982069  0.61514847  1
  H  H76  1  0.87312540  0.55423237  0.60382813  1
  H  H77  1  0.86959482  0.88841074  0.60330250  1
  H  H78  1  0.12484783  0.11470842  0.11619839  1
  H  H79  1  0.12682843  0.44661725  0.11072518  1
  H  H80  1  0.12457374  0.77984135  0.11489034  1
  H  H81  1  0.62158470  0.11651882  0.11566221  1
  H  H82  1  0.62498463  0.44714600  0.11481950  1
  H  H83  1  0.63161159  0.77758426  0.10407590  1
  H  H84  1  0.12184744  0.21768839  0.88135943  1
  H  H85  1  0.12614447  0.55408285  0.88739825  1
  H  H86  1  0.12938610  0.88882503  0.89270952  1
  H  H87  1  0.62553561  0.22220754  0.89279109  1
  H  H88  1  0.63367292  0.55771682  0.90220275  1
  H  H89  1  0.63144550  0.88978677  0.89669990  1
  H  H90  1  0.37226981  0.11199156  0.39009354  1
  H  H91  1  0.37825760  0.44679959  0.38459721  1
  H  H92  1  0.37162377  0.77712072  0.39839031  1
  H  H93  1  0.86875286  0.11136741  0.39822287  1
  H  H94  1  0.88078119  0.44943980  0.38122329  1
  H  H95  1  0.87316015  0.77767415  0.39357001  1
  H  H96  1  0.37949033  0.27698897  0.39849820  1
  H  H97  1  0.37378560  0.61336029  0.38892316  1
  H  H98  1  0.37783337  0.94420449  0.39320661  1
  H  H99  1  0.87460401  0.28068935  0.38599679  1
  H  H100  1  0.87680346  0.61150633  0.39500882  1
  H  H101  1  0.87918697  0.94371169  0.39403092  1
  H  H102  1  0.13027443  0.05109272  0.87708823  1
  H  H103  1  0.12471548  0.38708098  0.88819815  1
  H  H104  1  0.11690124  0.72233426  0.89853104  1
  H  H105  1  0.62762187  0.05379393  0.88584510  1
  H  H106  1  0.62521473  0.38677341  0.88828376  1
  H  H107  1  0.62486606  0.71934991  0.88589239  1
  H  H108  1  0.12559241  0.27935173  0.11105724  1
  H  H109  1  0.12083085  0.61106558  0.10625592  1
  H  H110  1  0.11985297  0.94507566  0.10333987  1
  H  H111  1  0.62748380  0.28076652  0.11540455  1
  H  H112  1  0.62048113  0.60950495  0.10384873  1
  H  H113  1  0.61902815  0.94396051  0.10300967  1
  H  H114  1  0.37750816  0.05441150  0.60986793  1
  H  H115  1  0.37025263  0.38363878  0.61559121  1
  H  H116  1  0.37766172  0.72164308  0.60551073  1
  H  H117  1  0.87827901  0.05605956  0.60600234  1
  H  H118  1  0.87496127  0.38670617  0.61348280  1
  H  H119  1  0.87871378  0.71991697  0.60403318  1
  H  H120  1  0.12385786  0.11370678  0.38974109  1
  H  H121  1  0.13024033  0.44377337  0.39945467  1
  H  H122  1  0.12331290  0.78021407  0.38406938  1
  H  H123  1  0.62100375  0.11481917  0.38044515  1
  H  H124  1  0.63232603  0.44351585  0.40055306  1
  H  H125  1  0.62397805  0.77945077  0.38659401  1
  H  H126  1  0.37115499  0.22079648  0.89317514  1
  H  H127  1  0.37532804  0.55463275  0.89300982  1
  H  H128  1  0.37844832  0.88735230  0.88458753  1
  H  H129  1  0.87471257  0.22020645  0.88680552  1
  H  H130  1  0.88074780  0.55171004  0.87819887  1
  H  H131  1  0.87933812  0.88623703  0.88517913  1
  H  H132  1  0.37341473  0.11299245  0.10689746  1
  H  H133  1  0.37642118  0.44746721  0.11526836  1
  H  H134  1  0.37456802  0.77743165  0.11009982  1
  H  H135  1  0.86962346  0.10907039  0.10280559  1
  H  H136  1  0.87392604  0.44469259  0.10467904  1
  H  H137  1  0.87944874  0.78226830  0.12299163  1
  H  H138  1  0.12066616  0.22019387  0.61558739  1
  H  H139  1  0.12586107  0.55327493  0.60850134  1
  H  H140  1  0.12632171  0.88772512  0.60793614  1
  H  H141  1  0.62453696  0.22210272  0.60586509  1
  H  H142  1  0.62497903  0.55296896  0.61648051  1
  H  H143  1  0.62086264  0.88533247  0.61813265  1
  H  H144  1  0.69582370  0.91470298  1.00038047  1
  H  H145  1  0.85578684  0.75337341  0.00905520  1
  H  H146  1  0.05650599  0.92022965  -0.00038770  1
  H  H147  1  0.08253176  0.74833016  0.50579366  1
  H  H148  1  0.69278697  0.75445099  -0.00547626  1
  H  H149  1  0.41424025  0.41514991  0.99654276  1
  H  H150  1  0.31618018  0.24627479  1.00364354  1
  H  H151  1  0.42838032  0.91415513  0.49672350  1
  H  H152  1  0.43943573  0.25054682  -0.00035045  1
  H  H153  1  0.42518177  0.08212348  0.49977511  1
  H  H154  1  0.57869368  0.74436417  0.99885856  1
  H  H155  1  0.91257427  0.58361417  0.00449126  1
  H  H156  1  0.16899521  0.75419099  0.00200924  1
  H  H157  1  0.44598457  0.25155867  0.50128106  1
  H  H158  1  0.05101504  0.74794258  1.00672351  1
  H  H159  1  0.57936787  0.58554048  0.50004839  1
  H  H160  1  0.30762909  0.24801733  0.49836400  1
  H  H161  1  0.83826079  0.24962698  0.50221878  1
  H  H162  1  0.09188233  0.08139900  0.50542366  1
  H  H163  1  0.94065803  0.91697879  0.50184783  1
  H  H164  1  0.83105149  0.25046870  0.99634316  1
  H  H165  1  0.18083009  0.91494972  0.49976642  1
  H  H166  1  0.69954859  0.41967002  0.50357541  1
  H  H167  1  0.31891477  0.76613836  0.00214068  1
  H  H168  1  0.55435459  0.92044088  -0.00064466  1
  H  H169  1  0.65210478  0.91187297  0.51040957  1
  H  H170  1  0.80571884  0.09412532  -0.00166499  1
  H  H171  1  0.66695049  0.74976472  0.49651932  1
  H  H172  1  0.40398095  0.41861953  0.51111631  1
  H  H173  1  0.93574974  0.08380844  0.50213060  1
  H  H174  1  0.15373096  0.24567377  0.99352931  1
  H  H175  1  0.58097885  0.41469367  0.99861194  1
  H  H176  1  0.08305659  0.58280387  0.49455263  1
  H  H177  1  0.42898598  0.73519994  0.99706366  1
  H  H178  1  0.91204414  0.41665814  0.50088457  1
  H  H179  1  0.94513119  0.08137885  1.00568483  1
  H  H180  1  0.41806298  0.58801929  0.49467837  1
  H  H181  1  0.18822139  0.91697984  1.00098348  1
  H  H182  1  0.80356310  0.08670540  0.50515275  1
  H  H183  1  0.70285537  0.58072289  1.00456847  1
  H  H184  1  0.80902270  0.91279487  0.49382444  1
  H  H185  1  0.65640575  0.08184610  0.01194329  1
  H  H186  1  0.55885449  0.58284061  -0.00038321  1
  H  H187  1  0.58340779  0.08402618  0.50677024  1
  H  H188  1  0.15868426  0.08527153  0.00245833  1
  H  H189  1  0.55216778  0.40406093  0.49710847  1
  H  H190  1  0.17121385  0.58035339  0.99763909  1
  H  H191  1  0.17519630  0.41747810  0.00023362  1
  Pb  Pb192  1  0.25339528  0.04816577  0.75078187  1
  Pb  Pb193  1  0.24626296  0.38090813  0.75020210  1
  Pb  Pb194  1  0.24836950  0.71359653  0.75322374  1
  Pb  Pb195  1  0.75009178  0.04876220  0.75249521  1
  Pb  Pb196  1  0.75135058  0.38280927  0.74561492  1
  Pb  Pb197  1  0.75056967  0.71419000  0.74705055  1
  Pb  Pb198  1  0.24964227  0.28621028  0.25170557  1
  Pb  Pb199  1  0.24771322  0.61843070  0.25015959  1
  Pb  Pb200  1  0.24995631  0.95242036  0.24904795  1
  Pb  Pb201  1  0.75243609  0.28626020  0.24937188  1
  Pb  Pb202  1  0.75155071  0.61921827  0.24643212  1
  Pb  Pb203  1  0.74777983  0.95107663  0.25148149  1
  Pb  Pb204  1  -0.00098056  0.21346341  0.75012727  1
  Pb  Pb205  1  0.00136863  0.54745057  0.74774523  1
  Pb  Pb206  1  0.00315203  0.88216848  0.74990637  1
  Pb  Pb207  1  0.49831396  0.21739108  0.75120970  1
  Pb  Pb208  1  0.49946083  0.54791126  0.75260770  1
  Pb  Pb209  1  0.49969153  0.88009389  0.75114502  1
  Pb  Pb210  1  -0.00116624  0.11818086  0.25312981  1
  Pb  Pb211  1  0.00047207  0.45287722  0.25045680  1
  Pb  Pb212  1  0.00173680  0.78574331  0.25380708  1
  Pb  Pb213  1  0.49848427  0.12009610  0.25327366  1
  Pb  Pb214  1  0.50226511  0.45211363  0.25340729  1
  Pb  Pb215  1  0.49770018  0.78372251  0.24674327  1
  C  C216  1  0.00093820  0.04764215  0.63400282  1
  C  C217  1  -0.00043659  0.38058613  0.63169173  1
  C  C218  1  0.00191583  0.71351212  0.63184475  1
  C  C219  1  0.50229541  0.04794427  0.63351873  1
  C  C220  1  0.49693048  0.38057514  0.63126225  1
  C  C221  1  0.50058015  0.71370835  0.63304480  1
  C  C222  1  0.00117033  0.28711008  0.13398157  1
  C  C223  1  -0.00303310  0.61868982  0.13132019  1
  C  C224  1  -0.00213599  0.95290484  0.13337882  1
  C  C225  1  0.50068104  0.28629056  0.13280784  1
  C  C226  1  0.49850494  0.61876118  0.13302525  1
  C  C227  1  0.49759354  0.95366855  0.13334389  1
  C  C228  1  0.00191470  0.04685369  0.86557572  1
  C  C229  1  -0.00069734  0.38020419  0.86598329  1
  C  C230  1  -0.00205284  0.71345543  0.86560432  1
  C  C231  1  0.50114826  0.04729072  0.86683934  1
  C  C232  1  0.50092100  0.38016828  0.86571732  1
  C  C233  1  0.49876727  0.71290105  0.86521050  1
  C  C234  1  0.00072596  0.28659352  0.36728021  1
  C  C235  1  0.00053870  0.61930665  0.36923646  1
  C  C236  1  0.00095415  0.95277987  0.36443966  1
  C  C237  1  0.50063999  0.28584563  0.36685955  1
  C  C238  1  0.49874427  0.61954959  0.36684690  1
  C  C239  1  0.50129725  0.95211270  0.36852003  1
  C  C240  1  0.24750878  0.21375253  0.63227457  1
  C  C241  1  0.25037885  0.54711911  0.63221420  1
  C  C242  1  0.24943248  0.87991530  0.63456795  1
  C  C243  1  0.74840191  0.21447778  0.63214334  1
  C  C244  1  0.75101327  0.54754812  0.63142280  1
  C  C245  1  0.74775796  0.88061220  0.63332725  1
  C  C246  1  0.24992576  0.11971771  0.13294043  1
  C  C247  1  0.24994026  0.45318956  0.13462378  1
  C  C248  1  0.25084464  0.78665186  0.13480741  1
  C  C249  1  0.74808016  0.11959930  0.13169690  1
  C  C250  1  0.75124113  0.45238426  0.13331955  1
  C  C251  1  0.75253121  0.78618519  0.13457490  1
  C  C252  1  0.24847610  0.21322650  0.86597374  1
  C  C253  1  0.25163349  0.54693224  0.86598093  1
  C  C254  1  0.25229673  0.88083951  0.86481079  1
  C  C255  1  0.74905763  0.21394360  0.86612390  1
  C  C256  1  0.75283989  0.54675004  0.86821386  1
  C  C257  1  0.75303603  0.88080807  0.86646297  1
  C  C258  1  0.24824784  0.12011906  0.36443863  1
  C  C259  1  0.25167810  0.45249603  0.36846946  1
  C  C260  1  0.25002606  0.78576486  0.36801274  1
  C  C261  1  0.74811520  0.11978422  0.36580873  1
  C  C262  1  0.75259637  0.45369380  0.36777033  1
  C  C263  1  0.74969383  0.78563006  0.36627885  1
  C  C264  1  0.97822614  0.07141407  0.96342109  1
  C  C265  1  0.80751464  0.76320540  0.04401082  1
  C  C266  1  0.19658231  0.24062213  0.54126182  1
  C  C267  1  0.21438805  0.42764533  0.03910348  1
  C  C268  1  0.03465794  0.59160665  0.03637054  1
  C  C269  1  0.70173990  0.57098712  0.54022595  1
  C  C270  1  0.01917528  0.73843599  0.96382023  1
  C  C271  1  0.54355476  0.74012155  0.54117401  1
  C  C272  1  0.71237413  0.23958579  0.53720740  1
  C  C273  1  0.22491168  0.42553358  0.46383865  1
  C  C274  1  0.20679399  0.76048504  0.04265102  1
  C  C275  1  0.44742048  0.59296202  0.04162828  1
  C  C276  1  0.80898839  0.42908537  0.45769142  1
  C  C277  1  0.55114272  0.25970814  0.04147478  1
  C  C278  1  0.93868899  0.73691794  0.95383977  1
  C  C279  1  0.78965925  0.23971316  0.95833677  1
  C  C280  1  0.78281320  0.57140746  0.53592325  1
  C  C281  1  0.54018808  0.40503316  0.96039103  1
  C  C282  1  0.29595936  0.42844404  0.04233930  1
  C  C283  1  0.04969635  0.07167851  0.54260762  1
  C  C284  1  0.70862576  0.76029280  0.45846113  1
  C  C285  1  0.78124062  0.42635976  0.03860874  1
  C  C286  1  0.53858938  0.59493857  0.46084945  1
  C  C287  1  0.19850155  0.23653747  0.95793061  1
  C  C288  1  0.97416243  0.92759283  0.45989158  1
  C  C289  1  0.03712737  0.40582859  0.53744909  1
  C  C290  1  0.81192517  0.57158735  0.95695015  1
  C  C291  1  0.77139499  0.09561949  0.46213374  1
  C  C292  1  0.05944801  0.06978823  0.95481390  1
  C  C293  1  0.77648436  0.90475474  0.53682743  1
  C  C294  1  0.95564019  0.40620369  0.53790830  1
  C  C295  1  0.28519038  0.09511509  0.03806374  1
  C  C296  1  0.54658138  0.92432886  0.46113590  1
  C  C297  1  0.27701621  0.75806470  0.46294045  1
  C  C298  1  0.72590341  0.76244892  0.03722568  1
  C  C299  1  0.95626632  0.26103003  0.45912016  1
  C  C300  1  0.28042164  0.23720024  0.96249925  1
  C  C301  1  0.21187881  0.57112684  0.95888711  1
  C  C302  1  0.96318462  0.59164809  0.46380274  1
  C  C303  1  0.96373229  0.25953400  0.04100513  1
  C  C304  1  0.54188369  0.73944697  0.95748499  1
  C  C305  1  0.21767748  0.90488913  0.54004355  1
  C  C306  1  0.22260687  0.90543960  0.95975267  1
  C  C307  1  0.79400765  0.23951792  0.53886848  1
  C  C308  1  0.46341581  0.07292554  0.53947438  1
  C  C309  1  0.28817340  0.57481278  0.53931452  1
  C  C310  1  0.20371510  0.09527300  0.03952497  1
  C  C311  1  0.45785287  0.40504996  0.95940858  1
  N  N312  1  0.72616016  0.90496634  0.96045965  1
  N  N313  1  0.28586896  0.09537358  0.45901453  1
  N  N314  1  0.02558941  0.92894286  0.03950994  1
  N  N315  1  0.46716270  0.92482325  0.46166949  1
  N  N316  1  0.29116922  0.57157995  0.96102565  1
  N  N317  1  0.73312463  0.57355195  0.96380048  1
  N  N318  1  0.03369689  0.26039446  0.46370474  1
  N  N319  1  0.19945812  0.75919547  0.45962705  1
  N  N320  1  0.47228258  0.25932994  0.03862066  1
  N  N321  1  0.69718093  0.90449157  0.54354944  1
  N  N322  1  0.47554793  0.26222205  0.46122758  1
  N  N323  1  0.95557906  0.59262668  0.03929249  1
  N  N324  1  0.45873148  0.59455476  0.45921424  1
  N  N325  1  0.28685785  0.75870379  0.04186205  1
  N  N326  1  0.80399146  0.90359055  0.95783461  1
  N  N327  1  0.44621159  0.92961207  0.04248782  1
  N  N328  1  0.70362125  0.42745188  0.04041701  1
  N  N329  1  0.69845748  0.10066683  0.04119325  1
  N  N330  1  0.94776543  0.93031333  0.04170587  1
  N  N331  1  0.97011245  0.07223086  0.53961919  1
  N  N332  1  0.55337594  0.26406998  0.45787135  1
  N  N333  1  0.44606916  0.40080945  0.54136703  1
  N  N334  1  0.30177669  0.90407436  0.95741298  1
  N  N335  1  0.71036816  0.23972312  0.96106500  1
  N  N336  1  0.27531054  0.24055954  0.53798652  1
  N  N337  1  0.04223282  0.59235904  0.46051729  1
  N  N338  1  0.46595730  0.74064994  0.53737005  1
  N  N339  1  0.54319053  0.07290375  0.54128130  1
  N  N340  1  0.78797721  0.76030560  0.46133397  1
  N  N341  1  0.29711153  0.90451075  0.54169897  1
  N  N342  1  0.05336362  0.92926090  0.45594667  1
  N  N343  1  0.30230344  0.42705895  0.46030716  1
  N  N344  1  0.54839670  0.07126383  0.95903237  1
  N  N345  1  0.73019465  0.42709386  0.46307443  1
  N  N346  1  0.47209794  0.07287016  0.96286643  1
  N  N347  1  0.96498203  0.40710242  0.96044091  1
  N  N348  1  0.21018841  0.57398542  0.53781702  1
  N  N349  1  0.77658505  0.08724001  0.03962440  1
  N  N350  1  0.52401029  0.92772594  0.03986122  1
  N  N351  1  0.96463326  0.73887793  0.53736713  1
  N  N352  1  0.20916138  0.09570750  0.45873717  1
  N  N353  1  0.52449690  0.41230650  0.53879779  1
  N  N354  1  0.52610646  0.59294493  0.03838647  1
  N  N355  1  0.04282722  0.73880096  0.54114163  1
  N  N356  1  0.04170898  0.25895464  0.04028084  1
  N  N357  1  0.04144840  0.40653782  0.95875610  1
  N  N358  1  0.46181526  0.74181514  0.95756611  1
  N  N359  1  0.69241739  0.09616322  0.45624070  1
  N  N360  1  0.06902664  0.05629835  0.60120181  1
  N  N361  1  0.06347104  0.39057501  0.59388909  1
  N  N362  1  0.06702587  0.72378192  0.59840006  1
  N  N363  1  0.56691687  0.05808180  0.59945206  1
  N  N364  1  0.55623172  0.38907010  0.59133368  1
  N  N365  1  0.56712626  0.72363853  0.59900288  1
  N  N366  1  0.43992534  0.27661860  0.09457703  1
  N  N367  1  0.42993529  0.60886635  0.10019697  1
  N  N368  1  0.43017147  0.94477330  0.10122909  1
  N  N369  1  0.93689282  0.27642134  0.09766328  1
  N  N370  1  0.93186648  0.60968104  0.09763235  1
  N  N371  1  0.93101276  0.94424532  0.10063172  1
  N  N372  1  0.44146643  0.05797624  0.90611993  1
  N  N373  1  0.43516604  0.38960637  0.90012529  1
  N  N374  1  0.43548886  0.72073378  0.90133410  1
  N  N375  1  0.94352149  0.05690601  0.90656519  1
  N  N376  1  0.93738279  0.39085879  0.90307281  1
  N  N377  1  0.92622482  0.72188444  0.89449665  1
  N  N378  1  0.06161735  0.27676569  0.40516807  1
  N  N379  1  0.06596638  0.60931855  0.40219003  1
  N  N380  1  0.06809153  0.94466494  0.39632046  1
  N  N381  1  0.56851204  0.27791743  0.39865113  1
  N  N382  1  0.56345063  0.60967487  0.40314065  1
  N  N383  1  0.56766840  0.94137383  0.40335513  1
  N  N384  1  0.30806074  0.22273057  0.59367667  1
  N  N385  1  0.31484093  0.55850363  0.59633641  1
  N  N386  1  0.31487802  0.88880654  0.60100490  1
  N  N387  1  0.81494458  0.22376382  0.59920671  1
  N  N388  1  0.81253880  0.55707458  0.59193768  1
  N  N389  1  0.80830373  0.89044851  0.59270681  1
  N  N390  1  0.18311651  0.11081217  0.10001614  1
  N  N391  1  0.18689647  0.44319475  0.09787308  1
  N  N392  1  0.18445316  0.77575684  0.10043730  1
  N  N393  1  0.68051688  0.10962675  0.10104191  1
  N  N394  1  0.68489187  0.44372747  0.10097655  1
  N  N395  1  0.69272321  0.77647616  0.09409235  1
  N  N396  1  0.18030818  0.22179978  0.89789094  1
  N  N397  1  0.18617595  0.55651186  0.90079938  1
  N  N398  1  0.19058521  0.89085731  0.90347218  1
  N  N399  1  0.68669077  0.22371573  0.90304798  1
  N  N400  1  0.69590221  0.55646915  0.90959170  1
  N  N401  1  0.69322374  0.89108264  0.90533647  1
  N  N402  1  0.31115474  0.11016030  0.40061556  1
  N  N403  1  0.31913610  0.44377592  0.39933250  1
  N  N404  1  0.31047564  0.77425632  0.40819407  1
  N  N405  1  0.80700994  0.10955981  0.40689775  1
  N  N406  1  0.82285133  0.44481684  0.39844241  1
  N  N407  1  0.81171332  0.77590262  0.40349970  1
  N  N408  1  0.44151362  0.27567451  0.40637157  1
  N  N409  1  0.43442502  0.61018422  0.40139348  1
  N  N410  1  0.43878721  0.94224084  0.40458150  1
  N  N411  1  0.93371389  0.27663715  0.40078150  1
  N  N412  1  0.93707169  0.60832021  0.40740137  1
  N  N413  1  0.94047376  0.94214998  0.40410863  1
  N  N414  1  0.07283636  0.05499937  0.89554824  1
  N  N415  1  0.06397873  0.38993486  0.90024528  1
  N  N416  1  0.05547337  0.72363712  0.90728567  1
  N  N417  1  0.56771394  0.05572170  0.89920739  1
  N  N418  1  0.56532727  0.38977092  0.90177477  1
  N  N419  1  0.56484129  0.72385723  0.89993022  1
  N  N420  1  0.06503530  0.27657902  0.09935955  1
  N  N421  1  0.06047257  0.60794791  0.09334338  1
  N  N422  1  0.05808562  0.94340142  0.09458127  1
  N  N423  1  0.56892785  0.27637530  0.09969414  1
  N  N424  1  0.55892963  0.60957704  0.09436906  1
  N  N425  1  0.55730781  0.94348429  0.09442354  1
  N  N426  1  0.43784196  0.05746204  0.59676024  1
  N  N427  1  0.42907911  0.39086309  0.60110160  1
  N  N428  1  0.43904219  0.72411212  0.59592321  1
  N  N429  1  0.93995383  0.05773709  0.59611527  1
  N  N430  1  0.93353518  0.39018459  0.59810013  1
  N  N431  1  0.93972638  0.72302271  0.59411157  1
  N  N432  1  0.18464596  0.11134422  0.40035613  1
  N  N433  1  0.19153191  0.44095168  0.40881467  1
  N  N434  1  0.18267869  0.77659098  0.39886330  1
  N  N435  1  0.67988930  0.11122966  0.39596626  1
  N  N436  1  0.69448431  0.44397317  0.40817912  1
  N  N437  1  0.68368175  0.77585883  0.40040587  1
  N  N438  1  0.31026413  0.22268233  0.90466190  1
  N  N439  1  0.31420381  0.55640900  0.90281563  1
  N  N440  1  0.31851675  0.88947557  0.89789941  1
  N  N441  1  0.81484868  0.22387832  0.90044328  1
  N  N442  1  0.82387117  0.55588387  0.89736745  1
  N  N443  1  0.82021692  0.88917407  0.89897653  1
  N  N444  1  0.31298313  0.10972698  0.09425902  1
  N  N445  1  0.31703120  0.44375564  0.10009376  1
  N  N446  1  0.31371065  0.77936095  0.09814269  1
  N  N447  1  0.80792558  0.11037311  0.09241190  1
  N  N448  1  0.81294863  0.44152444  0.09421860  1
  N  N449  1  0.82210459  0.77790463  0.10471920  1
  N  N450  1  0.17916202  0.22436013  0.59957697  1
  N  N451  1  0.18669103  0.55630972  0.59698664  1
  N  N452  1  0.18696317  0.89011772  0.59669847  1
  N  N453  1  0.68491102  0.22459198  0.59349570  1
  N  N454  1  0.68285220  0.55655950  0.59870594  1
  N  N455  1  0.68003788  0.88975929  0.60295613  1
  Cl  Cl456  1  0.25296175  0.05205454  0.62072275  1
  Cl  Cl457  1  0.24787481  0.38148143  0.61726659  1
  Cl  Cl458  1  0.25092625  0.71790301  0.62077662  1
  Cl  Cl459  1  0.75497736  0.05334604  0.61565840  1
  Cl  Cl460  1  0.73837547  0.39145995  0.60677039  1
  Cl  Cl461  1  0.75179340  0.71853988  0.61552187  1
  Cl  Cl462  1  0.25443706  0.27861691  0.11755329  1
  Cl  Cl463  1  0.24431153  0.61494771  0.11736432  1
  Cl  Cl464  1  0.24183233  0.94609804  0.11375226  1
  Cl  Cl465  1  0.75344299  0.28100925  0.11743845  1
  Cl  Cl466  1  0.74373660  0.60755843  0.10573722  1
  Cl  Cl467  1  0.74075775  0.94514323  0.10960281  1
  Cl  Cl468  1  0.25656913  0.05308328  0.88441054  1
  Cl  Cl469  1  0.24859119  0.38686535  0.88226582  1
  Cl  Cl470  1  0.24978090  0.72557256  0.89344261  1
  Cl  Cl471  1  0.75438157  0.05785011  0.89421436  1
  Cl  Cl472  1  0.75287823  0.38648851  0.87727242  1
  Cl  Cl473  1  0.74369788  0.71628628  0.88144036  1
  Cl  Cl474  1  0.25625681  0.27707469  0.39388894  1
  Cl  Cl475  1  0.25054001  0.61538508  0.38286177  1
  Cl  Cl476  1  0.25410562  0.94583696  0.38170377  1
  Cl  Cl477  1  0.75150481  0.28388797  0.38275606  1
  Cl  Cl478  1  0.74991451  0.61420864  0.37704357  1
  Cl  Cl479  1  0.75346842  0.94435214  0.38691925  1
  Cl  Cl480  1  -0.00235762  0.21576667  0.61973792  1
  Cl  Cl481  1  0.00178599  0.55437528  0.61362587  1
  Cl  Cl482  1  -0.00493139  0.88795706  0.61607269  1
  Cl  Cl483  1  0.49275346  0.22345624  0.60891487  1
  Cl  Cl484  1  0.49745358  0.55358186  0.61704778  1
  Cl  Cl485  1  0.49856469  0.88710681  0.61589901  1
  Cl  Cl486  1  -0.00929998  0.11295652  0.11952602  1
  Cl  Cl487  1  -0.00155297  0.45169591  0.12018962  1
  Cl  Cl488  1  0.00570508  0.78154619  0.12003595  1
  Cl  Cl489  1  0.49878846  0.11910268  0.12217138  1
  Cl  Cl490  1  0.50081428  0.44918255  0.12060209  1
  Cl  Cl491  1  0.49954057  0.77447495  0.10583846  1
  Cl  Cl492  1  -0.00257306  0.21646678  0.88034258  1
  Cl  Cl493  1  0.00329223  0.55612526  0.88245551  1
  Cl  Cl494  1  0.00698333  0.88884979  0.88759566  1
  Cl  Cl495  1  0.49611102  0.22393145  0.88749203  1
  Cl  Cl496  1  0.50932767  0.55923570  0.89404118  1
  Cl  Cl497  1  0.51034029  0.88826145  0.89033093  1
  Cl  Cl498  1  -0.00541882  0.11007075  0.39374502  1
  Cl  Cl499  1  0.00515274  0.44946900  0.38518570  1
  Cl  Cl500  1  -0.00168617  0.77881967  0.38640569  1
  Cl  Cl501  1  0.49600138  0.11125759  0.39034226  1
  Cl  Cl502  1  0.50852775  0.44174581  0.39609791  1
  Cl  Cl503  1  0.49793954  0.78318358  0.37815159  1
  Cl  Cl504  1  0.36131745  0.14219758  0.74888784  1
  Cl  Cl505  1  0.36406955  0.47635375  0.75011347  1
  Cl  Cl506  1  0.36525529  0.81010019  0.75269455  1
  Cl  Cl507  1  0.86265430  0.14209145  0.74923789  1
  Cl  Cl508  1  0.86151323  0.47651002  0.75041757  1
  Cl  Cl509  1  0.85909431  0.80915055  0.75305317  1
  Cl  Cl510  1  0.13720219  0.19148493  0.24924596  1
  Cl  Cl511  1  0.13816827  0.52460309  0.25037385  1
  Cl  Cl512  1  0.13702819  0.85712381  0.25198626  1
  Cl  Cl513  1  0.63635368  0.19057818  0.25122514  1
  Cl  Cl514  1  0.63598472  0.52351847  0.24848097  1
  Cl  Cl515  1  0.64007384  0.85782833  0.24929684  1
  Cl  Cl516  1  0.13593258  0.14182010  0.75073981  1
  Cl  Cl517  1  0.13796755  0.47600637  0.74840233  1
  Cl  Cl518  1  0.13839361  0.80917335  0.74997122  1
  Cl  Cl519  1  0.63987165  0.14208496  0.74878750  1
  Cl  Cl520  1  0.63637404  0.47646669  0.74818696  1
  Cl  Cl521  1  0.63765962  0.80947044  0.74834661  1
  Cl  Cl522  1  0.36322771  0.19064561  0.25063953  1
  Cl  Cl523  1  0.36436710  0.52386102  0.25186095  1
  Cl  Cl524  1  0.36249443  0.85744943  0.24747780  1
  Cl  Cl525  1  0.85831332  0.19017010  0.25029165  1
  Cl  Cl526  1  0.86232225  0.52459711  0.25071335  1
  Cl  Cl527  1  0.86259085  0.85774559  0.24827454  1
  Cl  Cl528  1  0.11326749  0.30882908  0.74960336  1
  Cl  Cl529  1  0.11352578  0.64350606  0.74932142  1
  Cl  Cl530  1  0.11166052  0.97566170  0.75097955  1
  Cl  Cl531  1  0.61003676  0.30852140  0.74855335  1
  Cl  Cl532  1  0.61133228  0.64294139  0.74963400  1
  Cl  Cl533  1  0.61425469  0.97684243  0.74856113  1
  Cl  Cl534  1  0.38859917  0.02338074  0.24905798  1
  Cl  Cl535  1  0.38781853  0.35777092  0.25080963  1
  Cl  Cl536  1  0.38891900  0.69120284  0.24710623  1
  Cl  Cl537  1  0.88758437  0.02403223  0.24754556  1
  Cl  Cl538  1  0.88675907  0.35753702  0.25165217  1
  Cl  Cl539  1  0.88640824  0.68959934  0.24841508  1
  Cl  Cl540  1  0.38942488  0.30879400  0.74863975  1
  Cl  Cl541  1  0.38791520  0.64225788  0.75169634  1
  Cl  Cl542  1  0.38856468  0.97488499  0.74914739  1
  Cl  Cl543  1  0.88764479  0.30958272  0.74781247  1
  Cl  Cl544  1  0.88752018  0.64371469  0.75210941  1
  Cl  Cl545  1  0.88683287  0.97598365  0.75044451  1
  Cl  Cl546  1  0.11057406  0.02482888  0.25185222  1
  Cl  Cl547  1  0.11377027  0.35688585  0.24943526  1
  Cl  Cl548  1  0.11207227  0.69025082  0.25040220  1
  Cl  Cl549  1  0.61349893  0.02360127  0.25199483  1
  Cl  Cl550  1  0.61112732  0.35708488  0.25091037  1
  Cl  Cl551  1  0.61126571  0.69040928  0.24861162  1
