# generated using pymatgen
data_H8PbC4(N3Cl2)2
_symmetry_space_group_name_H-M   'P 1'
_cell_length_a   16.62740312
_cell_length_b   22.51855610
_cell_length_c   21.59443655
_cell_angle_alpha   89.99778389
_cell_angle_beta   89.96173051
_cell_angle_gamma   90.00171922
_symmetry_Int_Tables_number   1
_chemical_formula_structural   H8PbC4(N3Cl2)2
_chemical_formula_sum   'H192 Pb24 C96 N144 Cl96'
_cell_volume   8085.49746445
_cell_formula_units_Z   24
loop_
 _symmetry_equiv_pos_site_id
 _symmetry_equiv_pos_as_xyz
  1  'x, y, z'
loop_
 _atom_site_type_symbol
 _atom_site_label
 _atom_site_symmetry_multiplicity
 _atom_site_fract_x
 _atom_site_fract_y
 _atom_site_fract_z
 _atom_site_occupancy
  H  H0  1  -0.00244548  0.03053015  0.68099600  1
  H  H1  1  -0.02000920  0.36403734  0.67517979  1
  H  H2  1  -0.00587022  0.69382695  0.67590871  1
  H  H3  1  0.49455686  0.03531482  0.68378780  1
  H  H4  1  0.52033665  0.36368726  0.67719898  1
  H  H5  1  0.50380919  0.69746801  0.67847950  1
  H  H6  1  0.01690899  0.29874072  0.17383322  1
  H  H7  1  -0.00223475  0.63729681  0.17950074  1
  H  H8  1  0.00234850  0.97686152  0.17356990  1
  H  H9  1  0.49144078  0.30840148  0.17555897  1
  H  H10  1  0.49757010  0.63721760  0.17906086  1
  H  H11  1  0.49090593  0.97083685  0.18078755  1
  H  H12  1  -0.00428127  0.02156646  0.82596957  1
  H  H13  1  0.00711660  0.35803021  0.82456511  1
  H  H14  1  0.01755521  0.69681678  0.82240707  1
  H  H15  1  0.50733695  0.02448914  0.82349531  1
  H  H16  1  0.48186236  0.36041638  0.82113620  1
  H  H17  1  0.47653784  0.69524210  0.82023105  1
  H  H18  1  0.00494220  0.30468611  0.32137969  1
  H  H19  1  -0.01859269  0.63019300  0.32591245  1
  H  H20  1  -0.00770691  0.96554258  0.31917128  1
  H  H21  1  0.50662924  0.29850241  0.32506431  1
  H  H22  1  0.50804779  0.63615050  0.32108136  1
  H  H23  1  0.50996871  0.96960790  0.32190597  1
  H  H24  1  0.24046387  0.20147570  0.67660405  1
  H  H25  1  0.24698586  0.52663185  0.67796193  1
  H  H26  1  0.23875537  0.86197632  0.67686332  1
  H  H27  1  0.75670789  0.19594593  0.67461697  1
  H  H28  1  0.74826469  0.53135949  0.67517138  1
  H  H29  1  0.75948019  0.86387221  0.67945140  1
  H  H30  1  0.24825893  0.14437434  0.17734921  1
  H  H31  1  0.23821253  0.47289390  0.17708482  1
  H  H32  1  0.25372006  0.80419530  0.18487443  1
  H  H33  1  0.74854199  0.14386776  0.17394950  1
  H  H34  1  0.76984172  0.46885117  0.17581403  1
  H  H35  1  0.73898593  0.80788593  0.17311992  1
  H  H36  1  0.25043003  0.19126239  0.82280570  1
  H  H37  1  0.25814730  0.53151935  0.82515766  1
  H  H38  1  0.22826552  0.86788165  0.82471804  1
  H  H39  1  0.74946871  0.19607701  0.82304807  1
  H  H40  1  0.75968868  0.52714934  0.82535595  1
  H  H41  1  0.76586390  0.86132053  0.82525577  1
  H  H42  1  0.24622193  0.13011863  0.31830090  1
  H  H43  1  0.25480082  0.47127443  0.32826683  1
  H  H44  1  0.24456478  0.80411855  0.32171849  1
  H  H45  1  0.75326243  0.13620855  0.31974073  1
  H  H46  1  0.74835666  0.48185943  0.32318397  1
  H  H47  1  0.75860801  0.80214227  0.32206069  1
  H  H48  1  0.12119288  0.04702974  0.60791547  1
  H  H49  1  0.12498882  0.38337924  0.62906387  1
  H  H50  1  0.13609232  0.71299313  0.62434260  1
  H  H51  1  0.62489933  0.05334560  0.61564244  1
  H  H52  1  0.61298468  0.39549835  0.58507401  1
  H  H53  1  0.63027032  0.72368073  0.60971892  1
  H  H54  1  0.38007100  0.27565671  0.09649166  1
  H  H55  1  0.38478853  0.60962104  0.09873040  1
  H  H56  1  0.37480391  0.94593339  0.10303460  1
  H  H57  1  0.87428257  0.28638226  0.12621128  1
  H  H58  1  0.88350396  0.60869644  0.10134980  1
  H  H59  1  0.87712174  0.94703725  0.10734674  1
  H  H60  1  0.36849966  0.04664778  0.87593059  1
  H  H61  1  0.37511922  0.39161812  0.90574425  1
  H  H62  1  0.37602559  0.72186030  0.90791179  1
  H  H63  1  0.87266439  0.05318430  0.89554922  1
  H  H64  1  0.86767282  0.38356085  0.87635204  1
  H  H65  1  0.87351618  0.71246448  0.86756650  1
  H  H66  1  0.11540671  0.27389767  0.40001403  1
  H  H67  1  0.11296919  0.61295699  0.38658126  1
  H  H68  1  0.12946887  0.94950343  0.37936636  1
  H  H69  1  0.61327768  0.27528818  0.40996257  1
  H  H70  1  0.60980846  0.60718819  0.40587194  1
  H  H71  1  0.62205254  0.94279585  0.40320540  1
  H  H72  1  0.38090766  0.21831080  0.62663672  1
  H  H73  1  0.37798567  0.55269167  0.61391282  1
  H  H74  1  0.37378842  0.88225426  0.61758566  1
  H  H75  1  0.88499838  0.22079842  0.60786085  1
  H  H76  1  0.88434496  0.55431479  0.61809969  1
  H  H77  1  0.87121256  0.89107211  0.59913134  1
  H  H78  1  0.12864300  0.11268216  0.10655509  1
  H  H79  1  0.13264716  0.44080708  0.09266813  1
  H  H80  1  0.12679979  0.78596408  0.11689826  1
  H  H81  1  0.63797783  0.10945417  0.09548090  1
  H  H82  1  0.63026276  0.45209330  0.12579862  1
  H  H83  1  0.62575732  0.77286454  0.09634269  1
  H  H84  1  0.12630863  0.21913785  0.89390718  1
  H  H85  1  0.12281523  0.54830614  0.88204577  1
  H  H86  1  0.11956725  0.89309727  0.90500678  1
  H  H87  1  0.62686130  0.22103928  0.89270205  1
  H  H88  1  0.62372502  0.54786830  0.87972098  1
  H  H89  1  0.62633993  0.87977439  0.87482979  1
  H  H90  1  0.37552246  0.11688611  0.38644621  1
  H  H91  1  0.37170338  0.44024765  0.40265718  1
  H  H92  1  0.36152278  0.77713023  0.39778925  1
  H  H93  1  0.87258688  0.10814702  0.39203057  1
  H  H94  1  0.87622092  0.44885693  0.38534246  1
  H  H95  1  0.85794632  0.77026011  0.40971970  1
  H  H96  1  0.36782990  0.27775953  0.38071488  1
  H  H97  1  0.36588274  0.61983293  0.36967453  1
  H  H98  1  0.37493542  0.94904519  0.38111374  1
  H  H99  1  0.86883427  0.28224272  0.37976504  1
  H  H100  1  0.86584214  0.60820579  0.40191208  1
  H  H101  1  0.88211954  0.94109809  0.40115652  1
  H  H102  1  0.12136817  0.05147891  0.89160811  1
  H  H103  1  0.11325056  0.38891658  0.90782332  1
  H  H104  1  0.11543256  0.72442206  0.91008500  1
  H  H105  1  0.61477414  0.05947115  0.90450387  1
  H  H106  1  0.62014596  0.38464696  0.87703385  1
  H  H107  1  0.61959860  0.71783834  0.86947088  1
  H  H108  1  0.11654656  0.27247258  0.08782056  1
  H  H109  1  0.13136108  0.61555819  0.11769663  1
  H  H110  1  0.12607833  0.94871354  0.10255268  1
  H  H111  1  0.62692814  0.28349104  0.11922410  1
  H  H112  1  0.63261927  0.61365888  0.11957431  1
  H  H113  1  0.62349314  0.94761130  0.11763406  1
  H  H114  1  0.37603544  0.05527604  0.60815500  1
  H  H115  1  0.37477791  0.38319748  0.63308295  1
  H  H116  1  0.38139867  0.72133375  0.60845812  1
  H  H117  1  0.87462922  0.06110187  0.61283634  1
  H  H118  1  0.88317609  0.39483477  0.58741358  1
  H  H119  1  0.89220169  0.72502472  0.59020268  1
  H  H120  1  0.12797937  0.11130733  0.39507350  1
  H  H121  1  0.12386440  0.44673841  0.38994865  1
  H  H122  1  0.11363799  0.78109611  0.38514643  1
  H  H123  1  0.62568964  0.11822561  0.38812301  1
  H  H124  1  0.62838291  0.44342897  0.39071211  1
  H  H125  1  0.61622971  0.78341168  0.37239871  1
  H  H126  1  0.37516624  0.22080507  0.89256353  1
  H  H127  1  0.36964872  0.55726714  0.90409222  1
  H  H128  1  0.36535110  0.88292057  0.87963453  1
  H  H129  1  0.87607669  0.21887618  0.88952375  1
  H  H130  1  0.87002359  0.55337926  0.90526681  1
  H  H131  1  0.87040261  0.89416877  0.90712925  1
  H  H132  1  0.37694473  0.11660900  0.11243899  1
  H  H133  1  0.37771076  0.45147410  0.12279096  1
  H  H134  1  0.37622972  0.78009923  0.11424118  1
  H  H135  1  0.88499892  0.11543055  0.11970646  1
  H  H136  1  0.87415821  0.44276739  0.09017421  1
  H  H137  1  0.87219009  0.78523732  0.11163570  1
  H  H138  1  0.13668611  0.22483199  0.59209693  1
  H  H139  1  0.12921310  0.55539960  0.60344840  1
  H  H140  1  0.12685981  0.89231598  0.59739601  1
  H  H141  1  0.63593603  0.22453607  0.60414499  1
  H  H142  1  0.63698773  0.55895840  0.59504655  1
  H  H143  1  0.62404336  0.88677390  0.62235332  1
  H  H144  1  0.54234057  0.08528053  1.00431440  1
  H  H145  1  0.58279790  0.05295147  0.50583328  1
  H  H146  1  0.64380203  0.57943464  0.99452409  1
  H  H147  1  0.38497934  0.25364540  0.49494644  1
  H  H148  1  0.69000855  0.42145906  0.49478108  1
  H  H149  1  0.97240343  0.74125309  0.49079086  1
  H  H150  1  0.32898346  0.75657419  0.00253747  1
  H  H151  1  0.69041631  0.74819206  -0.00552346  1
  H  H152  1  0.96491300  0.42336941  0.48727752  1
  H  H153  1  0.03788192  0.41500002  1.00725276  1
  H  H154  1  0.84226932  0.25173206  0.50278918  1
  H  H155  1  0.68405051  0.12006130  0.49593535  1
  H  H156  1  0.14472573  0.58193818  0.99589665  1
  H  H157  1  0.53754010  0.23891837  0.50503892  1
  H  H158  1  0.11939930  0.74724652  0.51552690  1
  H  H159  1  0.42964008  0.75295989  0.49845038  1
  H  H160  1  0.52326776  0.41710850  0.49120192  1
  H  H161  1  0.80150095  0.91836416  0.49738610  1
  H  H162  1  0.70682539  0.58674629  0.49327199  1
  H  H163  1  0.67084357  0.25201265  1.00242545  1
  H  H164  1  0.77535781  0.74714309  0.50685358  1
  H  H165  1  0.42911643  0.06621405  0.49586191  1
  H  H166  1  0.18649959  0.58935085  0.49843250  1
  H  H167  1  0.95201385  0.91294590  0.50579436  1
  H  H168  1  0.87861085  0.74142990  -0.01832428  1
  H  H169  1  0.38845158  0.08320480  0.98720719  1
  H  H170  1  0.03481091  0.75293945  1.01129976  1
  H  H171  1  0.45748255  0.74763190  1.00896293  1
  H  H172  1  0.70908250  0.07871709  -0.00472251  1
  H  H173  1  0.19255383  0.07213057  0.49112508  1
  H  H174  1  0.43354545  0.91208603  -0.00081192  1
  H  H175  1  0.16837269  0.76053081  0.00409617  1
  H  H176  1  0.64019235  0.91358624  -0.01097671  1
  H  H177  1  0.53483387  0.57985294  0.50909786  1
  H  H178  1  0.82102448  0.42911537  0.49258949  1
  H  H179  1  0.40367939  0.91605793  0.49278966  1
  H  H180  1  0.31526166  0.41326715  0.50532298  1
  H  H181  1  0.11688572  0.41100591  0.51831667  1
  H  H182  1  0.21029192  0.25582689  0.48867446  1
  H  H183  1  0.80685181  0.05282660  0.47869300  1
  H  H184  1  0.94036728  0.11783267  0.52633718  1
  H  H185  1  0.05702875  0.04526431  0.50252896  1
  H  H186  1  0.32485624  0.12430739  0.49462747  1
  H  H187  1  0.84057287  0.25301322  0.99929924  1
  H  H188  1  0.64420682  0.42169073  1.01013732  1
  H  H189  1  0.58655486  0.74909964  0.50363581  1
  H  H190  1  0.21091338  0.41506733  -0.00555602  1
  H  H191  1  0.37626403  0.58997227  0.48336461  1
  Pb  Pb192  1  0.24684345  0.04748615  0.73851112  1
  Pb  Pb193  1  0.24566840  0.38388438  0.76163342  1
  Pb  Pb194  1  0.25181225  0.71475741  0.76266302  1
  Pb  Pb195  1  0.74756924  0.05022666  0.75320805  1
  Pb  Pb196  1  0.75016921  0.38201166  0.73229432  1
  Pb  Pb197  1  0.74807701  0.71580014  0.74163727  1
  Pb  Pb198  1  0.24864560  0.28529946  0.24599443  1
  Pb  Pb199  1  0.24633772  0.61792597  0.24473090  1
  Pb  Pb200  1  0.24418579  0.95149745  0.24301229  1
  Pb  Pb201  1  0.74412743  0.28406963  0.25978807  1
  Pb  Pb202  1  0.74472776  0.61635234  0.25526805  1
  Pb  Pb203  1  0.75075719  0.95201654  0.25801459  1
  Pb  Pb204  1  0.00179724  0.21473342  0.74390537  1
  Pb  Pb205  1  -0.00132109  0.54931715  0.75159986  1
  Pb  Pb206  1  -0.00123465  0.88195142  0.74956800  1
  Pb  Pb207  1  0.49808891  0.21647908  0.74561320  1
  Pb  Pb208  1  0.50095036  0.54736886  0.74844123  1
  Pb  Pb209  1  0.49631427  0.88219421  0.75093301  1
  Pb  Pb210  1  0.00036839  0.12056887  0.26049152  1
  Pb  Pb211  1  -0.00149761  0.45019279  0.24026234  1
  Pb  Pb212  1  -0.00728481  0.78292545  0.25679959  1
  Pb  Pb213  1  0.49641088  0.11554618  0.24430570  1
  Pb  Pb214  1  0.49505305  0.45234234  0.26105412  1
  Pb  Pb215  1  0.49648921  0.78509289  0.24961602  1
  C  C216  1  -0.00209743  0.04566626  0.63321484  1
  C  C217  1  -0.00312764  0.37911685  0.62907622  1
  C  C218  1  0.00763724  0.70972132  0.62942261  1
  C  C219  1  0.49937818  0.04690104  0.63505010  1
  C  C220  1  0.50315518  0.37894392  0.63140976  1
  C  C221  1  0.50593131  0.71351459  0.63099926  1
  C  C222  1  0.00210426  0.28590629  0.12691307  1
  C  C223  1  0.00407630  0.62087078  0.13271661  1
  C  C224  1  0.00205156  0.95789250  0.12757299  1
  C  C225  1  0.49929874  0.29006491  0.12972705  1
  C  C226  1  0.50474835  0.62083743  0.13233722  1
  C  C227  1  0.49662989  0.95454790  0.13369330  1
  C  C228  1  -0.00377311  0.04151339  0.87147914  1
  C  C229  1  -0.00376278  0.37468642  0.87082038  1
  C  C230  1  0.00144471  0.71089199  0.86895990  1
  C  C231  1  0.49714715  0.04261206  0.86956316  1
  C  C232  1  0.49197185  0.37718340  0.86762495  1
  C  C233  1  0.49104182  0.71095332  0.86642410  1
  C  C234  1  -0.00413047  0.28771976  0.36759404  1
  C  C235  1  -0.01313737  0.61700184  0.37385953  1
  C  C236  1  0.00161595  0.95110424  0.36652082  1
  C  C237  1  0.49544128  0.28386528  0.37242886  1
  C  C238  1  0.49397805  0.62119627  0.36764239  1
  C  C239  1  0.50246911  0.95317418  0.36873122  1
  C  C240  1  0.25307935  0.21595190  0.62956877  1
  C  C241  1  0.25170571  0.54455401  0.63149442  1
  C  C242  1  0.24624658  0.87883798  0.63034360  1
  C  C243  1  0.75966113  0.21394286  0.62817462  1
  C  C244  1  0.75639325  0.54760931  0.62836965  1
  C  C245  1  0.75172457  0.87927983  0.63245139  1
  C  C246  1  0.25168571  0.12550364  0.13149294  1
  C  C247  1  0.24898696  0.45626478  0.13068344  1
  C  C248  1  0.25217244  0.78978321  0.13688280  1
  C  C249  1  0.75676741  0.12441589  0.12854973  1
  C  C250  1  0.75725504  0.45471737  0.12887345  1
  C  C251  1  0.74523192  0.78968933  0.12682014  1
  C  C252  1  0.25071089  0.20945035  0.86929211  1
  C  C253  1  0.24935772  0.54617038  0.87245825  1
  C  C254  1  0.23817476  0.88114475  0.87229112  1
  C  C255  1  0.75075634  0.21209013  0.87049794  1
  C  C256  1  0.75032435  0.54309438  0.87214180  1
  C  C257  1  0.75320253  0.87796589  0.87127772  1
  C  C258  1  0.25016066  0.11924251  0.36720622  1
  C  C259  1  0.25071773  0.45349054  0.37487915  1
  C  C260  1  0.23982913  0.78842221  0.36887514  1
  C  C261  1  0.75027924  0.12085387  0.36738403  1
  C  C262  1  0.75101841  0.46025903  0.36813065  1
  C  C263  1  0.74434641  0.78697771  0.36846320  1
  C  C264  1  0.69283003  0.57050013  0.96081745  1
  C  C265  1  0.77041878  0.91008968  0.96694047  1
  C  C266  1  0.71261254  0.24154148  0.96409122  1
  C  C267  1  0.77447675  0.42794414  0.03116215  1
  C  C268  1  0.27425677  0.57533516  0.96796158  1
  C  C269  1  0.19996024  0.42417664  0.46484750  1
  C  C270  1  0.29716445  0.90420281  0.95974086  1
  C  C271  1  0.01755256  0.25424846  0.46151257  1
  C  C272  1  0.03778425  0.59363128  0.46428792  1
  C  C273  1  0.21934025  0.08886861  0.04096826  1
  C  C274  1  0.19370471  0.76248579  0.45976360  1
  C  C275  1  0.46943495  0.92451094  0.03994905  1
  C  C276  1  0.98816459  0.40986775  0.53222834  1
  C  C277  1  0.72217756  0.24771460  0.53578723  1
  C  C278  1  0.96302991  0.92206815  0.03852858  1
  C  C279  1  0.46435410  0.06293760  0.53808812  1
  C  C280  1  0.42705443  0.59743422  0.45244706  1
  C  C281  1  0.79493354  0.24103834  0.96259049  1
  C  C282  1  0.01284048  0.25970147  0.03009507  1
  C  C283  1  0.01013225  0.73892006  0.96707204  1
  C  C284  1  0.46700435  0.74160595  0.53804986  1
  C  C285  1  0.21696895  0.90758886  0.96821471  1
  C  C286  1  0.69406633  0.43034602  0.04178351  1
  C  C287  1  0.93354725  0.40657617  0.95527278  1
  C  C288  1  0.81542295  0.08726774  0.04459542  1
  C  C289  1  0.50718428  0.59265989  0.46527675  1
  C  C290  1  0.20870942  0.76785989  0.04288666  1
  C  C291  1  0.98189136  0.92502822  0.46268486  1
  C  C292  1  0.43592586  0.07440027  0.95345485  1
  C  C293  1  0.81495560  0.57858692  0.54127087  1
  C  C294  1  0.93074976  0.73336006  0.95232890  1
  C  C295  1  0.95624209  0.59209727  0.46956175  1
  C  C296  1  0.69005826  0.90552018  0.95725099  1
  C  C297  1  0.29863951  0.90743335  0.54207856  1
  C  C298  1  0.77374699  0.57241201  0.96782401  1
  C  C299  1  0.19316337  0.57278440  0.96175205  1
  C  C300  1  0.69402828  0.91088827  0.54568301  1
  C  C301  1  0.48207684  0.73806369  0.96327263  1
  C  C302  1  0.05354468  0.59248064  0.04355699  1
  C  C303  1  0.29053746  0.76601019  0.04201094  1
  C  C304  1  0.23929083  0.24424961  0.53226524  1
  C  C305  1  0.22223937  0.57673078  0.53884146  1
  C  C306  1  0.55601704  0.59266474  0.04391479  1
  C  C307  1  0.93460139  0.26453549  0.04263796  1
  C  C308  1  0.55285427  0.25814082  0.04327251  1
  C  C309  1  0.45058344  0.92564234  0.45722634  1
  C  C310  1  0.31996534  0.24171946  0.54424497  1
  C  C311  1  0.03571788  0.07919861  0.95958116  1
  N  N312  1  0.43605022  0.25708047  0.45772617  1
  N  N313  1  0.51325431  0.26426402  0.46981509  1
  N  N314  1  0.51455484  0.07910431  0.96201542  1
  N  N315  1  0.07081072  0.73150690  0.54491913  1
  N  N316  1  0.54923894  0.40646515  0.95415093  1
  N  N317  1  0.03993044  0.07067617  0.53995916  1
  N  N318  1  0.23517707  0.42344234  0.03789713  1
  N  N319  1  0.21295596  0.24191329  0.96096263  1
  N  N320  1  0.01142253  0.40742181  0.96465052  1
  N  N321  1  0.27118874  0.76019531  0.46483127  1
  N  N322  1  0.54416179  0.06243838  0.54143625  1
  N  N323  1  0.29676073  0.09070971  0.04161717  1
  N  N324  1  0.73619465  0.57957077  0.53468829  1
  N  N325  1  0.28912369  0.24288788  0.96041213  1
  N  N326  1  0.75282958  0.75526831  0.46235459  1
  N  N327  1  0.21559533  0.10515869  0.46352062  1
  N  N328  1  0.95643060  0.07616697  0.54163558  1
  N  N329  1  0.52939938  0.92395509  0.46507166  1
  N  N330  1  0.04014464  0.92222636  0.03598006  1
  N  N331  1  0.67646223  0.76045944  0.45146315  1
  N  N332  1  0.54853788  0.92519983  0.04415660  1
  N  N333  1  0.73732026  0.08687253  0.03693696  1
  N  N334  1  0.54663007  0.74185785  0.53986182  1
  N  N335  1  0.30108011  0.57627221  0.54226842  1
  N  N336  1  0.47931930  0.59118841  0.03568298  1
  N  N337  1  0.95850324  0.08003027  0.96195543  1
  N  N338  1  0.22181546  0.91172087  0.53464133  1
  N  N339  1  0.70387603  0.09490334  0.45908410  1
  N  N340  1  0.79906540  0.76131704  0.03868752  1
  N  N341  1  0.80121639  0.24525488  0.53831205  1
  N  N342  1  0.06049407  0.92890983  0.45595029  1
  N  N343  1  0.47591786  0.25477461  0.03488610  1
  N  N344  1  0.99410749  0.74374951  0.53610730  1
  N  N345  1  0.77245678  0.91085195  0.53872861  1
  N  N346  1  0.50436254  0.40903867  0.53667413  1
  N  N347  1  0.47423289  0.40914515  0.96321319  1
  N  N348  1  0.71498341  0.41277814  0.45176426  1
  N  N349  1  0.72154963  0.75692706  0.03469874  1
  N  N350  1  0.94044304  0.25810439  0.45621707  1
  N  N351  1  0.97665190  0.58959136  0.03701444  1
  N  N352  1  0.29762302  0.10106327  0.45939015  1
  N  N353  1  0.27905113  0.42184973  0.46784162  1
  N  N354  1  0.79648684  0.41589992  0.45095601  1
  N  N355  1  0.06501069  0.40534311  0.54735297  1
  N  N356  1  0.78760901  0.09256901  0.46039645  1
  N  N357  1  0.31213351  0.42693543  0.04636017  1
  N  N358  1  0.42883156  0.40402872  0.55096428  1
  N  N359  1  0.55955991  0.73752523  0.95039975  1
  N  N360  1  0.06081820  0.04651311  0.59578009  1
  N  N361  1  0.06993789  0.38484142  0.60617727  1
  N  N362  1  0.07947693  0.71952574  0.60511579  1
  N  N363  1  0.56540577  0.04909277  0.60113473  1
  N  N364  1  0.55107310  0.39111227  0.58417746  1
  N  N365  1  0.57049386  0.72283667  0.59666115  1
  N  N366  1  0.44228188  0.27532827  0.09004378  1
  N  N367  1  0.44703647  0.60953292  0.09203475  1
  N  N368  1  0.43633565  0.94229837  0.09456316  1
  N  N369  1  0.92791228  0.28048919  0.10248065  1
  N  N370  1  0.94548136  0.60763716  0.09381130  1
  N  N371  1  0.93665839  0.94335994  0.09375255  1
  N  N372  1  0.42491850  0.05347159  0.89556599  1
  N  N373  1  0.43700273  0.39073879  0.90981335  1
  N  N374  1  0.43843313  0.72225328  0.91212644  1
  N  N375  1  0.93345190  0.05603200  0.90581303  1
  N  N376  1  0.92392894  0.38710269  0.89686657  1
  N  N377  1  0.92692048  0.71621771  0.89169449  1
  N  N378  1  0.05371374  0.27228856  0.40844293  1
  N  N379  1  0.05551589  0.60851211  0.40586971  1
  N  N380  1  0.07087919  0.94398491  0.39573991  1
  N  N381  1  0.55068475  0.27141548  0.41461240  1
  N  N382  1  0.54761567  0.60763118  0.41186979  1
  N  N383  1  0.56013694  0.94091134  0.40913072  1
  N  N384  1  0.32686648  0.22484729  0.60430180  1
  N  N385  1  0.31833912  0.55614042  0.60023308  1
  N  N386  1  0.31613886  0.88795528  0.60031490  1
  N  N387  1  0.82488667  0.22385449  0.59495734  1
  N  N388  1  0.82725227  0.55981274  0.59972537  1
  N  N389  1  0.80920864  0.88940362  0.59142165  1
  N  N390  1  0.18935780  0.10995557  0.09495388  1
  N  N391  1  0.19494298  0.44309159  0.08793158  1
  N  N392  1  0.18603824  0.78234585  0.10211207  1
  N  N393  1  0.69994847  0.11168668  0.08782718  1
  N  N394  1  0.68500394  0.44690217  0.10355392  1
  N  N395  1  0.68719180  0.77533011  0.08767711  1
  N  N396  1  0.18748873  0.22097724  0.90468895  1
  N  N397  1  0.17925545  0.55471180  0.90098048  1
  N  N398  1  0.18094259  0.89349847  0.91498699  1
  N  N399  1  0.68681588  0.22375216  0.90611804  1
  N  N400  1  0.67983223  0.55245966  0.89978175  1
  N  N401  1  0.68098532  0.88592161  0.89661120  1
  N  N402  1  0.31605521  0.11973804  0.40135727  1
  N  N403  1  0.31075359  0.44128013  0.41254944  1
  N  N404  1  0.29966994  0.77686773  0.40693725  1
  N  N405  1  0.81176003  0.10229132  0.40098348  1
  N  N406  1  0.81656331  0.44815650  0.40036353  1
  N  N407  1  0.79555534  0.77426419  0.41336869  1
  N  N408  1  0.42483749  0.27674265  0.39982156  1
  N  N409  1  0.42044768  0.61477181  0.39204067  1
  N  N410  1  0.43289930  0.94299353  0.39812689  1
  N  N411  1  0.92690962  0.27902545  0.39639515  1
  N  N412  1  0.92606310  0.60603073  0.41397459  1
  N  N413  1  0.94407448  0.93866494  0.40825282  1
  N  N414  1  0.06169347  0.05611900  0.90508371  1
  N  N415  1  0.05116333  0.38548309  0.91369635  1
  N  N416  1  0.05318607  0.72473738  0.91448122  1
  N  N417  1  0.55236256  0.05633668  0.91122202  1
  N  N418  1  0.56204662  0.38642249  0.89510051  1
  N  N419  1  0.56314569  0.72049923  0.89012495  1
  N  N420  1  0.05477892  0.27263706  0.08122055  1
  N  N421  1  0.07299577  0.61117757  0.10176154  1
  N  N422  1  0.06486582  0.94505400  0.09264956  1
  N  N423  1  0.56955507  0.27887324  0.10091272  1
  N  N424  1  0.57446542  0.61002253  0.10263746  1
  N  N425  1  0.56397347  0.94356999  0.10306672  1
  N  N426  1  0.43661705  0.05560019  0.59627625  1
  N  N427  1  0.42886683  0.38713835  0.61036546  1
  N  N428  1  0.44146496  0.72458708  0.59474077  1
  N  N429  1  0.93530135  0.06530799  0.60179462  1
  N  N430  1  0.94522370  0.39390215  0.58301044  1
  N  N431  1  0.95444671  0.72080912  0.58508277  1
  N  N432  1  0.18908630  0.10647933  0.40420444  1
  N  N433  1  0.18216208  0.44282200  0.40700107  1
  N  N434  1  0.17179222  0.77910190  0.40115751  1
  N  N435  1  0.68537531  0.11890050  0.40252374  1
  N  N436  1  0.68888950  0.44432559  0.40264941  1
  N  N437  1  0.67172403  0.77839624  0.39249446  1
  N  N438  1  0.31417943  0.22312497  0.90350196  1
  N  N439  1  0.30816402  0.55930770  0.91431526  1
  N  N440  1  0.30973142  0.88824096  0.90081160  1
  N  N441  1  0.81672542  0.22273460  0.90415681  1
  N  N442  1  0.80843722  0.55633500  0.91445700  1
  N  N443  1  0.80848474  0.89355646  0.91512673  1
  N  N444  1  0.31729183  0.11365272  0.09932028  1
  N  N445  1  0.32030851  0.44618532  0.10467494  1
  N  N446  1  0.31636309  0.77949555  0.10077126  1
  N  N447  1  0.82775600  0.10989404  0.10138670  1
  N  N448  1  0.81245271  0.44237933  0.08387671  1
  N  N449  1  0.81348150  0.78051186  0.09627493  1
  N  N450  1  0.19876908  0.22790064  0.58607435  1
  N  N451  1  0.19050859  0.55764589  0.59341348  1
  N  N452  1  0.18886210  0.89340254  0.59094945  1
  N  N453  1  0.69631746  0.22873403  0.59159976  1
  N  N454  1  0.69912397  0.55839581  0.58744561  1
  N  N455  1  0.68100940  0.89200983  0.60386830  1
  Cl  Cl456  1  0.24790330  0.05976310  0.60120379  1
  Cl  Cl457  1  0.24829230  0.39102283  0.62741432  1
  Cl  Cl458  1  0.25870749  0.71673607  0.63041452  1
  Cl  Cl459  1  0.75013873  0.06022468  0.60884527  1
  Cl  Cl460  1  0.74498963  0.40029909  0.59083150  1
  Cl  Cl461  1  0.76930698  0.72815156  0.59925878  1
  Cl  Cl462  1  0.25106083  0.27581172  0.11563309  1
  Cl  Cl463  1  0.25898105  0.60855204  0.10996812  1
  Cl  Cl464  1  0.25050989  0.94844850  0.10842462  1
  Cl  Cl465  1  0.74688892  0.27893389  0.12969892  1
  Cl  Cl466  1  0.75908188  0.61389385  0.12300119  1
  Cl  Cl467  1  0.75115281  0.94994194  0.12642448  1
  Cl  Cl468  1  0.24313720  0.04684225  0.86933827  1
  Cl  Cl469  1  0.23817854  0.39570752  0.89991690  1
  Cl  Cl470  1  0.24598562  0.72372085  0.89798743  1
  Cl  Cl471  1  0.73797126  0.06013030  0.89539737  1
  Cl  Cl472  1  0.74454861  0.38914518  0.86286716  1
  Cl  Cl473  1  0.74397122  0.72712832  0.87441599  1
  Cl  Cl474  1  0.23978168  0.27975026  0.38283269  1
  Cl  Cl475  1  0.23650327  0.61279734  0.37649634  1
  Cl  Cl476  1  0.25266234  0.95932878  0.37370906  1
  Cl  Cl477  1  0.73650141  0.27396897  0.39586060  1
  Cl  Cl478  1  0.73319395  0.60564250  0.39726051  1
  Cl  Cl479  1  0.75678925  0.94658512  0.40249374  1
  Cl  Cl480  1  0.00921618  0.21636350  0.60716533  1
  Cl  Cl481  1  0.00802444  0.55320814  0.61710046  1
  Cl  Cl482  1  -0.00498961  0.88987159  0.60988598  1
  Cl  Cl483  1  0.51488407  0.21669350  0.60692806  1
  Cl  Cl484  1  0.51352222  0.55433757  0.61183887  1
  Cl  Cl485  1  0.49751349  0.88262834  0.62025361  1
  Cl  Cl486  1  0.00790883  0.11533307  0.13024073  1
  Cl  Cl487  1  0.00937912  0.43847859  0.10099896  1
  Cl  Cl488  1  -0.00118435  0.78469872  0.12409118  1
  Cl  Cl489  1  0.51411833  0.10666718  0.10526009  1
  Cl  Cl490  1  0.50047497  0.45091457  0.13421142  1
  Cl  Cl491  1  0.50409013  0.77165507  0.11472515  1
  Cl  Cl492  1  0.00365797  0.21990724  0.87585011  1
  Cl  Cl493  1  -0.00845281  0.54530531  0.88124554  1
  Cl  Cl494  1  -0.00686840  0.89544603  0.88162451  1
  Cl  Cl495  1  0.49974889  0.21672118  0.87588523  1
  Cl  Cl496  1  0.49025372  0.55254899  0.87604760  1
  Cl  Cl497  1  0.49405026  0.88744295  0.88173661  1
  Cl  Cl498  1  0.00099575  0.11087176  0.39791019  1
  Cl  Cl499  1  -0.00125591  0.44227758  0.37807177  1
  Cl  Cl500  1  -0.02119599  0.76664901  0.39784636  1
  Cl  Cl501  1  0.50057777  0.10768120  0.38652874  1
  Cl  Cl502  1  0.50531372  0.43728288  0.40001257  1
  Cl  Cl503  1  0.48529469  0.77592887  0.38453686  1
  Cl  Cl504  1  0.36478951  0.14567818  0.73942110  1
  Cl  Cl505  1  0.36259797  0.48057962  0.74317552  1
  Cl  Cl506  1  0.36014609  0.81749311  0.75345622  1
  Cl  Cl507  1  0.86056025  0.14947613  0.74673950  1
  Cl  Cl508  1  0.86333277  0.48173417  0.73923014  1
  Cl  Cl509  1  0.85921921  0.81629541  0.75083241  1
  Cl  Cl510  1  0.14419198  0.18120388  0.25647851  1
  Cl  Cl511  1  0.13697799  0.51572763  0.25032188  1
  Cl  Cl512  1  0.13988999  0.85445404  0.25685506  1
  Cl  Cl513  1  0.64216893  0.18430107  0.25476762  1
  Cl  Cl514  1  0.64556912  0.51872840  0.24703498  1
  Cl  Cl515  1  0.63529056  0.85275117  0.25513096  1
  Cl  Cl516  1  0.14300530  0.14941749  0.74593518  1
  Cl  Cl517  1  0.14370339  0.48235387  0.75330355  1
  Cl  Cl518  1  0.13880150  0.81506944  0.74791363  1
  Cl  Cl519  1  0.64265668  0.14527159  0.74213771  1
  Cl  Cl520  1  0.64264726  0.48388261  0.74675565  1
  Cl  Cl521  1  0.63696518  0.81136045  0.74684297  1
  Cl  Cl522  1  0.36656587  0.18709907  0.25598761  1
  Cl  Cl523  1  0.35726554  0.51697856  0.25784385  1
  Cl  Cl524  1  0.36060099  0.85332979  0.24992647  1
  Cl  Cl525  1  0.86147738  0.18659083  0.25787680  1
  Cl  Cl526  1  0.86362899  0.51936282  0.25448362  1
  Cl  Cl527  1  0.85441402  0.84691434  0.24930137  1
  Cl  Cl528  1  0.11056894  0.31766397  0.74471870  1
  Cl  Cl529  1  0.11039246  0.65035166  0.75222279  1
  Cl  Cl530  1  0.10837530  0.98378656  0.74114536  1
  Cl  Cl531  1  0.61523633  0.31347872  0.74651353  1
  Cl  Cl532  1  0.61486294  0.64739618  0.75230826  1
  Cl  Cl533  1  0.61834759  0.97697089  0.74554138  1
  Cl  Cl534  1  0.39282145  0.02122601  0.24771529  1
  Cl  Cl535  1  0.39152301  0.35317051  0.25888056  1
  Cl  Cl536  1  0.38490092  0.68432914  0.25044641  1
  Cl  Cl537  1  0.88905360  0.01888269  0.25459809  1
  Cl  Cl538  1  0.88381389  0.35208267  0.25230084  1
  Cl  Cl539  1  0.89493948  0.68420537  0.25025420  1
  Cl  Cl540  1  0.39110589  0.31192758  0.74379872  1
  Cl  Cl541  1  0.39362832  0.64997309  0.74334028  1
  Cl  Cl542  1  0.39710437  0.98264571  0.75130455  1
  Cl  Cl543  1  0.88848669  0.31544350  0.74705318  1
  Cl  Cl544  1  0.89008602  0.65026612  0.75048477  1
  Cl  Cl545  1  0.88631441  0.98246273  0.74270752  1
  Cl  Cl546  1  0.10912187  0.01815998  0.25631109  1
  Cl  Cl547  1  0.10670733  0.34774722  0.24749208  1
  Cl  Cl548  1  0.11297680  0.68776112  0.25329107  1
  Cl  Cl549  1  0.61352110  0.01836352  0.25467594  1
  Cl  Cl550  1  0.60971713  0.35305164  0.25873025  1
  Cl  Cl551  1  0.60931544  0.68461632  0.25799058  1
