# generated using pymatgen
data_H8PbC4(N3Cl2)2
_symmetry_space_group_name_H-M   'P 1'
_cell_length_a   16.62671629
_cell_length_b   22.51320040
_cell_length_c   21.59450536
_cell_angle_alpha   90.00048905
_cell_angle_beta   90.01611983
_cell_angle_gamma   90.00708985
_symmetry_Int_Tables_number   1
_chemical_formula_structural   H8PbC4(N3Cl2)2
_chemical_formula_sum   'H192 Pb24 C96 N144 Cl96'
_cell_volume   8083.26773159
_cell_formula_units_Z   24
loop_
 _symmetry_equiv_pos_site_id
 _symmetry_equiv_pos_as_xyz
  1  'x, y, z'
loop_
 _atom_site_type_symbol
 _atom_site_label
 _atom_site_symmetry_multiplicity
 _atom_site_fract_x
 _atom_site_fract_y
 _atom_site_fract_z
 _atom_site_occupancy
  H  H0  1  0.01516533  0.03295581  0.67497087  1
  H  H1  1  0.00864339  0.36216034  0.68016279  1
  H  H2  1  -0.00409238  0.69938381  0.68235311  1
  H  H3  1  0.49961093  0.03166210  0.68088673  1
  H  H4  1  0.49046324  0.36516427  0.68131136  1
  H  H5  1  0.50314697  0.69496475  0.68107139  1
  H  H6  1  0.00503052  0.30449772  0.18280395  1
  H  H7  1  0.01560500  0.63245033  0.17404070  1
  H  H8  1  0.00918824  0.96917746  0.17995003  1
  H  H9  1  0.50168081  0.30286328  0.17919615  1
  H  H10  1  0.48400867  0.63963209  0.17744235  1
  H  H11  1  0.50262888  0.96983406  0.17940438  1
  H  H12  1  0.00605812  0.03149244  0.82200755  1
  H  H13  1  0.00712038  0.36332947  0.81981107  1
  H  H14  1  -0.00754744  0.69304430  0.82293026  1
  H  H15  1  0.48862302  0.02747230  0.82325788  1
  H  H16  1  0.49257499  0.36079458  0.82341553  1
  H  H17  1  0.51693080  0.70127688  0.82593176  1
  H  H18  1  0.01248392  0.30106299  0.32004098  1
  H  H19  1  0.01031004  0.63896118  0.32081070  1
  H  H20  1  -0.00281887  0.97142394  0.32296994  1
  H  H21  1  0.48149558  0.30575647  0.32209787  1
  H  H22  1  0.49270245  0.63721002  0.32302214  1
  H  H23  1  0.50715242  0.97139979  0.32201397  1
  H  H24  1  0.24927763  0.19597024  0.68066502  1
  H  H25  1  0.24151614  0.53216993  0.68064309  1
  H  H26  1  0.25690253  0.86383054  0.68063353  1
  H  H27  1  0.75467505  0.19549327  0.67824474  1
  H  H28  1  0.75548029  0.53034618  0.67685557  1
  H  H29  1  0.74353309  0.86463823  0.68011677  1
  H  H30  1  0.24931251  0.13501548  0.18038817  1
  H  H31  1  0.24890830  0.46793783  0.17970940  1
  H  H32  1  0.23960159  0.80259267  0.17816581  1
  H  H33  1  0.74814864  0.13747223  0.17574748  1
  H  H34  1  0.75103368  0.47029675  0.17819629  1
  H  H35  1  0.75724574  0.80493468  0.17989814  1
  H  H36  1  0.24291107  0.19862938  0.81959639  1
  H  H37  1  0.25819595  0.52958266  0.82300740  1
  H  H38  1  0.24555736  0.85999077  0.82064553  1
  H  H39  1  0.75025328  0.19338068  0.81971565  1
  H  H40  1  0.73441845  0.52935652  0.82117901  1
  H  H41  1  0.74822015  0.86269156  0.81967312  1
  H  H42  1  0.24725185  0.13505009  0.31938829  1
  H  H43  1  0.24312457  0.46908403  0.31831336  1
  H  H44  1  0.25449686  0.80612963  0.32020152  1
  H  H45  1  0.74386874  0.14017493  0.32110891  1
  H  H46  1  0.74790453  0.46964964  0.31687741  1
  H  H47  1  0.74255254  0.80125455  0.31780122  1
  H  H48  1  0.11860977  0.05840654  0.58991689  1
  H  H49  1  0.12055847  0.38979559  0.59981059  1
  H  H50  1  0.12343084  0.72122910  0.61509522  1
  H  H51  1  0.61752362  0.05580042  0.60730609  1
  H  H52  1  0.62100174  0.38593115  0.61422287  1
  H  H53  1  0.62258529  0.72047020  0.60574784  1
  H  H54  1  0.36823450  0.27966688  0.11802506  1
  H  H55  1  0.37953151  0.61011303  0.09150424  1
  H  H56  1  0.37108584  0.94777592  0.11466814  1
  H  H57  1  0.87102430  0.28434503  0.12305359  1
  H  H58  1  0.87572685  0.61625331  0.12447321  1
  H  H59  1  0.86642883  0.95324736  0.12982455  1
  H  H60  1  0.38593339  0.05834145  0.90832762  1
  H  H61  1  0.38507401  0.39297150  0.90404722  1
  H  H62  1  0.37500983  0.71485462  0.87504666  1
  H  H63  1  0.88076245  0.05420627  0.89318891  1
  H  H64  1  0.87864085  0.38629653  0.88682023  1
  H  H65  1  0.87944121  0.72309590  0.90158660  1
  H  H66  1  0.12161113  0.27519908  0.40251806  1
  H  H67  1  0.11535666  0.60939623  0.40549064  1
  H  H68  1  0.11947116  0.94692949  0.39381534  1
  H  H69  1  0.62270018  0.28336819  0.37313412  1
  H  H70  1  0.61621120  0.61344325  0.39458233  1
  H  H71  1  0.61422347  0.94254037  0.40581266  1
  H  H72  1  0.37143167  0.22264096  0.60934539  1
  H  H73  1  0.38202865  0.55013834  0.62605098  1
  H  H74  1  0.38432275  0.88962329  0.61433035  1
  H  H75  1  0.87706159  0.22029265  0.60735490  1
  H  H76  1  0.87868883  0.55882455  0.60774553  1
  H  H77  1  0.88315841  0.88417421  0.62458053  1
  H  H78  1  0.11616432  0.11434037  0.11831812  1
  H  H79  1  0.11607230  0.45013446  0.11680310  1
  H  H80  1  0.12893425  0.77337545  0.09613131  1
  H  H81  1  0.62002890  0.11228024  0.10763444  1
  H  H82  1  0.62124637  0.44708401  0.11232181  1
  H  H83  1  0.62236506  0.78312243  0.11835147  1
  H  H84  1  0.13339618  0.22111816  0.90115249  1
  H  H85  1  0.12075393  0.55078949  0.87908423  1
  H  H86  1  0.13233496  0.88993349  0.89928448  1
  H  H87  1  0.62919215  0.22161075  0.89314861  1
  H  H88  1  0.62498397  0.55919123  0.90250594  1
  H  H89  1  0.63233150  0.88816873  0.89802858  1
  H  H90  1  0.37892261  0.11306021  0.38254663  1
  H  H91  1  0.37955280  0.44810624  0.37808176  1
  H  H92  1  0.37631774  0.77882072  0.39262992  1
  H  H93  1  0.87512168  0.11627636  0.38585902  1
  H  H94  1  0.87522034  0.44650674  0.38575129  1
  H  H95  1  0.87632857  0.78162310  0.37899626  1
  H  H96  1  0.37991368  0.27408454  0.40884897  1
  H  H97  1  0.36795849  0.61071043  0.39338266  1
  H  H98  1  0.36819650  0.95055857  0.37517332  1
  H  H99  1  0.87443545  0.28075406  0.37849860  1
  H  H100  1  0.87151291  0.61774006  0.37545972  1
  H  H101  1  0.87002076  0.94632189  0.39109064  1
  H  H102  1  0.12985005  0.05548712  0.89281394  1
  H  H103  1  0.12755381  0.39105545  0.89417800  1
  H  H104  1  0.12727150  0.71466274  0.88182992  1
  H  H105  1  0.62926998  0.04965831  0.87504154  1
  H  H106  1  0.63047917  0.38074743  0.87941468  1
  H  H107  1  0.61825455  0.72576141  0.91160817  1
  H  H108  1  0.11925382  0.27897595  0.10674523  1
  H  H109  1  0.11932578  0.60669644  0.08864141  1
  H  H110  1  0.11135383  0.94430108  0.09440268  1
  H  H111  1  0.61662368  0.27749165  0.10038128  1
  H  H112  1  0.62391357  0.61642950  0.12468453  1
  H  H113  1  0.61915406  0.94298464  0.10406665  1
  H  H114  1  0.36816450  0.05226851  0.61694760  1
  H  H115  1  0.37296769  0.38956723  0.60287845  1
  H  H116  1  0.37438096  0.72102449  0.61344982  1
  H  H117  1  0.87476482  0.05043392  0.62581048  1
  H  H118  1  0.87281326  0.38190089  0.62208635  1
  H  H119  1  0.87454099  0.71926113  0.61082555  1
  H  H120  1  0.13050216  0.10958462  0.39748701  1
  H  H121  1  0.13188368  0.44362861  0.39931053  1
  H  H122  1  0.12660495  0.78222547  0.38598795  1
  H  H123  1  0.62667459  0.11169337  0.39556716  1
  H  H124  1  0.62646018  0.44575678  0.38937757  1
  H  H125  1  0.62768731  0.77926874  0.39460412  1
  H  H126  1  0.38014858  0.21701506  0.87441972  1
  H  H127  1  0.36747241  0.55941739  0.90458610  1
  H  H128  1  0.38046715  0.88161697  0.87914110  1
  H  H129  1  0.87765242  0.21786269  0.88908243  1
  H  H130  1  0.87178965  0.55079947  0.87847276  1
  H  H131  1  0.88011728  0.88579512  0.88198228  1
  H  H132  1  0.36493027  0.11110110  0.10468589  1
  H  H133  1  0.36470976  0.44330135  0.10470644  1
  H  H134  1  0.37542363  0.78363935  0.11976690  1
  H  H135  1  0.86842277  0.11042845  0.10249492  1
  H  H136  1  0.86939857  0.44377788  0.10462326  1
  H  H137  1  0.87042544  0.77725054  0.10066478  1
  H  H138  1  0.12342629  0.21501127  0.61098859  1
  H  H139  1  0.13669350  0.55965070  0.59606100  1
  H  H140  1  0.13565043  0.88906902  0.60645062  1
  H  H141  1  0.62843903  0.21786278  0.61214794  1
  H  H142  1  0.63097837  0.55196181  0.60648678  1
  H  H143  1  0.63754270  0.89144223  0.59607370  1
  H  H144  1  0.67884586  0.41384789  0.49678216  1
  H  H145  1  0.30696881  0.08408759  -0.00543344  1
  H  H146  1  0.04974264  0.24713110  0.50677578  1
  H  H147  1  0.88739856  0.08192621  0.51073888  1
  H  H148  1  0.03775561  0.58525358  0.50501875  1
  H  H149  1  0.35214671  0.74963802  0.00772117  1
  H  H150  1  0.71046134  0.91822963  0.49315925  1
  H  H151  1  0.06998873  0.91648080  0.50361733  1
  H  H152  1  0.41717230  0.58280063  0.49755296  1
  H  H153  1  0.92146890  0.41653765  0.99646221  1
  H  H154  1  0.66486625  0.08415854  0.00293064  1
  H  H155  1  0.21022595  0.58693975  0.49384190  1
  H  H156  1  0.18013019  0.21613655  0.50358265  1
  H  H157  1  0.20078970  0.41573738  0.50428086  1
  H  H158  1  0.35272425  0.91427133  0.99072171  1
  H  H159  1  0.19991644  0.24734048  1.00802501  1
  H  H160  1  0.36170557  0.24421351  0.98910755  1
  H  H161  1  0.68578343  0.74940030  0.50310728  1
  H  H162  1  0.19755381  0.91559251  1.00143460  1
  H  H163  1  0.31050733  0.27056681  0.51657834  1
  H  H164  1  0.88943682  0.58569084  1.00868573  1
  H  H165  1  0.30715466  0.41644323  -0.00579392  1
  H  H166  1  0.05365670  0.41480827  0.49791938  1
  H  H167  1  0.29528704  0.58401090  1.00598987  1
  H  H168  1  0.34561377  0.08258872  0.49378659  1
  H  H169  1  0.46200057  0.24734994  0.50552921  1
  H  H170  1  0.46536360  0.08377429  1.00641771  1
  H  H171  1  0.56444349  0.08615657  0.49822536  1
  H  H172  1  0.94759075  0.75031135  1.00372112  1
  H  H173  1  0.03552525  0.91794826  -0.00992253  1
  H  H174  1  0.91240166  0.91748642  0.49595638  1
  H  H175  1  0.45981077  0.58726328  -0.00725587  1
  H  H176  1  0.69370017  0.58787213  1.00553334  1
  H  H177  1  0.84783950  0.91849287  0.99304563  1
  H  H178  1  0.60616755  0.41674377  0.98486893  1
  H  H179  1  0.89879546  0.41226562  0.50964990  1
  H  H180  1  0.68220981  0.59606359  0.50982249  1
  H  H181  1  0.66874418  0.25015423  0.50040876  1
  H  H182  1  0.80449936  0.74872275  -0.00443737  1
  H  H183  1  0.89871644  0.25316766  0.01105859  1
  H  H184  1  0.38636013  0.92029863  0.48890545  1
  H  H185  1  0.45919359  0.40597354  1.00582469  1
  H  H186  1  0.05953364  0.25093769  -0.00244860  1
  H  H187  1  0.83247108  0.57783353  0.50241122  1
  H  H188  1  0.54190456  0.91933587  0.50593915  1
  H  H189  1  0.32431883  0.75264561  0.49664827  1
  H  H190  1  0.16500663  0.75100468  0.49637740  1
  H  H191  1  0.91988960  0.74905307  0.50014681  1
  Pb  Pb192  1  0.25235541  0.04696859  0.75098770  1
  Pb  Pb193  1  0.25690409  0.38402371  0.74943486  1
  Pb  Pb194  1  0.25165100  0.71247087  0.74376354  1
  Pb  Pb195  1  0.75314876  0.04632049  0.74950486  1
  Pb  Pb196  1  0.75207511  0.37965784  0.74954364  1
  Pb  Pb197  1  0.75655101  0.71605650  0.75473615  1
  Pb  Pb198  1  0.25179638  0.28310466  0.25936305  1
  Pb  Pb199  1  0.25341484  0.61628978  0.24492471  1
  Pb  Pb200  1  0.24495128  0.95387017  0.23995661  1
  Pb  Pb201  1  0.74741832  0.28756572  0.24570355  1
  Pb  Pb202  1  0.74531832  0.62111557  0.25678305  1
  Pb  Pb203  1  0.75028760  0.95090718  0.25672575  1
  Pb  Pb204  1  0.00325814  0.21413180  0.75335307  1
  Pb  Pb205  1  0.00223831  0.54600460  0.73871521  1
  Pb  Pb206  1  0.00646647  0.88218186  0.74969152  1
  Pb  Pb207  1  0.50343297  0.21348485  0.74228127  1
  Pb  Pb208  1  0.50763327  0.55005911  0.75810409  1
  Pb  Pb209  1  0.50672513  0.88126140  0.74435002  1
  Pb  Pb210  1  -0.00390474  0.12080704  0.25286876  1
  Pb  Pb211  1  -0.00185026  0.45281525  0.25738081  1
  Pb  Pb212  1  0.00221837  0.78287703  0.24019938  1
  Pb  Pb213  1  0.50272897  0.11712876  0.24648104  1
  Pb  Pb214  1  0.50220460  0.45158725  0.24200988  1
  Pb  Pb215  1  0.49741454  0.78813378  0.25321150  1
  C  C216  1  0.00173900  0.04719847  0.62815515  1
  C  C217  1  0.00078971  0.37798093  0.63289417  1
  C  C218  1  -0.00243089  0.71352077  0.63442593  1
  C  C219  1  0.49543852  0.04664857  0.63330264  1
  C  C220  1  0.49464078  0.37980103  0.63351668  1
  C  C221  1  0.49987463  0.71161553  0.63395189  1
  C  C222  1  -0.00194445  0.28907726  0.13541035  1
  C  C223  1  0.00269508  0.61851579  0.12710815  1
  C  C224  1  -0.00426053  0.95544318  0.13294670  1
  C  C225  1  0.49565919  0.28678302  0.13224864  1
  C  C226  1  0.49548749  0.62341212  0.13097659  1
  C  C227  1  0.49716027  0.95404762  0.13236611  1
  C  C228  1  0.00538440  0.04668523  0.86950883  1
  C  C229  1  0.00463137  0.37960428  0.86702744  1
  C  C230  1  -0.00060173  0.70938137  0.86975905  1
  C  C231  1  0.50113744  0.04414185  0.86943275  1
  C  C232  1  0.50287148  0.37736358  0.87007629  1
  C  C233  1  0.50306579  0.71424727  0.87296105  1
  C  C234  1  0.00270579  0.28619458  0.36725977  1
  C  C235  1  -0.00082924  0.62314531  0.36751442  1
  C  C236  1  -0.00492561  0.95492065  0.37029993  1
  C  C237  1  0.49423275  0.28895453  0.36816934  1
  C  C238  1  0.49195066  0.62095267  0.37024657  1
  C  C239  1  0.49669303  0.95579639  0.36905857  1
  C  C240  1  0.24802790  0.21114995  0.63293591  1
  C  C241  1  0.25383939  0.54671125  0.63363408  1
  C  C242  1  0.25868447  0.88020874  0.63361606  1
  C  C243  1  0.75279455  0.21134144  0.63092920  1
  C  C244  1  0.75513600  0.54642884  0.62940819  1
  C  C245  1  0.75528493  0.87915088  0.63301289  1
  C  C246  1  0.24369041  0.12027257  0.13282757  1
  C  C247  1  0.24348598  0.45414138  0.13188725  1
  C  C248  1  0.24768890  0.78670122  0.13125030  1
  C  C249  1  0.74501995  0.12101353  0.12867128  1
  C  C250  1  0.74670412  0.45444244  0.13114687  1
  C  C251  1  0.74994260  0.78868123  0.13292726  1
  C  C252  1  0.25259121  0.21272361  0.86717354  1
  C  C253  1  0.24910818  0.54498498  0.86996545  1
  C  C254  1  0.25248807  0.87673170  0.86763146  1
  C  C255  1  0.75236649  0.21019840  0.86674580  1
  C  C256  1  0.74378058  0.54593194  0.86782040  1
  C  C257  1  0.75358584  0.87861232  0.86682209  1
  C  C258  1  0.25223935  0.11946583  0.36673700  1
  C  C259  1  0.25176771  0.45356499  0.36540958  1
  C  C260  1  0.25282737  0.78882479  0.36720196  1
  C  C261  1  0.74890101  0.12317207  0.36768360  1
  C  C262  1  0.75009259  0.45416335  0.36440727  1
  C  C263  1  0.74854813  0.78713335  0.36554424  1
  C  C264  1  0.52618719  0.92258199  0.03900488  1
  C  C265  1  0.04241030  0.07480725  0.96210379  1
  C  C266  1  0.03291103  0.92665885  0.46350287  1
  C  C267  1  0.92851839  0.93302179  0.04811759  1
  C  C268  1  0.77265459  0.75992613  0.03807721  1
  C  C269  1  0.01925223  0.59136253  0.02975412  1
  C  C270  1  0.94420604  0.40425666  0.54497628  1
  C  C271  1  0.20743405  0.76079380  0.45848085  1
  C  C272  1  0.19163818  0.43079433  0.04134032  1
  C  C273  1  0.70994496  0.23947350  0.53787957  1
  C  C274  1  0.05592990  0.73932730  0.95762300  1
  C  C275  1  0.27229707  0.09414831  0.03608685  1
  C  C276  1  0.96115953  0.73889739  0.53894067  1
  C  C277  1  0.96278163  0.40651031  0.95849487  1
  C  C278  1  0.23123145  0.42629402  0.46097556  1
  C  C279  1  0.43516736  0.92847220  0.45472023  1
  C  C280  1  0.77826739  0.42524827  0.03715917  1
  C  C281  1  0.72091718  0.76050344  0.46222696  1
  C  C282  1  0.80209983  0.76165504  0.45524435  1
  C  C283  1  0.27268532  0.42765070  0.03544492  1
  C  C284  1  0.52658926  0.07437675  0.53766016  1
  C  C285  1  0.71649818  0.42590654  0.45746397  1
  C  C286  1  0.93762213  0.07311976  0.54216187  1
  C  C287  1  0.43657828  0.73656827  0.95778476  1
  C  C288  1  0.29937940  0.09280812  0.45696868  1
  C  C289  1  0.30104233  0.90838997  0.54222355  1
  C  C290  1  0.44480615  0.07232127  0.54236499  1
  C  C291  1  0.73954760  0.90645737  0.53681911  1
  C  C292  1  0.18905914  0.57349665  0.95692509  1
  C  C293  1  0.44667156  0.25807537  0.04330121  1
  C  C294  1  0.02620971  0.26186856  0.03933683  1
  C  C295  1  0.02100927  0.25816374  0.46299388  1
  C  C296  1  0.71906760  0.09153819  0.46096168  1
  C  C297  1  0.51586510  0.74020306  0.97016796  1
  C  C298  1  0.01783114  0.07547097  0.53109164  1
  C  C299  1  0.31228191  0.23592168  0.95565400  1
  C  C300  1  0.94446596  0.26305816  0.04567876  1
  C  C301  1  0.79141616  0.23972470  0.53787677  1
  C  C302  1  0.30764787  0.90559323  0.95516740  1
  C  C303  1  0.30130452  0.75956076  0.04342890  1
  C  C304  1  0.04286188  0.73920344  0.54200597  1
  C  C305  1  0.93910051  0.59423934  0.04052309  1
  C  C306  1  0.00790207  0.92930815  0.03417235  1
  C  C307  1  0.80108941  0.90753535  0.95623339  1
  C  C308  1  0.19111332  0.09541458  0.04257832  1
  C  C309  1  0.23914974  0.57468721  0.53738860  1
  C  C310  1  0.72444628  0.57561667  0.96288648  1
  C  C311  1  0.23107642  0.23748686  0.96501683  1
  N  N312  1  0.93627981  0.59527223  0.45255337  1
  N  N313  1  0.04189356  0.40819849  0.96136599  1
  N  N314  1  0.22027211  0.09188119  0.46252589  1
  N  N315  1  0.71605480  0.56737171  0.53587342  1
  N  N316  1  0.02323309  0.40836598  0.53880470  1
  N  N317  1  0.69390429  0.76106932  0.04403822  1
  N  N318  1  0.79582435  0.42671677  0.45690763  1
  N  N319  1  0.22851858  0.90942207  0.96066029  1
  N  N320  1  0.53379448  0.59348993  0.46300766  1
  N  N321  1  0.28675920  0.23482854  0.53979397  1
  N  N322  1  0.72223967  0.90836878  0.96212399  1
  N  N323  1  0.70053231  0.42739481  0.03855341  1
  N  N324  1  0.22362636  0.90835118  0.53819560  1
  N  N325  1  0.20443722  0.23712031  0.54152877  1
  N  N326  1  0.55983454  0.59531931  0.04679164  1
  N  N327  1  0.45542877  0.59231807  0.46103011  1
  N  N328  1  0.48341115  0.41270095  0.96247036  1
  N  N329  1  0.54102662  0.40576352  0.54181695  1
  N  N330  1  0.44873479  0.92479770  0.04128340  1
  N  N331  1  0.28715377  0.75763884  0.45898989  1
  N  N332  1  0.51394244  0.92499207  0.46362396  1
  N  N333  1  0.46456326  0.40681326  0.53821210  1
  N  N334  1  0.31742143  0.57169223  0.54685744  1
  N  N335  1  0.48916352  0.07735109  0.96255571  1
  N  N336  1  0.70436651  0.09208748  0.03914992  1
  N  N337  1  0.79455782  0.57986912  0.54020275  1
  N  N338  1  0.94257582  0.25987437  0.45484647  1
  N  N339  1  0.56630764  0.07349755  0.95288920  1
  N  N340  1  0.79435431  0.24060203  0.95815058  1
  N  N341  1  0.45592270  0.74141288  0.54275879  1
  N  N342  1  0.80290227  0.57312637  0.95509028  1
  N  N343  1  0.95335948  0.92520724  0.46061309  1
  N  N344  1  0.52373577  0.25663833  0.03623392  1
  N  N345  1  0.01339171  0.59221168  0.46131600  1
  N  N346  1  0.96525956  0.07448547  0.96351950  1
  N  N347  1  0.81780492  0.90433259  0.54610734  1
  N  N348  1  0.30992525  0.42675014  0.45383121  1
  N  N349  1  0.79651364  0.09300919  0.45835628  1
  N  N350  1  0.22301229  0.75619864  0.03496367  1
  N  N351  1  0.26729403  0.57556698  0.96434965  1
  N  N352  1  0.78246674  0.09114795  0.03578217  1
  N  N353  1  0.97750520  0.74146533  0.96313718  1
  N  N354  1  0.56101777  0.39960155  0.95667862  1
  N  N355  1  0.48430610  0.25610538  0.46154839  1
  N  N356  1  0.71815886  0.24194965  0.95952256  1
  N  N357  1  0.48288121  0.59304522  0.03702784  1
  N  N358  1  0.56084266  0.25976151  0.45096733  1
  N  N359  1  0.53282771  0.74101436  0.53993622  1
  N  N360  1  0.05662335  0.05973543  0.58284466  1
  N  N361  1  0.05822371  0.39006995  0.59244453  1
  N  N362  1  0.06433249  0.72408511  0.59978667  1
  N  N363  1  0.55670551  0.05817091  0.59543645  1
  N  N364  1  0.56088179  0.38888131  0.60079276  1
  N  N365  1  0.56100779  0.72277779  0.59631473  1
  N  N366  1  0.42662352  0.27591588  0.10151236  1
  N  N367  1  0.44206470  0.61238412  0.08700607  1
  N  N368  1  0.43042433  0.94454674  0.10077828  1
  N  N369  1  0.92860889  0.27976415  0.10556568  1
  N  N370  1  0.93031429  0.61105359  0.10195929  1
  N  N371  1  0.92151600  0.94833377  0.10787934  1
  N  N372  1  0.44827125  0.05659264  0.91322143  1
  N  N373  1  0.44680912  0.38862344  0.91209902  1
  N  N374  1  0.42923993  0.72105325  0.89788183  1
  N  N375  1  0.94175580  0.05652494  0.90457239  1
  N  N376  1  0.93836695  0.38938305  0.90081205  1
  N  N377  1  0.94133605  0.72131759  0.90976320  1
  N  N378  1  0.05981839  0.27438704  0.40959045  1
  N  N379  1  0.05309628  0.61147326  0.41085014  1
  N  N380  1  0.05913358  0.94424053  0.40712664  1
  N  N381  1  0.56631505  0.27819188  0.39231141  1
  N  N382  1  0.55556050  0.61070490  0.40597472  1
  N  N383  1  0.55180531  0.94468557  0.41177296  1
  N  N384  1  0.31030218  0.22818068  0.59937791  1
  N  N385  1  0.32477019  0.55425440  0.60721519  1
  N  N386  1  0.32509296  0.89191202  0.60008823  1
  N  N387  1  0.81710873  0.22297025  0.59386725  1
  N  N388  1  0.81917951  0.55629928  0.59434880  1
  N  N389  1  0.82586088  0.88716302  0.60622230  1
  N  N390  1  0.17441712  0.11092564  0.10103765  1
  N  N391  1  0.17431286  0.44634346  0.09956274  1
  N  N392  1  0.19105543  0.77313159  0.09046643  1
  N  N393  1  0.67998966  0.11142099  0.09492792  1
  N  N394  1  0.68083947  0.44565698  0.09836384  1
  N  N395  1  0.68159827  0.77892866  0.10303472  1
  N  N396  1  0.19506113  0.22309050  0.90944604  1
  N  N397  1  0.17757670  0.55531989  0.89826937  1
  N  N398  1  0.19445837  0.88904074  0.90752036  1
  N  N399  1  0.69058104  0.22336561  0.90301405  1
  N  N400  1  0.68667311  0.55931155  0.90947040  1
  N  N401  1  0.69427278  0.89003144  0.90600084  1
  N  N402  1  0.32020445  0.10950015  0.39835499  1
  N  N403  1  0.32079241  0.44349169  0.39427938  1
  N  N404  1  0.31494785  0.77634815  0.40306918  1
  N  N405  1  0.81534846  0.11271751  0.39939698  1
  N  N406  1  0.81513552  0.44426754  0.39827268  1
  N  N407  1  0.81841869  0.77762683  0.39686509  1
  N  N408  1  0.44211349  0.27610719  0.41237392  1
  N  N409  1  0.42842985  0.60959536  0.40517017  1
  N  N410  1  0.42457568  0.94611156  0.39547968  1
  N  N411  1  0.93294760  0.27709354  0.39538767  1
  N  N412  1  0.92820138  0.61305237  0.39364803  1
  N  N413  1  0.93022713  0.94328939  0.40348217  1
  N  N414  1  0.07009150  0.05810512  0.90545861  1
  N  N415  1  0.06638017  0.39127243  0.90400376  1
  N  N416  1  0.06970699  0.72038979  0.89955467  1
  N  N417  1  0.57277453  0.05510112  0.89406086  1
  N  N418  1  0.57305537  0.38736619  0.89683599  1
  N  N419  1  0.55655620  0.72656372  0.91843031  1
  N  N420  1  0.05824348  0.27801415  0.09554761  1
  N  N421  1  0.05773741  0.60594838  0.08209299  1
  N  N422  1  0.04907334  0.94352533  0.08860687  1
  N  N423  1  0.55446786  0.27473567  0.09320648  1
  N  N424  1  0.56683238  0.61238661  0.10578045  1
  N  N425  1  0.55805730  0.94047112  0.09351483  1
  N  N426  1  0.42683130  0.05596044  0.60052376  1
  N  N427  1  0.43451942  0.39118232  0.59500109  1
  N  N428  1  0.43465755  0.72348094  0.60105753  1
  N  N429  1  0.92922298  0.05557965  0.60342258  1
  N  N430  1  0.93004643  0.38691231  0.60377748  1
  N  N431  1  0.93435659  0.72280404  0.59777041  1
  N  N432  1  0.19256868  0.10833510  0.40571871  1
  N  N433  1  0.19387535  0.44231602  0.40709148  1
  N  N434  1  0.18605247  0.77865662  0.40104896  1
  N  N435  1  0.68772424  0.10958563  0.40614844  1
  N  N436  1  0.68713589  0.44274454  0.40121775  1
  N  N437  1  0.68866518  0.77658365  0.40511936  1
  N  N438  1  0.32380001  0.22090699  0.89463547  1
  N  N439  1  0.30555022  0.55604427  0.91163446  1
  N  N440  1  0.32278278  0.88689325  0.89694441  1
  N  N441  1  0.81716452  0.22077243  0.90072250  1
  N  N442  1  0.81343946  0.55477114  0.89582126  1
  N  N443  1  0.82164100  0.88971098  0.89788802  1
  N  N444  1  0.30412644  0.10963560  0.09364279  1
  N  N445  1  0.30405238  0.44247832  0.09317092  1
  N  N446  1  0.31774000  0.77786615  0.10221611  1
  N  N447  1  0.80725188  0.10835666  0.09205974  1
  N  N448  1  0.80854015  0.44174859  0.09291234  1
  N  N449  1  0.80879369  0.77632381  0.09242635  1
  N  N450  1  0.18371197  0.21347580  0.59705676  1
  N  N451  1  0.19887429  0.55951935  0.59012158  1
  N  N452  1  0.19715965  0.89025750  0.59651605  1
  N  N453  1  0.68709676  0.22168497  0.59713818  1
  N  N454  1  0.69140984  0.55759004  0.59489542  1
  N  N455  1  0.69984733  0.89095877  0.58958366  1
  Cl  Cl456  1  0.24169913  0.05568876  0.61921590  1
  Cl  Cl457  1  0.24402052  0.38552683  0.60976976  1
  Cl  Cl458  1  0.25109313  0.72418068  0.60734285  1
  Cl  Cl459  1  0.74153962  0.05255111  0.61958785  1
  Cl  Cl460  1  0.74496575  0.38771467  0.61638678  1
  Cl  Cl461  1  0.74496935  0.71620494  0.61983287  1
  Cl  Cl462  1  0.24252912  0.27837323  0.12603868  1
  Cl  Cl463  1  0.25721246  0.60481943  0.10276385  1
  Cl  Cl464  1  0.23748537  0.94183340  0.10235701  1
  Cl  Cl465  1  0.74021337  0.28437561  0.11789899  1
  Cl  Cl466  1  0.74696511  0.61412395  0.12519372  1
  Cl  Cl467  1  0.73979106  0.94944146  0.12671228  1
  Cl  Cl468  1  0.26352369  0.05535919  0.88692201  1
  Cl  Cl469  1  0.26093042  0.39503962  0.88450608  1
  Cl  Cl470  1  0.24789609  0.71100513  0.87179723  1
  Cl  Cl471  1  0.75648554  0.05374790  0.88233010  1
  Cl  Cl472  1  0.75418096  0.38838181  0.88164707  1
  Cl  Cl473  1  0.75549437  0.72408991  0.89018607  1
  Cl  Cl474  1  0.25289552  0.27260281  0.40076569  1
  Cl  Cl475  1  0.23927422  0.61037714  0.38598675  1
  Cl  Cl476  1  0.24133861  0.94732160  0.37062144  1
  Cl  Cl477  1  0.74792401  0.27946026  0.37871926  1
  Cl  Cl478  1  0.74058027  0.61227675  0.39358771  1
  Cl  Cl479  1  0.73870807  0.94447820  0.39347048  1
  Cl  Cl480  1  0.00439545  0.22326409  0.61745169  1
  Cl  Cl481  1  0.01054803  0.56046868  0.59938452  1
  Cl  Cl482  1  0.01183518  0.89026283  0.61502868  1
  Cl  Cl483  1  0.49144348  0.22421433  0.60240479  1
  Cl  Cl484  1  0.50980092  0.55352071  0.62507551  1
  Cl  Cl485  1  0.51387659  0.89528123  0.60379278  1
  Cl  Cl486  1  -0.00934485  0.11332208  0.12204686  1
  Cl  Cl487  1  -0.00945889  0.44714157  0.12571468  1
  Cl  Cl488  1  -0.00300693  0.77313259  0.10220012  1
  Cl  Cl489  1  0.49244359  0.10647509  0.10588731  1
  Cl  Cl490  1  0.49172819  0.43810304  0.10484281  1
  Cl  Cl491  1  0.49885592  0.78367388  0.12147524  1
  Cl  Cl492  1  0.00648127  0.22023258  0.88694991  1
  Cl  Cl493  1  -0.00344494  0.55265831  0.86871572  1
  Cl  Cl494  1  0.01029239  0.88582314  0.88457566  1
  Cl  Cl495  1  0.50753816  0.21801177  0.87293421  1
  Cl  Cl496  1  0.49192094  0.56063675  0.89927304  1
  Cl  Cl497  1  0.50784339  0.88485135  0.87594725  1
  Cl  Cl498  1  0.00518680  0.11143685  0.38715604  1
  Cl  Cl499  1  0.00829137  0.44294070  0.39693170  1
  Cl  Cl500  1  0.00289184  0.78167745  0.37268194  1
  Cl  Cl501  1  0.50456845  0.11211835  0.38003562  1
  Cl  Cl502  1  0.50414284  0.45183432  0.37205128  1
  Cl  Cl503  1  0.49952782  0.78306786  0.38511251  1
  Cl  Cl504  1  0.36523528  0.14701386  0.74742851  1
  Cl  Cl505  1  0.36055270  0.47922165  0.74460543  1
  Cl  Cl506  1  0.35760434  0.81393992  0.75233902  1
  Cl  Cl507  1  0.86063774  0.14741347  0.74630714  1
  Cl  Cl508  1  0.86248428  0.48139220  0.74501761  1
  Cl  Cl509  1  0.86514286  0.81131688  0.74589993  1
  Cl  Cl510  1  0.13535000  0.18581201  0.25074649  1
  Cl  Cl511  1  0.13616518  0.51889868  0.24788041  1
  Cl  Cl512  1  0.13817873  0.85004551  0.24606586  1
  Cl  Cl513  1  0.63842641  0.18480009  0.25027219  1
  Cl  Cl514  1  0.63788622  0.51864980  0.24041921  1
  Cl  Cl515  1  0.63788488  0.85086865  0.24977370  1
  Cl  Cl516  1  0.14392744  0.14996624  0.75146455  1
  Cl  Cl517  1  0.13985899  0.48154842  0.75020639  1
  Cl  Cl518  1  0.13924784  0.81250291  0.74587479  1
  Cl  Cl519  1  0.63817350  0.14518474  0.74684433  1
  Cl  Cl520  1  0.64259429  0.48225689  0.75294210  1
  Cl  Cl521  1  0.64426580  0.81637442  0.74831694  1
  Cl  Cl522  1  0.35431397  0.18715377  0.25041849  1
  Cl  Cl523  1  0.35465156  0.52160054  0.25293219  1
  Cl  Cl524  1  0.35756445  0.85372630  0.24817036  1
  Cl  Cl525  1  0.85850165  0.18768784  0.25104650  1
  Cl  Cl526  1  0.85981678  0.52170453  0.25898165  1
  Cl  Cl527  1  0.85768398  0.85585446  0.25247550  1
  Cl  Cl528  1  0.10859371  0.31504557  0.75064508  1
  Cl  Cl529  1  0.11076194  0.64808577  0.74608669  1
  Cl  Cl530  1  0.10907535  0.98370257  0.75063386  1
  Cl  Cl531  1  0.61062260  0.31657875  0.75054739  1
  Cl  Cl532  1  0.60681537  0.64773117  0.75507246  1
  Cl  Cl533  1  0.60976926  0.98003235  0.75442539  1
  Cl  Cl534  1  0.38269301  0.02086155  0.24814131  1
  Cl  Cl535  1  0.38471315  0.35377371  0.24912124  1
  Cl  Cl536  1  0.38685230  0.68542530  0.25319080  1
  Cl  Cl537  1  0.88541256  0.01920406  0.25258268  1
  Cl  Cl538  1  0.88435834  0.35405025  0.25591510  1
  Cl  Cl539  1  0.88355440  0.68679440  0.25094774  1
  Cl  Cl540  1  0.38963042  0.31287163  0.75298123  1
  Cl  Cl541  1  0.38727509  0.64516152  0.74947790  1
  Cl  Cl542  1  0.39026457  0.97960712  0.74523864  1
  Cl  Cl543  1  0.88995802  0.31399535  0.74672640  1
  Cl  Cl544  1  0.88950029  0.64576249  0.74636639  1
  Cl  Cl545  1  0.88912855  0.97917550  0.74389205  1
  Cl  Cl546  1  0.10636781  0.01931056  0.24768791  1
  Cl  Cl547  1  0.10646701  0.35364350  0.25174111  1
  Cl  Cl548  1  0.10318153  0.68453731  0.24353102  1
  Cl  Cl549  1  0.60175247  0.01978602  0.25062117  1
  Cl  Cl550  1  0.60573779  0.35201138  0.25271722  1
  Cl  Cl551  1  0.60661721  0.68568071  0.24886358  1
