# generated using pymatgen
data_H8PbC4(N3Cl2)2
_symmetry_space_group_name_H-M   'P 1'
_cell_length_a   16.63443899
_cell_length_b   22.53187381
_cell_length_c   21.60452223
_cell_angle_alpha   90.00136799
_cell_angle_beta   89.96289212
_cell_angle_gamma   90.01165218
_symmetry_Int_Tables_number   1
_chemical_formula_structural   H8PbC4(N3Cl2)2
_chemical_formula_sum   'H192 Pb24 C96 N144 Cl96'
_cell_volume   8097.48282004
_cell_formula_units_Z   24
loop_
 _symmetry_equiv_pos_site_id
 _symmetry_equiv_pos_as_xyz
  1  'x, y, z'
loop_
 _atom_site_type_symbol
 _atom_site_label
 _atom_site_symmetry_multiplicity
 _atom_site_fract_x
 _atom_site_fract_y
 _atom_site_fract_z
 _atom_site_occupancy
  H  H0  1  0.00664649  0.02828622  0.67912376  1
  H  H1  1  -0.00277843  0.36157354  0.67657315  1
  H  H2  1  0.00706689  0.69407055  0.67584614  1
  H  H3  1  0.50179748  0.02704473  0.68260208  1
  H  H4  1  0.49409687  0.35471320  0.67962191  1
  H  H5  1  0.49130735  0.69779017  0.68138391  1
  H  H6  1  -0.00438934  0.30447436  0.17660439  1
  H  H7  1  -0.02133008  0.63595141  0.17576042  1
  H  H8  1  -0.01325128  0.97765977  0.17233529  1
  H  H9  1  0.49811539  0.30645433  0.17905751  1
  H  H10  1  0.51470664  0.63942477  0.17545919  1
  H  H11  1  0.49919565  0.97447959  0.17749026  1
  H  H12  1  -0.00356310  0.02588143  0.82189783  1
  H  H13  1  0.00552655  0.35964137  0.82539718  1
  H  H14  1  -0.00067301  0.69229750  0.82050909  1
  H  H15  1  0.50809769  0.02753664  0.82159494  1
  H  H16  1  0.49753280  0.36352997  0.82518613  1
  H  H17  1  0.49841693  0.68899877  0.82498424  1
  H  H18  1  0.00940374  0.31114361  0.32466289  1
  H  H19  1  0.01187670  0.63880490  0.32163733  1
  H  H20  1  0.01130706  0.97263966  0.32077457  1
  H  H21  1  0.50638840  0.29973507  0.31925239  1
  H  H22  1  0.50019858  0.63822514  0.32629264  1
  H  H23  1  0.49674775  0.97253250  0.32347402  1
  H  H24  1  0.25130435  0.19211206  0.68008390  1
  H  H25  1  0.25390676  0.53246567  0.67781551  1
  H  H26  1  0.25208157  0.86625847  0.67405131  1
  H  H27  1  0.73624856  0.19539355  0.68075913  1
  H  H28  1  0.74346067  0.53328646  0.68351593  1
  H  H29  1  0.74311891  0.85593602  0.67742894  1
  H  H30  1  0.24254483  0.13772279  0.17764750  1
  H  H31  1  0.26349968  0.47630062  0.17293654  1
  H  H32  1  0.23656436  0.80529328  0.17858582  1
  H  H33  1  0.75703451  0.13945406  0.18024702  1
  H  H34  1  0.74599822  0.47239368  0.17366071  1
  H  H35  1  0.75368602  0.80510496  0.17990820  1
  H  H36  1  0.25370484  0.19506389  0.82018666  1
  H  H37  1  0.26440961  0.52985210  0.82042927  1
  H  H38  1  0.24656937  0.85490197  0.82809670  1
  H  H39  1  0.73633951  0.19649271  0.82387716  1
  H  H40  1  0.74710308  0.52289575  0.82514353  1
  H  H41  1  0.75880975  0.85984784  0.82616476  1
  H  H42  1  0.24281345  0.13941885  0.31904527  1
  H  H43  1  0.26496444  0.46381733  0.32007083  1
  H  H44  1  0.26165135  0.81004399  0.32359122  1
  H  H45  1  0.75124725  0.13713235  0.32169516  1
  H  H46  1  0.73176571  0.47025713  0.32236153  1
  H  H47  1  0.74481943  0.80810136  0.31683997  1
  H  H48  1  0.11430626  0.05927684  0.59895310  1
  H  H49  1  0.12420451  0.38825531  0.60818269  1
  H  H50  1  0.13455097  0.72114599  0.60868337  1
  H  H51  1  0.62029016  0.05583224  0.60713674  1
  H  H52  1  0.62072167  0.38226842  0.61405539  1
  H  H53  1  0.63222850  0.71519939  0.63160559  1
  H  H54  1  0.37331216  0.28050609  0.10974965  1
  H  H55  1  0.38009960  0.61449885  0.11621783  1
  H  H56  1  0.38606171  0.94393233  0.09779181  1
  H  H57  1  0.87651461  0.27898665  0.10335851  1
  H  H58  1  0.87448922  0.60722469  0.09221270  1
  H  H59  1  0.88929751  0.93960397  0.08647155  1
  H  H60  1  0.37155078  0.04822384  0.88189040  1
  H  H61  1  0.39500563  0.39244944  0.90911915  1
  H  H62  1  0.37947627  0.72218515  0.89525394  1
  H  H63  1  0.86665552  0.05271501  0.88735519  1
  H  H64  1  0.88780287  0.39140907  0.89701464  1
  H  H65  1  0.87828819  0.71601840  0.89454504  1
  H  H66  1  0.11689936  0.27826791  0.40660599  1
  H  H67  1  0.11440823  0.60566809  0.40556854  1
  H  H68  1  0.11493978  0.94212737  0.40469625  1
  H  H69  1  0.61869959  0.27741984  0.39876346  1
  H  H70  1  0.60897247  0.60651761  0.40741288  1
  H  H71  1  0.60838510  0.94468188  0.40180955  1
  H  H72  1  0.38425441  0.21804264  0.61762188  1
  H  H73  1  0.38802937  0.55242504  0.61774426  1
  H  H74  1  0.39024538  0.88498796  0.61941414  1
  H  H75  1  0.87478801  0.21508499  0.62897612  1
  H  H76  1  0.88033296  0.54868200  0.62730070  1
  H  H77  1  0.88060101  0.88273772  0.62636798  1
  H  H78  1  0.13430014  0.10945092  0.09739377  1
  H  H79  1  0.11962450  0.45616805  0.12690786  1
  H  H80  1  0.12146830  0.77532190  0.10053933  1
  H  H81  1  0.63372488  0.11378713  0.10897152  1
  H  H82  1  0.61250305  0.44825593  0.11611473  1
  H  H83  1  0.61994818  0.77926405  0.11921269  1
  H  H84  1  0.12350188  0.21802680  0.88411687  1
  H  H85  1  0.13048438  0.55153534  0.88235565  1
  H  H86  1  0.11820087  0.88731929  0.89133990  1
  H  H87  1  0.62799120  0.22597157  0.90563294  1
  H  H88  1  0.62720873  0.55698413  0.89484991  1
  H  H89  1  0.61729185  0.87813584  0.87793272  1
  H  H90  1  0.38298489  0.12299611  0.37044587  1
  H  H91  1  0.37103912  0.44273054  0.40331413  1
  H  H92  1  0.36177950  0.77343741  0.40808715  1
  H  H93  1  0.88488898  0.11262581  0.38341658  1
  H  H94  1  0.87438413  0.45274933  0.37312806  1
  H  H95  1  0.86645083  0.77820303  0.38919041  1
  H  H96  1  0.37192961  0.28300851  0.37708339  1
  H  H97  1  0.36336315  0.61270520  0.38286237  1
  H  H98  1  0.36071896  0.95036668  0.37933070  1
  H  H99  1  0.87177875  0.28663833  0.37977759  1
  H  H100  1  0.87111709  0.61556655  0.36995743  1
  H  H101  1  0.87106912  0.94815839  0.37044145  1
  H  H102  1  0.11545015  0.05532524  0.89397870  1
  H  H103  1  0.13553650  0.38561133  0.88920893  1
  H  H104  1  0.12710529  0.72132778  0.88631364  1
  H  H105  1  0.61805387  0.05924418  0.90326026  1
  H  H106  1  0.63929854  0.38123168  0.87333583  1
  H  H107  1  0.62850793  0.71632365  0.88862625  1
  H  H108  1  0.12541286  0.28113964  0.11431246  1
  H  H109  1  0.11827607  0.61975173  0.12561533  1
  H  H110  1  0.12983037  0.95315991  0.12632577  1
  H  H111  1  0.62261222  0.28029064  0.10832120  1
  H  H112  1  0.62793476  0.60640782  0.09932757  1
  H  H113  1  0.63266784  0.94907259  0.11595589  1
  H  H114  1  0.37219762  0.05312045  0.61548261  1
  H  H115  1  0.37151723  0.38576421  0.60982225  1
  H  H116  1  0.38790572  0.72331799  0.59625490  1
  H  H117  1  0.86782910  0.05187490  0.62529746  1
  H  H118  1  0.87617582  0.38829331  0.60205253  1
  H  H119  1  0.88521230  0.72297528  0.60630841  1
  H  H120  1  0.13803874  0.11018503  0.40126788  1
  H  H121  1  0.12515864  0.44996462  0.37442289  1
  H  H122  1  0.12004923  0.78595825  0.37217081  1
  H  H123  1  0.63753870  0.11097594  0.40250657  1
  H  H124  1  0.63190865  0.43838602  0.41025671  1
  H  H125  1  0.61820553  0.77842569  0.38528828  1
  H  H126  1  0.37163614  0.22351556  0.89533427  1
  H  H127  1  0.37855909  0.55831189  0.89749216  1
  H  H128  1  0.36603118  0.88631573  0.89833893  1
  H  H129  1  0.87411076  0.21740773  0.87973789  1
  H  H130  1  0.87572670  0.55078806  0.89024549  1
  H  H131  1  0.86083006  0.89388578  0.91022659  1
  H  H132  1  0.38068931  0.11930014  0.12367695  1
  H  H133  1  0.36153600  0.43794521  0.08899342  1
  H  H134  1  0.36860265  0.78065534  0.11484545  1
  H  H135  1  0.88311012  0.11370858  0.11133476  1
  H  H136  1  0.86088269  0.44621624  0.09661034  1
  H  H137  1  0.86689396  0.77455308  0.10055555  1
  H  H138  1  0.13591482  0.22435664  0.60543766  1
  H  H139  1  0.14012319  0.55368623  0.59966682  1
  H  H140  1  0.14318189  0.89350058  0.59379200  1
  H  H141  1  0.62977635  0.22070157  0.59819735  1
  H  H142  1  0.63398309  0.55724571  0.60265230  1
  H  H143  1  0.63570442  0.89105984  0.59677281  1
  H  H144  1  0.97487898  0.91522909  -0.00989035  1
  H  H145  1  0.57798144  0.41667688  0.50462922  1
  H  H146  1  0.53499023  0.58143046  0.50847348  1
  H  H147  1  0.03461643  0.57890017  0.50448769  1
  H  H148  1  0.92736524  0.24708594  -0.00405274  1
  H  H149  1  0.58976635  0.74524745  0.99427765  1
  H  H150  1  0.09880341  0.41659406  0.99718764  1
  H  H151  1  0.10462174  0.58847271  1.01037545  1
  H  H152  1  0.85841210  0.24503852  0.51479085  1
  H  H153  1  0.39639462  0.25238873  0.49126490  1
  H  H154  1  0.36168549  0.08778217  1.01067108  1
  H  H155  1  0.09195316  0.74861452  0.50313987  1
  H  H156  1  0.80074317  0.41608230  -0.01032688  1
  H  H157  1  0.93333659  0.74687083  1.00140776  1
  H  H158  1  0.27941518  0.41257412  -0.00895889  1
  H  H159  1  0.03666348  0.91721912  0.50488919  1
  H  H160  1  0.85993275  0.57536829  0.51193343  1
  H  H161  1  0.20967416  0.08014764  0.50537984  1
  H  H162  1  0.27951719  0.74539144  0.50451931  1
  H  H163  1  0.37916735  0.91913925  0.49670938  1
  H  H164  1  0.20168403  0.08082851  -0.00852409  1
  H  H165  1  0.29978652  0.41908952  0.51097499  1
  H  H166  1  0.42561509  0.40630717  0.50290043  1
  H  H167  1  0.21131676  0.92291220  0.48776687  1
  H  H168  1  0.54367340  0.91760941  0.50948033  1
  H  H169  1  0.86143262  0.91400373  0.51234105  1
  H  H170  1  0.69989965  0.58433377  0.49597855  1
  H  H171  1  0.46077117  0.75187933  0.49326594  1
  H  H172  1  0.63553697  0.41708873  -0.00156354  1
  H  H173  1  0.70780518  0.91443508  0.49623877  1
  H  H174  1  0.20105660  0.57785047  0.48994984  1
  H  H175  1  0.71629453  0.41083697  0.50553773  1
  H  H176  1  0.09339038  0.24833788  0.00305738  1
  H  H177  1  0.93513078  0.75501025  0.49723180  1
  H  H178  1  0.42285308  0.24730948  0.00207701  1
  H  H179  1  0.89105797  0.08047672  0.51644162  1
  H  H180  1  0.43239370  0.75523449  1.00288830  1
  H  H181  1  0.16000769  0.91811584  0.99722811  1
  H  H182  1  0.04185947  0.25334608  0.50600098  1
  H  H183  1  0.36843245  0.09076408  0.48350207  1
  H  H184  1  0.78053793  0.91131756  1.00993222  1
  H  H185  1  0.31628014  0.58925062  1.00236636  1
  H  H186  1  0.04494234  0.09169744  0.49512253  1
  H  H187  1  0.61986975  0.74375910  0.51720842  1
  H  H188  1  0.83603522  0.08564148  0.00259997  1
  H  H189  1  0.63538491  0.91721652  0.98344029  1
  H  H190  1  0.47110890  0.42236962  1.01224788  1
  H  H191  1  0.69967480  0.24657155  0.49224069  1
  Pb  Pb192  1  0.25524246  0.04885553  0.74690903  1
  Pb  Pb193  1  0.25555736  0.38152001  0.75727558  1
  Pb  Pb194  1  0.25831671  0.71805025  0.74201439  1
  Pb  Pb195  1  0.74973599  0.04901785  0.75712273  1
  Pb  Pb196  1  0.76078114  0.38365832  0.74159310  1
  Pb  Pb197  1  0.75923878  0.71414362  0.75272920  1
  Pb  Pb198  1  0.24429015  0.28402937  0.25594787  1
  Pb  Pb199  1  0.24606759  0.61779058  0.25073710  1
  Pb  Pb200  1  0.24938078  0.95292008  0.24547053  1
  Pb  Pb201  1  0.74858216  0.28560759  0.24861823  1
  Pb  Pb202  1  0.74297448  0.61680721  0.24909280  1
  Pb  Pb203  1  0.74572917  0.95212348  0.25109462  1
  Pb  Pb204  1  0.00617047  0.21441931  0.74375637  1
  Pb  Pb205  1  0.01241956  0.54925651  0.74315446  1
  Pb  Pb206  1  0.00497472  0.88489419  0.74736955  1
  Pb  Pb207  1  0.50794321  0.21734922  0.75428978  1
  Pb  Pb208  1  0.50683399  0.54904350  0.74800785  1
  Pb  Pb209  1  0.50541928  0.88008770  0.75027938  1
  Pb  Pb210  1  0.00036340  0.11744530  0.24981553  1
  Pb  Pb211  1  -0.00508084  0.45307028  0.24031399  1
  Pb  Pb212  1  -0.00483113  0.78393156  0.24635579  1
  Pb  Pb213  1  0.50395695  0.12051794  0.25335828  1
  Pb  Pb214  1  0.49557811  0.44936280  0.25711796  1
  Pb  Pb215  1  0.49376918  0.78467605  0.25212427  1
  C  C216  1  -0.00461221  0.04530172  0.63274827  1
  C  C217  1  -0.00083996  0.37871884  0.62965097  1
  C  C218  1  0.00957192  0.71212347  0.62916350  1
  C  C219  1  0.49792639  0.04445542  0.63578154  1
  C  C220  1  0.49488010  0.37294542  0.63301658  1
  C  C221  1  0.50448916  0.71198259  0.63439980  1
  C  C222  1  -0.00070947  0.28793479  0.12939858  1
  C  C223  1  -0.00841421  0.62128083  0.12902382  1
  C  C224  1  0.00175548  0.95828330  0.12787839  1
  C  C225  1  0.49806064  0.28938028  0.13215259  1
  C  C226  1  0.50723358  0.62122238  0.12953048  1
  C  C227  1  0.50616029  0.95758463  0.13070764  1
  C  C228  1  -0.00740296  0.04442820  0.86783325  1
  C  C229  1  0.01028839  0.37749820  0.87175204  1
  C  C230  1  0.00166695  0.70937214  0.86738194  1
  C  C231  1  0.49934419  0.04407463  0.86823701  1
  C  C232  1  0.51094971  0.37884588  0.87166242  1
  C  C233  1  0.50250212  0.70782250  0.87123656  1
  C  C234  1  -0.00048575  0.29327932  0.37064288  1
  C  C235  1  -0.00082700  0.62196279  0.36766322  1
  C  C236  1  -0.00090003  0.95677181  0.36721992  1
  C  C237  1  0.49801988  0.28632194  0.36699141  1
  C  C238  1  0.49102883  0.62058715  0.37253975  1
  C  C239  1  0.48836555  0.95665693  0.37061479  1
  C  C240  1  0.25744799  0.21043992  0.63415299  1
  C  C241  1  0.26065274  0.54589831  0.62993837  1
  C  C242  1  0.26187177  0.88095355  0.62683010  1
  C  C243  1  0.74760888  0.20955700  0.63346440  1
  C  C244  1  0.75330934  0.54636211  0.63570312  1
  C  C245  1  0.75319035  0.87471576  0.63168155  1
  C  C246  1  0.25291145  0.12257256  0.13055723  1
  C  C247  1  0.24829566  0.45826611  0.12786114  1
  C  C248  1  0.24209987  0.78856152  0.13170064  1
  C  C249  1  0.75815747  0.12272458  0.13323098  1
  C  C250  1  0.73967093  0.45584584  0.12657903  1
  C  C251  1  0.74693962  0.78733863  0.13350011  1
  C  C252  1  0.24985251  0.21192324  0.86692082  1
  C  C253  1  0.25757275  0.54609489  0.86742404  1
  C  C254  1  0.24300287  0.87451474  0.87367559  1
  C  C255  1  0.74644885  0.21279855  0.87027627  1
  C  C256  1  0.75024688  0.54276483  0.87064382  1
  C  C257  1  0.74537734  0.87651134  0.87227926  1
  C  C258  1  0.25526519  0.12439930  0.36590302  1
  C  C259  1  0.25376629  0.45171107  0.36779476  1
  C  C260  1  0.24786846  0.79086613  0.36838339  1
  C  C261  1  0.75802345  0.12086060  0.36875977  1
  C  C262  1  0.74564528  0.45433810  0.36851974  1
  C  C263  1  0.74309079  0.78946727  0.36314917  1
  C  C264  1  0.05496536  0.59632161  0.04220979  1
  C  C265  1  0.53900278  0.40509306  0.54322015  1
  C  C266  1  0.46138446  0.25928180  0.04067252  1
  C  C267  1  0.17868755  0.42788347  0.04660783  1
  C  C268  1  0.72808931  0.24573631  0.96443730  1
  C  C269  1  0.52414051  0.25915704  0.46289473  1
  C  C270  1  0.68518182  0.42853091  0.03768715  1
  C  C271  1  0.93282083  0.58986609  0.45009846  1
  C  C272  1  0.44316649  0.26106210  0.45693758  1
  C  C273  1  0.23211334  0.09367427  0.03395420  1
  C  C274  1  0.97472668  0.59212514  0.03252091  1
  C  C275  1  0.43049378  0.93040539  0.45870376  1
  C  C276  1  0.53144287  0.58540300  0.03740817  1
  C  C277  1  0.02442529  0.07939485  0.95926918  1
  C  C278  1  0.72894319  0.23593334  0.53582546  1
  C  C279  1  0.73107228  0.57212680  0.53844808  1
  C  C280  1  0.31900876  0.09902999  0.45164205  1
  C  C281  1  0.93441017  0.92551079  0.45061482  1
  C  C282  1  0.81236200  0.56817435  0.54669742  1
  C  C283  1  0.31574987  0.56959977  0.54008749  1
  C  C284  1  0.23831796  0.09393025  0.46245961  1
  C  C285  1  0.31325631  0.09712397  0.04344416  1
  C  C286  1  0.49792916  0.40907559  0.96841658  1
  C  C287  1  0.23460112  0.56953968  0.53228279  1
  C  C288  1  0.24186287  0.90980683  0.53025490  1
  C  C289  1  0.80984676  0.23487670  0.54694761  1
  C  C290  1  0.56983636  0.73598566  0.54883114  1
  C  C291  1  0.19123020  0.43070044  0.45480239  1
  C  C292  1  0.79619519  0.09495706  0.04124955  1
  C  C293  1  0.22993268  0.24574417  0.54204477  1
  C  C294  1  0.27945603  0.91170321  0.96479614  1
  C  C295  1  0.01605184  0.07834638  0.53821159  1
  C  C296  1  0.51190858  0.92871172  0.46692292  1
  C  C297  1  0.76692788  0.42754019  0.03103325  1
  C  C298  1  0.04795640  0.25864230  0.03875421  1
  C  C299  1  0.97664718  0.41285313  0.96428762  1
  C  C300  1  0.96956289  0.73752597  0.96063339  1
  C  C301  1  0.97201648  0.74324340  0.53700061  1
  C  C302  1  0.28256056  0.57700629  0.96108201  1
  C  C303  1  0.81414179  0.90609904  0.54733529  1
  C  C304  1  0.71794106  0.58051931  0.96040475  1
  C  C305  1  0.32262337  0.90628988  0.53983838  1
  C  C306  1  0.20375968  0.24032415  0.95739524  1
  C  C307  1  0.96580208  0.25848753  0.03499087  1
  C  C308  1  0.57791271  0.40468364  0.95581037  1
  C  C309  1  0.27111862  0.42838479  0.46677841  1
  C  C310  1  0.46833247  0.74164834  0.96328447  1
  C  C311  1  0.48926511  0.73942065  0.53669915  1
  N  N312  1  0.48102612  0.92687548  0.03605834  1
  N  N313  1  0.77174006  0.75593147  0.03886358  1
  N  N314  1  0.20075461  0.90998518  0.96181002  1
  N  N315  1  0.73545111  0.91007022  0.53874090  1
  N  N316  1  0.20358619  0.57558331  0.95616445  1
  N  N317  1  0.77825673  0.75733121  0.45550364  1
  N  N318  1  0.29091417  0.75911084  0.04191134  1
  N  N319  1  0.45353862  0.07536821  0.54540585  1
  N  N320  1  0.73267164  0.09079074  0.46367735  1
  N  N321  1  0.07134521  0.92644633  0.04793406  1
  N  N322  1  0.52064314  0.07693276  0.96270880  1
  N  N323  1  0.54069071  0.25932072  0.03986758  1
  N  N324  1  0.81399496  0.42993924  0.45207321  1
  N  N325  1  0.50884563  0.58847177  0.46551967  1
  N  N326  1  0.54797621  0.74025068  0.95940012  1
  N  N327  1  0.25579944  0.42149639  0.03482511  1
  N  N328  1  0.01208935  0.92394066  0.46132452  1
  N  N329  1  0.99539385  0.92221070  0.03550496  1
  N  N330  1  0.01036261  0.58682470  0.46100878  1
  N  N331  1  0.96483431  0.40952467  0.53645613  1
  N  N332  1  0.69554133  0.75708124  0.04505018  1
  N  N333  1  0.75900054  0.91300999  0.96457608  1
  N  N334  1  0.01616837  0.25895897  0.46273251  1
  N  N335  1  0.94694859  0.07813678  0.95819624  1
  N  N336  1  0.73768689  0.42602685  0.46339876  1
  N  N337  1  0.21472205  0.75682176  0.03754401  1
  N  N338  1  0.04096585  0.40896979  0.53815103  1
  N  N339  1  0.45412304  0.58841867  0.04122189  1
  N  N340  1  0.79504862  0.57826934  0.96041080  1
  N  N341  1  0.05512187  0.40880791  0.96092122  1
  N  N342  1  0.30710837  0.24305244  0.54514051  1
  N  N343  1  0.52932781  0.07625904  0.54234315  1
  N  N344  1  0.43139706  0.59106717  0.45847783  1
  N  N345  1  0.93759570  0.07572029  0.54835557  1
  N  N346  1  0.04857017  0.74044375  0.95816533  1
  N  N347  1  0.18084577  0.75891937  0.44952715  1
  N  N348  1  0.70200986  0.75803011  0.45419200  1
  N  N349  1  0.80491843  0.24332123  0.95738463  1
  N  N350  1  0.28122094  0.24260891  0.96217257  1
  N  N351  1  0.68230634  0.90007510  0.95620455  1
  N  N352  1  0.55711971  0.93040490  0.04133728  1
  N  N353  1  0.45929980  0.40603587  0.54246793  1
  N  N354  1  0.80875236  0.09136402  0.45746536  1
  N  N355  1  0.93899581  0.26187233  0.45505644  1
  N  N356  1  0.25739329  0.75405808  0.46020713  1
  N  N357  1  0.44536133  0.07249092  0.95581737  1
  N  N358  1  0.05157194  0.74310086  0.53934658  1
  N  N359  1  0.71701565  0.09354291  0.04020494  1
  N  N360  1  0.05238975  0.06032935  0.59089295  1
  N  N361  1  0.06387310  0.38987635  0.59575641  1
  N  N362  1  0.07448225  0.72249805  0.59569270  1
  N  N363  1  0.55860174  0.05707972  0.59815259  1
  N  N364  1  0.56127568  0.38647976  0.59998688  1
  N  N365  1  0.57748639  0.71924750  0.60945627  1
  N  N366  1  0.43364208  0.27726745  0.09710287  1
  N  N367  1  0.43909311  0.61112276  0.10010068  1
  N  N368  1  0.44825908  0.94380514  0.09110850  1
  N  N369  1  0.93712831  0.27669454  0.09166408  1
  N  N370  1  0.93644952  0.60717044  0.08460898  1
  N  N371  1  0.95163398  0.94405799  0.08277670  1
  N  N372  1  0.43029995  0.05185802  0.89769417  1
  N  N373  1  0.45712108  0.39269063  0.91509026  1
  N  N374  1  0.43991136  0.72257774  0.90811701  1
  N  N375  1  0.92691801  0.05636936  0.89975307  1
  N  N376  1  0.94848223  0.39320509  0.90939218  1
  N  N377  1  0.93908658  0.71925108  0.90518405  1
  N  N378  1  0.05447813  0.28064080  0.41278744  1
  N  N379  1  0.05222721  0.60980773  0.41125580  1
  N  N380  1  0.05287802  0.94672767  0.41100032  1
  N  N381  1  0.55719197  0.27459255  0.40878976  1
  N  N382  1  0.54665121  0.60860458  0.41446204  1
  N  N383  1  0.54676160  0.94508648  0.41144241  1
  N  N384  1  0.32455910  0.22078381  0.60336005  1
  N  N385  1  0.33072566  0.55546746  0.59934260  1
  N  N386  1  0.33390808  0.88859267  0.59926889  1
  N  N387  1  0.81985267  0.21856627  0.60752799  1
  N  N388  1  0.82447175  0.55258118  0.60731094  1
  N  N389  1  0.82512038  0.88646720  0.60575779  1
  N  N390  1  0.19585989  0.10970659  0.08859922  1
  N  N391  1  0.17369470  0.44891566  0.10505488  1
  N  N392  1  0.18308624  0.77477650  0.09311917  1
  N  N393  1  0.69493428  0.11124126  0.09772648  1
  N  N394  1  0.66970585  0.44567645  0.09727865  1
  N  N395  1  0.67892560  0.77683324  0.10361529  1
  N  N396  1  0.18231468  0.22224930  0.89964996  1
  N  N397  1  0.18960625  0.55642597  0.89745051  1
  N  N398  1  0.17720214  0.88563019  0.90589382  1
  N  N399  1  0.68968815  0.22751015  0.91242931  1
  N  N400  1  0.68755732  0.55917297  0.90647094  1
  N  N401  1  0.67353157  0.88674940  0.89624689  1
  N  N402  1  0.32786099  0.11771295  0.39170756  1
  N  N403  1  0.30951855  0.44164659  0.41108021  1
  N  N404  1  0.29955709  0.77620480  0.41234026  1
  N  N405  1  0.82582836  0.10943238  0.39847145  1
  N  N406  1  0.81838743  0.44734377  0.39309883  1
  N  N407  1  0.80506351  0.77635893  0.39917358  1
  N  N408  1  0.42831264  0.27802554  0.39620219  1
  N  N409  1  0.42094081  0.60913215  0.39995401  1
  N  N410  1  0.41746243  0.94753264  0.39880579  1
  N  N411  1  0.92916887  0.28125959  0.39695833  1
  N  N412  1  0.92539901  0.61035358  0.39186812  1
  N  N413  1  0.92598398  0.94428101  0.39180305  1
  N  N414  1  0.05483008  0.05907530  0.90500406  1
  N  N415  1  0.07657229  0.38618399  0.90399631  1
  N  N416  1  0.06695922  0.72254515  0.89979668  1
  N  N417  1  0.55574518  0.05962587  0.90845087  1
  N  N418  1  0.58494035  0.38641103  0.89613406  1
  N  N419  1  0.56865909  0.71756405  0.90338909  1
  N  N420  1  0.06695085  0.27662825  0.09795277  1
  N  N421  1  0.06390302  0.61419504  0.10347782  1
  N  N422  1  0.07476751  0.94659467  0.10614945  1
  N  N423  1  0.56172593  0.27816379  0.09705013  1
  N  N424  1  0.56645961  0.60489475  0.09026967  1
  N  N425  1  0.57421850  0.94918265  0.10007067  1
  N  N426  1  0.43235786  0.05594896  0.60323973  1
  N  N427  1  0.43218234  0.38294287  0.59688747  1
  N  N428  1  0.45005290  0.72432613  0.59040490  1
  N  N429  1  0.92510440  0.05338469  0.60579187  1
  N  N430  1  0.93732179  0.39103675  0.59320236  1
  N  N431  1  0.94568952  0.72507598  0.59304802  1
  N  N432  1  0.19997227  0.10983978  0.40864922  1
  N  N433  1  0.18121841  0.44460760  0.39522344  1
  N  N434  1  0.17567129  0.77958172  0.39168669  1
  N  N435  1  0.69996028  0.10932717  0.40909270  1
  N  N436  1  0.69428386  0.44033447  0.41297463  1
  N  N437  1  0.67866039  0.77766376  0.39707530  1
  N  N438  1  0.31001185  0.22459234  0.90437824  1
  N  N439  1  0.31707791  0.55901124  0.90700888  1
  N  N440  1  0.30582613  0.89024990  0.91035474  1
  N  N441  1  0.81633516  0.22251009  0.89728392  1
  N  N442  1  0.81556296  0.55439661  0.90317477  1
  N  N443  1  0.79870125  0.88865820  0.91619484  1
  N  N444  1  0.32452799  0.11479852  0.10342573  1
  N  N445  1  0.29953488  0.44311943  0.08401496  1
  N  N446  1  0.30914560  0.77918746  0.10009754  1
  N  N447  1  0.82305726  0.11193980  0.09833713  1
  N  N448  1  0.79951556  0.44461215  0.08687521  1
  N  N449  1  0.80481016  0.77403568  0.09366311  1
  N  N450  1  0.19724079  0.22612987  0.59573429  1
  N  N451  1  0.20144395  0.55484815  0.58937353  1
  N  N452  1  0.20506219  0.89357732  0.58536168  1
  N  N453  1  0.69161157  0.22013040  0.59005346  1
  N  N454  1  0.69579188  0.55829471  0.59408804  1
  N  N455  1  0.69800907  0.88730910  0.58969852  1
  Cl  Cl456  1  0.23991755  0.05775530  0.61284403  1
  Cl  Cl457  1  0.24970025  0.39063056  0.62268717  1
  Cl  Cl458  1  0.26344943  0.72455670  0.59906275  1
  Cl  Cl459  1  0.74218812  0.05212268  0.62423597  1
  Cl  Cl460  1  0.74585085  0.38829004  0.60299267  1
  Cl  Cl461  1  0.76310040  0.72609849  0.62274611  1
  Cl  Cl462  1  0.25055925  0.28637530  0.12542878  1
  Cl  Cl463  1  0.25599807  0.60795202  0.12035700  1
  Cl  Cl464  1  0.26222490  0.94521829  0.11144395  1
  Cl  Cl465  1  0.75000683  0.27784798  0.11768667  1
  Cl  Cl466  1  0.75128097  0.60747169  0.11689645  1
  Cl  Cl467  1  0.76899664  0.93330554  0.10573083  1
  Cl  Cl468  1  0.24132964  0.04875913  0.88112491  1
  Cl  Cl469  1  0.26866042  0.39350543  0.89762118  1
  Cl  Cl470  1  0.25500226  0.72563414  0.87255408  1
  Cl  Cl471  1  0.74126769  0.05531984  0.89082821  1
  Cl  Cl472  1  0.76913929  0.38913584  0.87359638  1
  Cl  Cl473  1  0.75202481  0.71890926  0.88464798  1
  Cl  Cl474  1  0.23503842  0.27446551  0.38956396  1
  Cl  Cl475  1  0.23502706  0.60975004  0.38656673  1
  Cl  Cl476  1  0.23264913  0.93994457  0.37950869  1
  Cl  Cl477  1  0.74072244  0.28343725  0.38423664  1
  Cl  Cl478  1  0.72902297  0.60516061  0.38477347  1
  Cl  Cl479  1  0.73261478  0.93817471  0.38876059  1
  Cl  Cl480  1  0.01478588  0.22720953  0.60601875  1
  Cl  Cl481  1  0.01735165  0.56232848  0.60303352  1
  Cl  Cl482  1  0.01847653  0.89532330  0.60267817  1
  Cl  Cl483  1  0.50841778  0.22518828  0.62042635  1
  Cl  Cl484  1  0.51445030  0.55687559  0.60733498  1
  Cl  Cl485  1  0.51830389  0.89203867  0.61598215  1
  Cl  Cl486  1  0.01000153  0.10645048  0.11816594  1
  Cl  Cl487  1  -0.01272632  0.44324167  0.10614678  1
  Cl  Cl488  1  -0.00893245  0.77659086  0.11193825  1
  Cl  Cl489  1  0.51041324  0.11466696  0.12336229  1
  Cl  Cl490  1  0.48034046  0.44043383  0.12275933  1
  Cl  Cl491  1  0.49461449  0.77364768  0.11705754  1
  Cl  Cl492  1  0.00057429  0.21781670  0.87526756  1
  Cl  Cl493  1  0.00149708  0.54899877  0.87468127  1
  Cl  Cl494  1  -0.01739806  0.89880435  0.89662577  1
  Cl  Cl495  1  0.49876813  0.22520328  0.88751031  1
  Cl  Cl496  1  0.50152554  0.55973118  0.87867870  1
  Cl  Cl497  1  0.49014272  0.87916148  0.88061614  1
  Cl  Cl498  1  0.01331522  0.10984345  0.38830113  1
  Cl  Cl499  1  0.00096369  0.45466435  0.37005081  1
  Cl  Cl500  1  -0.00988548  0.77884860  0.38372550  1
  Cl  Cl501  1  0.51624614  0.11483048  0.38435529  1
  Cl  Cl502  1  0.50500143  0.43887767  0.40031051  1
  Cl  Cl503  1  0.48577071  0.77289581  0.38731096  1
  Cl  Cl504  1  0.36066619  0.14509489  0.75195819  1
  Cl  Cl505  1  0.36783568  0.48171201  0.74243638  1
  Cl  Cl506  1  0.35970293  0.81489011  0.74241127  1
  Cl  Cl507  1  0.87065364  0.14388753  0.74139640  1
  Cl  Cl508  1  0.86279029  0.48032740  0.74122560  1
  Cl  Cl509  1  0.86712079  0.81567422  0.75499564  1
  Cl  Cl510  1  0.14299580  0.17848176  0.24519105  1
  Cl  Cl511  1  0.13692350  0.51566787  0.24358491  1
  Cl  Cl512  1  0.13461437  0.85159456  0.24954914  1
  Cl  Cl513  1  0.64866918  0.17835248  0.24928948  1
  Cl  Cl514  1  0.63413075  0.51421936  0.24422069  1
  Cl  Cl515  1  0.63553766  0.85120162  0.24108657  1
  Cl  Cl516  1  0.14161088  0.14848320  0.74887908  1
  Cl  Cl517  1  0.14663930  0.48386817  0.76012202  1
  Cl  Cl518  1  0.14037222  0.81558559  0.74258431  1
  Cl  Cl519  1  0.64484181  0.15063096  0.75235788  1
  Cl  Cl520  1  0.64082127  0.47903758  0.75163624  1
  Cl  Cl521  1  0.64435292  0.81450055  0.75483810  1
  Cl  Cl522  1  0.36614970  0.18902963  0.24982765  1
  Cl  Cl523  1  0.36153983  0.51992801  0.25842357  1
  Cl  Cl524  1  0.35743767  0.85086874  0.24998717  1
  Cl  Cl525  1  0.86839488  0.18968851  0.25721483  1
  Cl  Cl526  1  0.85694143  0.51795014  0.25520129  1
  Cl  Cl527  1  0.86151450  0.85444087  0.25706623  1
  Cl  Cl528  1  0.11457674  0.31672462  0.75638230  1
  Cl  Cl529  1  0.10979345  0.64895397  0.75034840  1
  Cl  Cl530  1  0.10430183  0.98200871  0.75401581  1
  Cl  Cl531  1  0.61215525  0.31494871  0.75297242  1
  Cl  Cl532  1  0.61871061  0.64820968  0.74686053  1
  Cl  Cl533  1  0.60861756  0.98443261  0.75904978  1
  Cl  Cl534  1  0.38551931  0.02240664  0.25645820  1
  Cl  Cl535  1  0.37579493  0.35520435  0.26635850  1
  Cl  Cl536  1  0.38639063  0.68181174  0.24771593  1
  Cl  Cl537  1  0.88025223  0.02193529  0.26022816  1
  Cl  Cl538  1  0.88573612  0.35280014  0.25602272  1
  Cl  Cl539  1  0.88357310  0.68318158  0.25449473  1
  Cl  Cl540  1  0.39009562  0.31416273  0.75223989  1
  Cl  Cl541  1  0.39377570  0.64904807  0.74674952  1
  Cl  Cl542  1  0.38662285  0.97711134  0.74462636  1
  Cl  Cl543  1  0.89355011  0.31350347  0.74492045  1
  Cl  Cl544  1  0.89406864  0.64603509  0.74196794  1
  Cl  Cl545  1  0.88829391  0.97599605  0.73945159  1
  Cl  Cl546  1  0.10467800  0.01269341  0.24449180  1
  Cl  Cl547  1  0.10613103  0.35123919  0.24851383  1
  Cl  Cl548  1  0.10614424  0.68302787  0.24385321  1
  Cl  Cl549  1  0.60649740  0.01406371  0.24980676  1
  Cl  Cl550  1  0.60198680  0.34634602  0.24627947  1
  Cl  Cl551  1  0.60618797  0.68451558  0.25453757  1
