# generated using pymatgen
data_H8PbC4(N3Cl2)2
_symmetry_space_group_name_H-M   'P 1'
_cell_length_a   16.62767442
_cell_length_b   22.51291815
_cell_length_c   21.59210741
_cell_angle_alpha   90.00038664
_cell_angle_beta   89.98905251
_cell_angle_gamma   89.99573145
_symmetry_Int_Tables_number   1
_chemical_formula_structural   H8PbC4(N3Cl2)2
_chemical_formula_sum   'H192 Pb24 C96 N144 Cl96'
_cell_volume   8082.73475742
_cell_formula_units_Z   24
loop_
 _symmetry_equiv_pos_site_id
 _symmetry_equiv_pos_as_xyz
  1  'x, y, z'
loop_
 _atom_site_type_symbol
 _atom_site_label
 _atom_site_symmetry_multiplicity
 _atom_site_fract_x
 _atom_site_fract_y
 _atom_site_fract_z
 _atom_site_occupancy
  H  H0  1  0.00211205  0.03042900  0.67758033  1
  H  H1  1  -0.01038916  0.36220339  0.67516219  1
  H  H2  1  -0.00057907  0.69659490  0.67594858  1
  H  H3  1  0.50117747  0.02835483  0.67794495  1
  H  H4  1  0.50842057  0.36321830  0.67396636  1
  H  H5  1  0.50647951  0.70054477  0.67759239  1
  H  H6  1  -0.00845274  0.30152439  0.18344265  1
  H  H7  1  0.01125775  0.63706602  0.18079457  1
  H  H8  1  -0.01085634  0.96764033  0.18041677  1
  H  H9  1  0.50776690  0.30366321  0.17973163  1
  H  H10  1  0.48504409  0.63640009  0.18265579  1
  H  H11  1  0.51108203  0.96566761  0.18363491  1
  H  H12  1  -0.00506983  0.02985666  0.82284992  1
  H  H13  1  0.00695299  0.36338705  0.82163303  1
  H  H14  1  0.00636747  0.69644795  0.82288337  1
  H  H15  1  0.50466404  0.03472593  0.81529551  1
  H  H16  1  0.49357374  0.36543691  0.81555445  1
  H  H17  1  0.50308861  0.69691875  0.82259076  1
  H  H18  1  -0.00670971  0.30229007  0.32691338  1
  H  H19  1  0.00882733  0.63739878  0.32108620  1
  H  H20  1  0.00115841  0.97436977  0.32307934  1
  H  H21  1  0.49704467  0.30465804  0.31827759  1
  H  H22  1  0.49282278  0.63957414  0.32387429  1
  H  H23  1  0.49686429  0.97544149  0.32461565  1
  H  H24  1  0.25569088  0.19501903  0.67779245  1
  H  H25  1  0.26122723  0.52615004  0.67678074  1
  H  H26  1  0.24380600  0.86274937  0.67880297  1
  H  H27  1  0.75210582  0.19568266  0.67767326  1
  H  H28  1  0.74171324  0.53062576  0.67741864  1
  H  H29  1  0.75767967  0.86351362  0.67651090  1
  H  H30  1  0.26501905  0.13535178  0.17600081  1
  H  H31  1  0.24060761  0.47052276  0.18093184  1
  H  H32  1  0.24819705  0.80259564  0.17723986  1
  H  H33  1  0.73056722  0.13538091  0.18169491  1
  H  H34  1  0.75477087  0.47069445  0.17689529  1
  H  H35  1  0.74486786  0.79951697  0.17568889  1
  H  H36  1  0.24853122  0.19944223  0.82036729  1
  H  H37  1  0.24956916  0.53304727  0.81666311  1
  H  H38  1  0.26227260  0.86642660  0.82023595  1
  H  H39  1  0.75074294  0.19844279  0.81635600  1
  H  H40  1  0.75374084  0.52832507  0.82274809  1
  H  H41  1  0.73901819  0.86311738  0.81847019  1
  H  H42  1  0.24786666  0.13846161  0.32176941  1
  H  H43  1  0.25477189  0.46973043  0.32564946  1
  H  H44  1  0.24463844  0.80263684  0.31802465  1
  H  H45  1  0.75499469  0.13619223  0.32285347  1
  H  H46  1  0.75224596  0.47103445  0.32358894  1
  H  H47  1  0.74387306  0.80332342  0.32083625  1
  H  H48  1  0.12492443  0.05693570  0.60724524  1
  H  H49  1  0.13270922  0.38163522  0.62723875  1
  H  H50  1  0.11050384  0.72567905  0.59744974  1
  H  H51  1  0.62461926  0.05476825  0.60554468  1
  H  H52  1  0.62828352  0.38701653  0.60251708  1
  H  H53  1  0.61390987  0.72421226  0.59428267  1
  H  H54  1  0.37392284  0.28074433  0.11850443  1
  H  H55  1  0.37814011  0.60995066  0.09950351  1
  H  H56  1  0.37896678  0.94848385  0.11867615  1
  H  H57  1  0.87222771  0.27957746  0.10807818  1
  H  H58  1  0.87406117  0.61707722  0.12106837  1
  H  H59  1  0.88170523  0.94259176  0.09817813  1
  H  H60  1  0.37796249  0.05274001  0.88444059  1
  H  H61  1  0.37252528  0.38961303  0.89113310  1
  H  H62  1  0.36843526  0.71951644  0.88272179  1
  H  H63  1  0.87913456  0.05662199  0.89902330  1
  H  H64  1  0.87041652  0.38742999  0.87683514  1
  H  H65  1  0.86586291  0.71471125  0.87674446  1
  H  H66  1  0.12750183  0.27996611  0.38694256  1
  H  H67  1  0.13103247  0.61015702  0.39202871  1
  H  H68  1  0.11392277  0.94529928  0.40318976  1
  H  H69  1  0.62370241  0.28150196  0.38867292  1
  H  H70  1  0.62981301  0.61867803  0.38104598  1
  H  H71  1  0.61498375  0.94401998  0.39795011  1
  H  H72  1  0.37089016  0.22445977  0.60208540  1
  H  H73  1  0.36586659  0.55688462  0.59217456  1
  H  H74  1  0.38492469  0.88303550  0.62647044  1
  H  H75  1  0.87519220  0.21871223  0.60630802  1
  H  H76  1  0.87287579  0.55270775  0.61238385  1
  H  H77  1  0.87579727  0.88968378  0.60049547  1
  H  H78  1  0.12165064  0.11679586  0.12895769  1
  H  H79  1  0.13187859  0.44077737  0.09876087  1
  H  H80  1  0.13948125  0.77398980  0.09546338  1
  H  H81  1  0.62634490  0.11050914  0.09532790  1
  H  H82  1  0.62757724  0.44676730  0.10811504  1
  H  H83  1  0.63509807  0.77671096  0.09431474  1
  H  H84  1  0.12837162  0.22338595  0.89369831  1
  H  H85  1  0.12588263  0.55270176  0.88749752  1
  H  H86  1  0.12059085  0.88420422  0.86992937  1
  H  H87  1  0.62758546  0.22091813  0.89022872  1
  H  H88  1  0.62688616  0.55382384  0.88668683  1
  H  H89  1  0.62217177  0.88414300  0.89625774  1
  H  H90  1  0.37540936  0.11263046  0.38841026  1
  H  H91  1  0.36768422  0.44154095  0.40347511  1
  H  H92  1  0.37925331  0.78088692  0.38018145  1
  H  H93  1  0.87364434  0.11265050  0.39831059  1
  H  H94  1  0.86472211  0.43995225  0.40330937  1
  H  H95  1  0.88346025  0.78509134  0.37409238  1
  H  H96  1  0.37452430  0.28073839  0.39022412  1
  H  H97  1  0.38304838  0.60702011  0.40358249  1
  H  H98  1  0.36665442  0.95105683  0.38801691  1
  H  H99  1  0.87964637  0.27325087  0.40398715  1
  H  H100  1  0.88221181  0.61376859  0.39027269  1
  H  H101  1  0.86699705  0.94815794  0.38260213  1
  H  H102  1  0.12752702  0.05382178  0.88522214  1
  H  H103  1  0.11663782  0.39042382  0.90393625  1
  H  H104  1  0.11164888  0.72785466  0.90618296  1
  H  H105  1  0.62763780  0.05356549  0.88947829  1
  H  H106  1  0.62054806  0.38790246  0.88556501  1
  H  H107  1  0.61535143  0.72357415  0.90178443  1
  H  H108  1  0.12100399  0.27884583  0.11612840  1
  H  H109  1  0.12170791  0.60929509  0.10052467  1
  H  H110  1  0.12748774  0.94990131  0.12746370  1
  H  H111  1  0.62167218  0.27866117  0.10104980  1
  H  H112  1  0.62431620  0.61952620  0.12527605  1
  H  H113  1  0.62818799  0.94359097  0.10681877  1
  H  H114  1  0.37576981  0.05514151  0.60763285  1
  H  H115  1  0.38012314  0.38572652  0.61052100  1
  H  H116  1  0.36861191  0.71729754  0.62483520  1
  H  H117  1  0.87598849  0.05534983  0.60863058  1
  H  H118  1  0.88928858  0.39290582  0.58865151  1
  H  H119  1  0.86374948  0.71774508  0.61733261  1
  H  H120  1  0.12625120  0.11312950  0.39429912  1
  H  H121  1  0.12049237  0.44564807  0.38498448  1
  H  H122  1  0.13071959  0.77601724  0.39622304  1
  H  H123  1  0.62496066  0.11267773  0.38769937  1
  H  H124  1  0.61762767  0.45110750  0.38527940  1
  H  H125  1  0.63714062  0.77703314  0.40249850  1
  H  H126  1  0.37788431  0.21985868  0.88762091  1
  H  H127  1  0.37571072  0.55393950  0.88420745  1
  H  H128  1  0.36525076  0.89024219  0.90541800  1
  H  H129  1  0.87597539  0.22228728  0.88745681  1
  H  H130  1  0.87578577  0.55228694  0.89458907  1
  H  H131  1  0.87123881  0.88620460  0.88133595  1
  H  H132  1  0.36394824  0.10505365  0.08811820  1
  H  H133  1  0.37838267  0.44977251  0.12623840  1
  H  H134  1  0.38570853  0.78497112  0.11912236  1
  H  H135  1  0.87135695  0.11605181  0.12786931  1
  H  H136  1  0.87588380  0.44521971  0.10315133  1
  H  H137  1  0.88057968  0.78054298  0.12128349  1
  H  H138  1  0.12304745  0.21782626  0.61526209  1
  H  H139  1  0.12096339  0.54916517  0.62679265  1
  H  H140  1  0.13918491  0.89222040  0.59498222  1
  H  H141  1  0.62601315  0.21919678  0.61156374  1
  H  H142  1  0.62517404  0.55489352  0.59933472  1
  H  H143  1  0.62808378  0.88605456  0.60992777  1
  H  H144  1  0.33317675  0.57895740  0.99749014  1
  H  H145  1  0.67333369  0.91747096  0.50447467  1
  H  H146  1  0.67594979  0.41633005  0.00344733  1
  H  H147  1  0.42113450  0.07682019  0.99691221  1
  H  H148  1  0.57404560  0.08918585  0.99142099  1
  H  H149  1  0.86115663  0.75056472  1.00515516  1
  H  H150  1  0.96965798  0.41831160  0.49065489  1
  H  H151  1  0.57019166  0.92129440  -0.00313673  1
  H  H152  1  0.35957124  0.75034080  0.01269359  1
  H  H153  1  0.28965444  0.91801401  1.01021654  1
  H  H154  1  0.14961209  0.41608285  0.49453705  1
  H  H155  1  0.09526282  0.08065430  0.99379753  1
  H  H156  1  0.83149230  0.58404792  0.50690501  1
  H  H157  1  0.33786007  0.24936031  0.99329588  1
  H  H158  1  0.45198868  0.58321070  -0.00498052  1
  H  H159  1  0.21226115  0.92435109  0.49332053  1
  H  H160  1  0.92799305  0.25008886  0.00100203  1
  H  H161  1  0.70402834  0.08524805  -0.00737048  1
  H  H162  1  0.09509745  0.24657612  0.49318428  1
  H  H163  1  0.79424639  0.41253056  0.50441080  1
  H  H164  1  0.93673241  0.08791490  1.00563318  1
  H  H165  1  0.19520477  0.74650920  0.50230765  1
  H  H166  1  0.45448570  0.57932214  0.50473439  1
  H  H167  1  0.66713843  0.24796061  0.49903501  1
  H  H168  1  0.36806711  0.91281893  0.51626693  1
  H  H169  1  0.13525852  0.58235703  0.51391185  1
  H  H170  1  0.95176825  0.91799663  -0.00864873  1
  H  H171  1  0.70713709  0.74781655  0.50792370  1
  H  H172  1  0.66654385  0.58690054  0.99888892  1
  H  H173  1  0.04334519  0.91650221  0.50386716  1
  H  H174  1  0.42529027  0.25115981  0.49843168  1
  H  H175  1  0.17997343  0.25193234  1.00262008  1
  H  H176  1  0.55815818  0.25030994  -0.00475532  1
  H  H177  1  0.21246401  0.75863385  -0.00699219  1
  H  H178  1  0.28995104  0.58065040  0.49321868  1
  H  H179  1  0.03516061  0.75029626  1.00740090  1
  H  H180  1  0.38650032  0.74728751  0.50972755  1
  H  H181  1  0.68167044  0.90251010  1.00665889  1
  H  H182  1  0.11225721  0.91976963  0.01154244  1
  H  H183  1  0.35669390  0.41807051  0.01366080  1
  H  H184  1  0.05074024  0.57987738  -0.00473353  1
  H  H185  1  0.17230900  0.57997646  0.99890782  1
  H  H186  1  0.04475705  0.41569441  1.00500216  1
  H  H187  1  0.88662204  0.75036093  0.50570837  1
  H  H188  1  0.20269522  0.41902812  -0.00269061  1
  H  H189  1  0.83318492  0.90079033  0.99188206  1
  H  H190  1  0.28088057  0.08063186  -0.00929770  1
  H  H191  1  0.41831220  0.91099172  0.01443682  1
  Pb  Pb192  1  0.25024017  0.04631632  0.75263776  1
  Pb  Pb193  1  0.25003696  0.38156661  0.75754518  1
  Pb  Pb194  1  0.24357619  0.71446705  0.75347386  1
  Pb  Pb195  1  0.74945774  0.04710935  0.75239424  1
  Pb  Pb196  1  0.74885588  0.38041708  0.74184277  1
  Pb  Pb197  1  0.74649097  0.71269633  0.74858025  1
  Pb  Pb198  1  0.25072856  0.28652496  0.24710318  1
  Pb  Pb199  1  0.25050222  0.61569776  0.24915863  1
  Pb  Pb200  1  0.25230543  0.95442776  0.25518092  1
  Pb  Pb201  1  0.74711638  0.28515502  0.25171972  1
  Pb  Pb202  1  0.75279531  0.62090239  0.25451804  1
  Pb  Pb203  1  0.74801002  0.95062846  0.24593682  1
  Pb  Pb204  1  -0.00019611  0.21424335  0.74897988  1
  Pb  Pb205  1  -0.00347035  0.54596917  0.75340412  1
  Pb  Pb206  1  -0.00222959  0.88097260  0.73930690  1
  Pb  Pb207  1  0.49932151  0.21382767  0.74907255  1
  Pb  Pb208  1  0.50052961  0.55018468  0.74192500  1
  Pb  Pb209  1  0.50011215  0.87851617  0.76289231  1
  Pb  Pb210  1  -0.00023304  0.11993594  0.25327328  1
  Pb  Pb211  1  -0.00526300  0.45031026  0.24776758  1
  Pb  Pb212  1  0.00581298  0.78658106  0.24622159  1
  Pb  Pb213  1  0.50038985  0.12025465  0.23753321  1
  Pb  Pb214  1  0.50205991  0.45424611  0.25202529  1
  Pb  Pb215  1  0.50363692  0.78598624  0.25010186  1
  C  C216  1  0.00080234  0.04712797  0.63068315  1
  C  C217  1  0.00379233  0.37793767  0.62887544  1
  C  C218  1  -0.00950970  0.71270371  0.62912470  1
  C  C219  1  0.50054402  0.04542208  0.63101697  1
  C  C220  1  0.50559399  0.37889692  0.62665531  1
  C  C221  1  0.49539842  0.71403870  0.63027232  1
  C  C222  1  -0.00480825  0.28691032  0.13564920  1
  C  C223  1  0.00217515  0.62119018  0.13386208  1
  C  C224  1  0.00009176  0.95314912  0.13309798  1
  C  C225  1  0.50079204  0.28775487  0.13257158  1
  C  C226  1  0.49607435  0.62230406  0.13528634  1
  C  C227  1  0.50548617  0.95187439  0.13554978  1
  C  C228  1  0.00118548  0.04633628  0.87000217  1
  C  C229  1  -0.00178895  0.37880436  0.86861076  1
  C  C230  1  -0.00508020  0.71136706  0.86987313  1
  C  C231  1  0.50386863  0.04801098  0.86377183  1
  C  C232  1  0.49541029  0.37978222  0.86353593  1
  C  C233  1  0.49506924  0.71249620  0.86952458  1
  C  C234  1  0.00065915  0.28555775  0.37363720  1
  C  C235  1  0.00710734  0.62072020  0.36796151  1
  C  C236  1  -0.00556909  0.95700511  0.36962580  1
  C  C237  1  0.49861592  0.28924435  0.36588297  1
  C  C238  1  0.50168574  0.62333925  0.37049822  1
  C  C239  1  0.49296734  0.95716064  0.37079124  1
  C  C240  1  0.24949074  0.21149440  0.63105157  1
  C  C241  1  0.24936122  0.54330004  0.63051223  1
  C  C242  1  0.25678527  0.87860126  0.63223653  1
  C  C243  1  0.75048681  0.21100872  0.63020764  1
  C  C244  1  0.74678244  0.54633598  0.63014764  1
  C  C245  1  0.75362308  0.87941607  0.62925544  1
  C  C246  1  0.25041300  0.12026005  0.12956287  1
  C  C247  1  0.25013319  0.45505814  0.13369513  1
  C  C248  1  0.25815335  0.78765369  0.12991420  1
  C  C249  1  0.74302317  0.12074457  0.13476574  1
  C  C250  1  0.75253025  0.45447816  0.12967158  1
  C  C251  1  0.75444759  0.78553287  0.12823288  1
  C  C252  1  0.25204883  0.21491811  0.86803885  1
  C  C253  1  0.25041806  0.54716898  0.86480173  1
  C  C254  1  0.24929871  0.88042513  0.86736919  1
  C  C255  1  0.75127968  0.21360116  0.86413043  1
  C  C256  1  0.75155815  0.54485062  0.86978578  1
  C  C257  1  0.74467883  0.87759433  0.86631562  1
  C  C258  1  0.25003876  0.12174801  0.36860856  1
  C  C259  1  0.24694541  0.45300136  0.37224436  1
  C  C260  1  0.25185780  0.78687815  0.36522940  1
  C  C261  1  0.75098080  0.12067265  0.37008642  1
  C  C262  1  0.74532576  0.45495793  0.37061517  1
  C  C263  1  0.75487820  0.78882552  0.36811539  1
  C  C264  1  0.18524258  0.57371107  0.54698052  1
  C  C265  1  0.81874978  0.76392639  0.45486643  1
  C  C266  1  0.27662901  0.24286091  0.53708489  1
  C  C267  1  0.70817547  0.23784940  0.53670879  1
  C  C268  1  0.78952180  0.57401328  0.96279655  1
  C  C269  1  0.21665907  0.24134813  0.96241360  1
  C  C270  1  0.51553878  0.74089519  0.53328471  1
  C  C271  1  0.18051174  0.09325220  0.04697252  1
  C  C272  1  0.93838184  0.40871303  0.95527853  1
  C  C273  1  0.46364781  0.26177459  0.45891503  1
  C  C274  1  0.43509434  0.73856801  0.54239308  1
  C  C275  1  0.51925104  0.74154751  0.96473253  1
  C  C276  1  0.27437726  0.41960883  0.46678904  1
  C  C277  1  0.02197441  0.59151810  0.03884947  1
  C  C278  1  0.56091236  0.59275390  0.45702669  1
  C  C279  1  0.52496160  0.26067435  0.03742005  1
  C  C280  1  0.46004894  0.40712222  0.53656790  1
  C  C281  1  0.03633830  0.07972355  0.53952707  1
  C  C282  1  0.22716075  0.75827045  0.45994756  1
  C  C283  1  0.29305991  0.57034510  0.95879291  1
  C  C284  1  0.21635430  0.09023552  0.46060602  1
  C  C285  1  0.78976232  0.23758021  0.53652773  1
  C  C286  1  0.81227190  0.75984935  0.03916930  1
  C  C287  1  0.24016687  0.91005862  0.53655047  1
  C  C288  1  0.97211252  0.25168621  0.46790645  1
  C  C289  1  0.06212188  0.92901260  0.04567741  1
  C  C290  1  0.54079756  0.40758334  0.53401154  1
  C  C291  1  0.21113366  0.57060914  0.95961551  1
  C  C292  1  0.44764814  0.92660227  0.46044270  1
  C  C293  1  0.73774913  0.76049531  0.46535839  1
  C  C294  1  0.93126447  0.73876394  0.95532602  1
  C  C295  1  0.04303262  0.59267121  0.46140742  1
  C  C296  1  0.98107161  0.92744681  0.03539762  1
  C  C297  1  0.73029583  0.09502532  0.03772635  1
  C  C298  1  0.01540314  0.74470932  0.53371016  1
  C  C299  1  0.26215698  0.90678231  0.96591893  1
  C  C300  1  0.18248427  0.90423036  0.95261889  1
  C  C301  1  0.71359851  0.89967620  0.96269798  1
  C  C302  1  0.47970945  0.59481620  0.03906458  1
  C  C303  1  0.78117278  0.09157337  0.46354664  1
  C  C304  1  0.46007981  0.06879301  0.95727536  1
  C  C305  1  0.96433445  0.26081396  0.04134758  1
  C  C306  1  0.97116199  0.07580394  0.96458714  1
  C  C307  1  0.53725564  0.92893197  0.03959406  1
  C  C308  1  0.70801304  0.57492242  0.96193577  1
  C  C309  1  0.30987828  0.42714599  0.04764844  1
  C  C310  1  0.73142640  0.75859140  0.03181337  1
  C  C311  1  0.07184438  0.40544988  0.54562877  1
  N  N312  1  0.44203499  0.73893839  0.95993981  1
  N  N313  1  0.45786491  0.93040240  0.04448220  1
  N  N314  1  0.71166103  0.90578062  0.53934562  1
  N  N315  1  0.80827271  0.09562364  0.04877048  1
  N  N316  1  0.23100321  0.42383452  0.03947130  1
  N  N317  1  0.31487336  0.76773479  0.04221105  1
  N  N318  1  0.00926414  0.74335030  0.96420121  1
  N  N319  1  0.70388429  0.09151709  0.46150982  1
  N  N320  1  0.93698768  0.74102727  0.54093953  1
  N  N321  1  0.05044860  0.07436121  0.95884298  1
  N  N322  1  0.46119396  0.07620407  0.53900059  1
  N  N323  1  0.79135028  0.24145840  0.95702269  1
  N  N324  1  0.78942731  0.90798581  0.53530837  1
  N  N325  1  0.54291559  0.26184534  0.45863869  1
  N  N326  1  0.94345449  0.59365401  0.04617260  1
  N  N327  1  0.48271340  0.58967643  0.46367281  1
  N  N328  1  0.76644320  0.42352704  0.46309846  1
  N  N329  1  0.26386090  0.57656998  0.53646235  1
  N  N330  1  0.31828985  0.90628526  0.54791672  1
  N  N331  1  0.53982815  0.06894773  0.95814330  1
  N  N332  1  0.25776315  0.08904522  0.03438377  1
  N  N333  1  0.79132192  0.57247139  0.54088619  1
  N  N334  1  0.96501539  0.59271674  0.46173904  1
  N  N335  1  0.53730416  0.07563014  0.53819575  1
  N  N336  1  0.71450557  0.24098807  0.95801100  1
  N  N337  1  0.19906721  0.24053999  0.54060794  1
  N  N338  1  0.93869816  0.92464962  0.45576700  1
  N  N339  1  0.19611889  0.42320149  0.46013112  1
  N  N340  1  0.71341611  0.42796360  0.03898268  1
  N  N341  1  0.23751952  0.75531040  0.03679174  1
  N  N342  1  0.04374388  0.26089259  0.04361629  1
  N  N343  1  0.99437995  0.40983062  0.53396515  1
  N  N344  1  0.53749212  0.40558295  0.95652582  1
  N  N345  1  0.05059092  0.25501983  0.46119968  1
  N  N346  1  0.01651871  0.40826660  0.96339366  1
  N  N347  1  0.52513143  0.92324681  0.46476989  1
  N  N348  1  0.71343249  0.57345985  0.53525891  1
  N  N349  1  0.01627090  0.92359859  0.46132206  1
  N  N350  1  0.44581832  0.26101211  0.04288971  1
  N  N351  1  0.95904978  0.07912114  0.53861010  1
  N  N352  1  0.46084225  0.40650436  0.95809920  1
  N  N353  1  0.68905811  0.42776550  0.45847892  1
  N  N354  1  0.79143202  0.42681305  0.03611300  1
  N  N355  1  0.55790167  0.59796439  0.04773713  1
  N  N356  1  0.29379257  0.08990643  0.46009882  1
  N  N357  1  0.30583815  0.75966298  0.45431972  1
  N  N358  1  0.79272490  0.90231268  0.95635104  1
  N  N359  1  0.29626980  0.23983764  0.95923558  1
  N  N360  1  0.06490140  0.06049514  0.59493910  1
  N  N361  1  0.07793237  0.38728326  0.60503581  1
  N  N362  1  0.04882892  0.72724971  0.58788117  1
  N  N363  1  0.56340088  0.05647158  0.59509460  1
  N  N364  1  0.56883572  0.39061801  0.58896275  1
  N  N365  1  0.55197786  0.72597363  0.58623917  1
  N  N366  1  0.43274011  0.27776122  0.10266601  1
  N  N367  1  0.44011826  0.60967023  0.09244848  1
  N  N368  1  0.43851665  0.94139203  0.10456564  1
  N  N369  1  0.93312123  0.27668014  0.09741231  1
  N  N370  1  0.93288276  0.61208817  0.10510232  1
  N  N371  1  0.94352533  0.94240247  0.09025685  1
  N  N372  1  0.43754624  0.05436390  0.89918170  1
  N  N373  1  0.43353956  0.39070553  0.90051468  1
  N  N374  1  0.42660996  0.72097561  0.89913479  1
  N  N375  1  0.94021006  0.05886832  0.90930577  1
  N  N376  1  0.92682293  0.39097109  0.89649834  1
  N  N377  1  0.92210931  0.72051416  0.89630920  1
  N  N378  1  0.06882233  0.27638968  0.40328183  1
  N  N379  1  0.07088956  0.60877155  0.40440788  1
  N  N380  1  0.05191593  0.94563534  0.41026050  1
  N  N381  1  0.56302747  0.27923053  0.40048064  1
  N  N382  1  0.57293045  0.61292814  0.39914520  1
  N  N383  1  0.55325470  0.94286419  0.40748572  1
  N  N384  1  0.30957278  0.22552459  0.59175588  1
  N  N385  1  0.30320907  0.55448512  0.58693502  1
  N  N386  1  0.32804627  0.88589871  0.60641441  1
  N  N387  1  0.81504328  0.22158250  0.59303121  1
  N  N388  1  0.81313766  0.55720187  0.59850163  1
  N  N389  1  0.81517032  0.89119273  0.59158816  1
  N  N390  1  0.17596291  0.11121049  0.10635547  1
  N  N391  1  0.19416826  0.44419615  0.09162484  1
  N  N392  1  0.20179595  0.77801051  0.08762778  1
  N  N393  1  0.68859556  0.10990700  0.09016950  1
  N  N394  1  0.68809352  0.44395989  0.09565989  1
  N  N395  1  0.69665633  0.77417041  0.08522634  1
  N  N396  1  0.18891377  0.22598413  0.90572969  1
  N  N397  1  0.18592095  0.55636281  0.90076744  1
  N  N398  1  0.17504256  0.88876526  0.89279314  1
  N  N399  1  0.68867533  0.22401527  0.90043717  1
  N  N400  1  0.68560736  0.55665666  0.90277320  1
  N  N401  1  0.68323354  0.88649084  0.90632497  1
  N  N402  1  0.31500501  0.10995352  0.40161925  1
  N  N403  1  0.30624416  0.43835423  0.41270727  1
  N  N404  1  0.31997633  0.77736483  0.39521994  1
  N  N405  1  0.81297342  0.10907212  0.40861681  1
  N  N406  1  0.80272115  0.44166039  0.41068711  1
  N  N407  1  0.82775362  0.78086235  0.39517634  1
  N  N408  1  0.43507388  0.27815757  0.40223040  1
  N  N409  1  0.44487499  0.61044523  0.41124841  1
  N  N410  1  0.42525904  0.94638044  0.40304922  1
  N  N411  1  0.94081827  0.27079731  0.41381866  1
  N  N412  1  0.94299758  0.61049781  0.40221840  1
  N  N413  1  0.92557847  0.94390481  0.39805605  1
  N  N414  1  0.06857243  0.05522370  0.90095277  1
  N  N415  1  0.05460425  0.38803659  0.91070884  1
  N  N416  1  0.04951603  0.72296536  0.91260275  1
  N  N417  1  0.56658493  0.05964698  0.89940041  1
  N  N418  1  0.56001752  0.38870005  0.89821818  1
  N  N419  1  0.55388203  0.72535465  0.91059059  1
  N  N420  1  0.06094298  0.27678350  0.10265283  1
  N  N421  1  0.05994998  0.60788315  0.09252173  1
  N  N422  1  0.07198099  0.94469551  0.10660448  1
  N  N423  1  0.55995421  0.27645134  0.09207100  1
  N  N424  1  0.56632400  0.61500339  0.10768582  1
  N  N425  1  0.56719639  0.94342878  0.09569233  1
  N  N426  1  0.43668082  0.05773895  0.59659957  1
  N  N427  1  0.43851224  0.38999900  0.59322661  1
  N  N428  1  0.42385733  0.72184359  0.60362707  1
  N  N429  1  0.93657602  0.05844802  0.59665491  1
  N  N430  1  0.95182496  0.39004897  0.58450569  1
  N  N431  1  0.92160890  0.72082045  0.60007886  1
  N  N432  1  0.18673451  0.10930410  0.40549630  1
  N  N433  1  0.17854205  0.44441457  0.40183989  1
  N  N434  1  0.19248515  0.77476060  0.40547906  1
  N  N435  1  0.68481483  0.10984615  0.40206071  1
  N  N436  1  0.67626425  0.44602241  0.40042269  1
  N  N437  1  0.69908102  0.77636776  0.41038628  1
  N  N438  1  0.31787040  0.22421943  0.90089250  1
  N  N439  1  0.31624163  0.55600671  0.89944758  1
  N  N440  1  0.30316630  0.89178139  0.91147262  1
  N  N441  1  0.81518684  0.22452650  0.89895531  1
  N  N442  1  0.81565323  0.55623010  0.90726083  1
  N  N443  1  0.81183277  0.88593080  0.89766970  1
  N  N444  1  0.30184024  0.10848513  0.08453997  1
  N  N445  1  0.32182060  0.44501603  0.10655891  1
  N  N446  1  0.32808201  0.77784573  0.10248900  1
  N  N447  1  0.81413510  0.11150800  0.10906526  1
  N  N448  1  0.81529104  0.44384331  0.09286968  1
  N  N449  1  0.82513226  0.77682679  0.10064863  1
  N  N450  1  0.18228793  0.22088368  0.60020267  1
  N  N451  1  0.17665461  0.55508292  0.60607511  1
  N  N452  1  0.20155427  0.89296018  0.58885187  1
  N  N453  1  0.68497228  0.22157083  0.59621042  1
  N  N454  1  0.68628382  0.55676592  0.59113007  1
  N  N455  1  0.68807860  0.88874860  0.59616323  1
  Cl  Cl456  1  0.25128488  0.05101092  0.62173459  1
  Cl  Cl457  1  0.25713872  0.38546274  0.62573991  1
  Cl  Cl458  1  0.23174783  0.72181093  0.61941165  1
  Cl  Cl459  1  0.74849867  0.05325186  0.62072266  1
  Cl  Cl460  1  0.76802159  0.39262890  0.60301669  1
  Cl  Cl461  1  0.73595387  0.72117258  0.61320935  1
  Cl  Cl462  1  0.24707069  0.27753074  0.11100406  1
  Cl  Cl463  1  0.24976127  0.61108530  0.11357907  1
  Cl  Cl464  1  0.25780698  0.94931512  0.12129476  1
  Cl  Cl465  1  0.74504608  0.28294365  0.11992743  1
  Cl  Cl466  1  0.74948928  0.61708625  0.12343885  1
  Cl  Cl467  1  0.75478448  0.93938585  0.10780245  1
  Cl  Cl468  1  0.25514617  0.05991373  0.89465587  1
  Cl  Cl469  1  0.24108751  0.39297853  0.89912745  1
  Cl  Cl470  1  0.23466913  0.73095686  0.89506422  1
  Cl  Cl471  1  0.75122155  0.05226709  0.88970385  1
  Cl  Cl472  1  0.74238625  0.39171567  0.87585655  1
  Cl  Cl473  1  0.73852922  0.71981791  0.87998718  1
  Cl  Cl474  1  0.25095878  0.28208161  0.37888841  1
  Cl  Cl475  1  0.25957932  0.60300409  0.39430102  1
  Cl  Cl476  1  0.23648995  0.94468768  0.39100917  1
  Cl  Cl477  1  0.75323973  0.27876852  0.38685932  1
  Cl  Cl478  1  0.75849944  0.61310793  0.38730209  1
  Cl  Cl479  1  0.73806709  0.94450694  0.38006844  1
  Cl  Cl480  1  -0.00100492  0.22296155  0.61460969  1
  Cl  Cl481  1  -0.00585237  0.54906401  0.62161800  1
  Cl  Cl482  1  0.01386138  0.89119509  0.60135217  1
  Cl  Cl483  1  0.49410210  0.22563362  0.61768517  1
  Cl  Cl484  1  0.48994833  0.55856814  0.60120589  1
  Cl  Cl485  1  0.50818228  0.88352780  0.63104320  1
  Cl  Cl486  1  -0.00304037  0.11162424  0.11843561  1
  Cl  Cl487  1  0.00848149  0.43910280  0.10683882  1
  Cl  Cl488  1  0.02157357  0.76919703  0.10389689  1
  Cl  Cl489  1  0.49727416  0.10649023  0.09622178  1
  Cl  Cl490  1  0.50609751  0.44890492  0.11994317  1
  Cl  Cl491  1  0.51105023  0.78322852  0.11422377  1
  Cl  Cl492  1  0.00083072  0.22127984  0.88281382  1
  Cl  Cl493  1  0.00238320  0.55058223  0.88838353  1
  Cl  Cl494  1  -0.00880211  0.88655367  0.87332159  1
  Cl  Cl495  1  0.50338258  0.21740324  0.88629758  1
  Cl  Cl496  1  0.49923015  0.55658849  0.87533246  1
  Cl  Cl497  1  0.49374100  0.88844718  0.90005089  1
  Cl  Cl498  1  0.00089078  0.11667928  0.38430257  1
  Cl  Cl499  1  -0.01272489  0.43834166  0.39466224  1
  Cl  Cl500  1  0.01074292  0.77934565  0.37864796  1
  Cl  Cl501  1  0.49893935  0.11368684  0.36856724  1
  Cl  Cl502  1  0.49044033  0.45168894  0.38456260  1
  Cl  Cl503  1  0.50983331  0.77875355  0.38172092  1
  Cl  Cl504  1  0.35815989  0.14755583  0.75754161  1
  Cl  Cl505  1  0.35461153  0.48083986  0.75326309  1
  Cl  Cl506  1  0.35744749  0.81340565  0.74802036  1
  Cl  Cl507  1  0.86140365  0.14769477  0.74779249  1
  Cl  Cl508  1  0.85767724  0.48234314  0.75216836  1
  Cl  Cl509  1  0.85977022  0.81287573  0.74618924  1
  Cl  Cl510  1  0.13726991  0.18769825  0.24301031  1
  Cl  Cl511  1  0.14221518  0.52054209  0.25824997  1
  Cl  Cl512  1  0.14565148  0.85093861  0.24598559  1
  Cl  Cl513  1  0.64009361  0.18603259  0.25284538  1
  Cl  Cl514  1  0.64303192  0.51873922  0.25382910  1
  Cl  Cl515  1  0.64642890  0.85093287  0.24439654  1
  Cl  Cl516  1  0.13730422  0.14609348  0.75130400  1
  Cl  Cl517  1  0.13492817  0.47954420  0.74472728  1
  Cl  Cl518  1  0.13528518  0.81630652  0.75364356  1
  Cl  Cl519  1  0.63844290  0.14828763  0.75388310  1
  Cl  Cl520  1  0.63841024  0.48339551  0.74406680  1
  Cl  Cl521  1  0.64116988  0.81692601  0.74986813  1
  Cl  Cl522  1  0.36050055  0.18509069  0.24453343  1
  Cl  Cl523  1  0.36055686  0.51743903  0.24672148  1
  Cl  Cl524  1  0.36459136  0.85323010  0.24864737  1
  Cl  Cl525  1  0.86258030  0.18625426  0.24346138  1
  Cl  Cl526  1  0.86206199  0.51762279  0.24662764  1
  Cl  Cl527  1  0.86761844  0.85319907  0.24834552  1
  Cl  Cl528  1  0.11229551  0.31411864  0.74624176  1
  Cl  Cl529  1  0.10628817  0.64759585  0.75187634  1
  Cl  Cl530  1  0.11090956  0.98005172  0.75711910  1
  Cl  Cl531  1  0.60866267  0.31604916  0.74765578  1
  Cl  Cl532  1  0.59967503  0.65063536  0.74575946  1
  Cl  Cl533  1  0.61051910  0.98024946  0.75848787  1
  Cl  Cl534  1  0.39045149  0.01899143  0.24656932  1
  Cl  Cl535  1  0.38773942  0.35435159  0.24064635  1
  Cl  Cl536  1  0.38888105  0.68722918  0.25370340  1
  Cl  Cl537  1  0.89473005  0.01877188  0.25172291  1
  Cl  Cl538  1  0.89694859  0.35332433  0.25519863  1
  Cl  Cl539  1  0.89289714  0.68697076  0.24929398  1
  Cl  Cl540  1  0.38548737  0.31348150  0.75457510  1
  Cl  Cl541  1  0.37943507  0.64597820  0.75134833  1
  Cl  Cl542  1  0.38818135  0.97932353  0.75216951  1
  Cl  Cl543  1  0.88889499  0.31582962  0.75349571  1
  Cl  Cl544  1  0.88651530  0.64810027  0.75034667  1
  Cl  Cl545  1  0.88955455  0.98256718  0.75031414  1
  Cl  Cl546  1  0.11471494  0.02086171  0.24423803  1
  Cl  Cl547  1  0.11643361  0.35586433  0.25064184  1
  Cl  Cl548  1  0.11473447  0.68450719  0.25150049  1
  Cl  Cl549  1  0.61142954  0.01864659  0.24655900  1
  Cl  Cl550  1  0.60863270  0.35070862  0.25507501  1
  Cl  Cl551  1  0.61232641  0.68338224  0.25117441  1
