# generated using pymatgen
data_H8PbC4(N3Cl2)2
_symmetry_space_group_name_H-M   'P 1'
_cell_length_a   16.63299597
_cell_length_b   22.52780045
_cell_length_c   21.59858249
_cell_angle_alpha   90.00393023
_cell_angle_beta   90.02597835
_cell_angle_gamma   90.02177199
_symmetry_Int_Tables_number   1
_chemical_formula_structural   H8PbC4(N3Cl2)2
_chemical_formula_sum   'H192 Pb24 C96 N144 Cl96'
_cell_volume   8093.09140192
_cell_formula_units_Z   24
loop_
 _symmetry_equiv_pos_site_id
 _symmetry_equiv_pos_as_xyz
  1  'x, y, z'
loop_
 _atom_site_type_symbol
 _atom_site_label
 _atom_site_symmetry_multiplicity
 _atom_site_fract_x
 _atom_site_fract_y
 _atom_site_fract_z
 _atom_site_occupancy
  H  H0  1  0.01027924  0.03242592  0.67925870  1
  H  H1  1  -0.01366410  0.36292848  0.67203933  1
  H  H2  1  0.00413436  0.68913813  0.68152795  1
  H  H3  1  0.48953010  0.03211555  0.68185158  1
  H  H4  1  0.49251826  0.36922741  0.68055628  1
  H  H5  1  0.49095128  0.69741441  0.68315234  1
  H  H6  1  -0.00377705  0.30139876  0.17220221  1
  H  H7  1  0.01579064  0.63914736  0.17715466  1
  H  H8  1  0.00810328  0.96876421  0.17665986  1
  H  H9  1  0.50852487  0.30302540  0.17559874  1
  H  H10  1  0.48510140  0.63511948  0.17462428  1
  H  H11  1  0.48751615  0.97151457  0.17647793  1
  H  H12  1  0.00413590  0.01923031  0.82186804  1
  H  H13  1  0.03413126  0.35705924  0.84346289  1
  H  H14  1  -0.00576367  0.70055952  0.81814176  1
  H  H15  1  0.50117637  0.02635660  0.82265717  1
  H  H16  1  0.53213770  0.35902248  0.84386094  1
  H  H17  1  0.49811253  0.69504349  0.82040747  1
  H  H18  1  0.00295425  0.30447627  0.32668129  1
  H  H19  1  -0.01254237  0.63506755  0.32366238  1
  H  H20  1  -0.01352401  0.97467900  0.31927578  1
  H  H21  1  0.49023606  0.30753070  0.32569759  1
  H  H22  1  0.51197609  0.63298922  0.32262299  1
  H  H23  1  0.51821023  0.97122439  0.32310983  1
  H  H24  1  0.26161469  0.19754314  0.67803726  1
  H  H25  1  0.23489815  0.52586842  0.67338893  1
  H  H26  1  0.23563267  0.86149852  0.67789065  1
  H  H27  1  0.74144117  0.19366584  0.67579965  1
  H  H28  1  0.76247376  0.52926953  0.67748306  1
  H  H29  1  0.76113835  0.85649026  0.68116568  1
  H  H30  1  0.22758847  0.14042998  0.17944146  1
  H  H31  1  0.21473448  0.46297421  0.16228351  1
  H  H32  1  0.25763825  0.81161121  0.17634073  1
  H  H33  1  0.76410773  0.14143365  0.17456014  1
  H  H34  1  0.71517281  0.46519969  0.16216617  1
  H  H35  1  0.74844471  0.81043313  0.17421841  1
  H  H36  1  0.24180263  0.19566399  0.81972533  1
  H  H37  1  0.23881630  0.53161717  0.81602975  1
  H  H38  1  0.25644022  0.85745087  0.82657003  1
  H  H39  1  0.75662555  0.19725798  0.82118767  1
  H  H40  1  0.76307520  0.53031312  0.82714236  1
  H  H41  1  0.74446136  0.86293052  0.82262727  1
  H  H42  1  0.25916028  0.13252589  0.31537437  1
  H  H43  1  0.24544908  0.47906928  0.32646146  1
  H  H44  1  0.25366806  0.80376140  0.31748938  1
  H  H45  1  0.74808327  0.14267492  0.32397574  1
  H  H46  1  0.74894774  0.46935494  0.32170129  1
  H  H47  1  0.74838839  0.80057782  0.31599141  1
  H  H48  1  0.13002706  0.05728083  0.60502809  1
  H  H49  1  0.12659759  0.38561410  0.62132995  1
  H  H50  1  0.13360099  0.71628970  0.61594872  1
  H  H51  1  0.63067389  0.04863207  0.63317016  1
  H  H52  1  0.62558296  0.38680126  0.61622579  1
  H  H53  1  0.63164866  0.71146816  0.63204359  1
  H  H54  1  0.37241128  0.28444315  0.12092427  1
  H  H55  1  0.38358796  0.60606976  0.08717505  1
  H  H56  1  0.37212499  0.94315658  0.10039520  1
  H  H57  1  0.87342600  0.27886082  0.10301181  1
  H  H58  1  0.87598931  0.61766256  0.12462296  1
  H  H59  1  0.87108477  0.94793021  0.11823842  1
  H  H60  1  0.37988303  0.05426059  0.89604536  1
  H  H61  1  0.42069833  0.39572499  0.91894707  1
  H  H62  1  0.38626671  0.72415459  0.89921206  1
  H  H63  1  0.88054958  0.05386104  0.88970550  1
  H  H64  1  0.92177134  0.39397286  0.91798578  1
  H  H65  1  0.88438480  0.72431713  0.89915124  1
  H  H66  1  0.13135477  0.28259970  0.39396531  1
  H  H67  1  0.11844144  0.61036836  0.38715742  1
  H  H68  1  0.11594536  0.95548522  0.38643346  1
  H  H69  1  0.63532615  0.28684685  0.36954417  1
  H  H70  1  0.61758515  0.60683104  0.40567447  1
  H  H71  1  0.61603173  0.94179150  0.41224232  1
  H  H72  1  0.35804311  0.22945596  0.58880516  1
  H  H73  1  0.37267160  0.54765387  0.61795068  1
  H  H74  1  0.37469448  0.88451040  0.62749955  1
  H  H75  1  0.86159597  0.22496785  0.60376094  1
  H  H76  1  0.88024680  0.55671491  0.60320744  1
  H  H77  1  0.88116008  0.89106418  0.61232459  1
  H  H78  1  0.12711567  0.11364530  0.09310386  1
  H  H79  1  0.08153983  0.44305989  0.10223245  1
  H  H80  1  0.11839640  0.78428647  0.12579481  1
  H  H81  1  0.62050005  0.12190355  0.12710896  1
  H  H82  1  0.58161281  0.44293770  0.10346941  1
  H  H83  1  0.61483463  0.78129686  0.11739800  1
  H  H84  1  0.13269202  0.22433540  0.90228036  1
  H  H85  1  0.12995774  0.55726037  0.89919060  1
  H  H86  1  0.12814826  0.88782130  0.89024457  1
  H  H87  1  0.63032517  0.22268133  0.89088063  1
  H  H88  1  0.62406887  0.54898469  0.88321578  1
  H  H89  1  0.62948443  0.89059553  0.89902417  1
  H  H90  1  0.36940933  0.11117864  0.39680947  1
  H  H91  1  0.36521829  0.44470864  0.39689678  1
  H  H92  1  0.36712843  0.77636655  0.39415839  1
  H  H93  1  0.87357636  0.11275435  0.38924252  1
  H  H94  1  0.87273493  0.44794310  0.39254219  1
  H  H95  1  0.86756604  0.77706082  0.39320144  1
  H  H96  1  0.39414893  0.27280830  0.41318275  1
  H  H97  1  0.37207930  0.61457956  0.37382212  1
  H  H98  1  0.37458483  0.94886769  0.36794522  1
  H  H99  1  0.88364134  0.27670894  0.39984797  1
  H  H100  1  0.86998252  0.60718326  0.39866021  1
  H  H101  1  0.86956336  0.93916327  0.39086211  1
  H  H102  1  0.12954470  0.05029026  0.88683563  1
  H  H103  1  0.16955765  0.38453002  0.89978781  1
  H  H104  1  0.13091792  0.71859283  0.87351417  1
  H  H105  1  0.62770183  0.05349556  0.89166205  1
  H  H106  1  0.66781022  0.38602842  0.89955693  1
  H  H107  1  0.63347166  0.71938275  0.88008121  1
  H  H108  1  0.12212966  0.27795695  0.10693863  1
  H  H109  1  0.12151038  0.60747374  0.09399289  1
  H  H110  1  0.11745602  0.94003518  0.09513577  1
  H  H111  1  0.61860124  0.27491136  0.09602241  1
  H  H112  1  0.62724803  0.61864115  0.12399256  1
  H  H113  1  0.61996420  0.95020678  0.11781379  1
  H  H114  1  0.38692617  0.05931945  0.59699543  1
  H  H115  1  0.37841123  0.39217179  0.59982185  1
  H  H116  1  0.38706418  0.72302689  0.59930013  1
  H  H117  1  0.88206205  0.05655905  0.61174646  1
  H  H118  1  0.88230727  0.39784056  0.59021703  1
  H  H119  1  0.88457225  0.71627846  0.60841577  1
  H  H120  1  0.12244280  0.11623784  0.37180709  1
  H  H121  1  0.11723173  0.45029269  0.39223978  1
  H  H122  1  0.11948893  0.78334912  0.37563810  1
  H  H123  1  0.62511425  0.11414168  0.39429468  1
  H  H124  1  0.62380633  0.44792312  0.38949926  1
  H  H125  1  0.61942642  0.77938706  0.38449977  1
  H  H126  1  0.37892324  0.21742876  0.87615381  1
  H  H127  1  0.37669527  0.54682388  0.87576206  1
  H  H128  1  0.37667501  0.89051346  0.89643692  1
  H  H129  1  0.87881995  0.22435202  0.89449906  1
  H  H130  1  0.86863660  0.55924415  0.91230982  1
  H  H131  1  0.87724955  0.88710613  0.88355012  1
  H  H132  1  0.36988941  0.12080028  0.13311776  1
  H  H133  1  0.32958397  0.43801874  0.08608942  1
  H  H134  1  0.36355465  0.77909297  0.09421437  1
  H  H135  1  0.86269501  0.10937418  0.08761669  1
  H  H136  1  0.82973950  0.43822752  0.08590145  1
  H  H137  1  0.86209220  0.77613884  0.09837735  1
  H  H138  1  0.11766076  0.21656565  0.63009897  1
  H  H139  1  0.12660006  0.56011206  0.59417485  1
  H  H140  1  0.13059085  0.88939738  0.59220728  1
  H  H141  1  0.61395120  0.22130020  0.60786168  1
  H  H142  1  0.63154966  0.55057864  0.61158096  1
  H  H143  1  0.63273258  0.88294392  0.61430340  1
  H  H144  1  0.79481873  0.74528170  -0.00324486  1
  H  H145  1  0.38816848  0.58774156  0.48913378  1
  H  H146  1  0.93208106  0.07918480  0.99550511  1
  H  H147  1  0.30652499  0.74133719  0.49982750  1
  H  H148  1  0.14540282  0.74679906  0.48637616  1
  H  H149  1  0.53039829  0.91823763  0.50940944  1
  H  H150  1  0.54788603  0.57979604  0.51018655  1
  H  H151  1  0.20097114  0.58518676  1.00246298  1
  H  H152  1  0.95046455  0.75213403  1.00553434  1
  H  H153  1  0.63421326  0.08377334  0.02126721  1
  H  H154  1  0.94065702  0.74537076  0.50053602  1
  H  H155  1  0.61829095  0.74036720  0.51742382  1
  H  H156  1  0.98430880  0.42017629  1.02196285  1
  H  H157  1  0.61962529  0.07860706  0.51878861  1
  H  H158  1  0.92691772  0.08230670  0.50548731  1
  H  H159  1  0.46129763  0.08919942  0.49430119  1
  H  H160  1  0.77320057  0.40808344  -0.02200196  1
  H  H161  1  0.20455479  0.08756774  -0.01014957  1
  H  H162  1  0.59095632  0.91632975  0.00423799  1
  H  H163  1  0.67916216  0.90527970  0.50708763  1
  H  H164  1  0.45332511  0.75503039  1.00358234  1
  H  H165  1  0.90122918  0.91847634  0.01073100  1
  H  H166  1  0.30413655  0.08264873  0.50326215  1
  H  H167  1  0.27307368  0.25211192  0.49247881  1
  H  H168  1  0.64691289  0.58329826  0.99130383  1
  H  H169  1  0.11102389  0.74616325  0.98857117  1
  H  H170  1  0.28739176  0.75331667  -0.00594600  1
  H  H171  1  0.45945414  0.75025546  0.49453836  1
  H  H172  1  0.94389952  0.87878792  0.47026635  1
  H  H173  1  0.77840448  0.09410008  -0.00922014  1
  H  H174  1  0.82907516  0.93489598  0.50947133  1
  H  H175  1  0.36177887  0.08816890  0.01997398  1
  H  H176  1  0.44504311  0.41994720  0.49877774  1
  H  H177  1  0.09093988  0.24758183  0.49762423  1
  H  H178  1  0.39264752  0.25034320  0.00649807  1
  H  H179  1  0.27426515  0.40969867  -0.02269214  1
  H  H180  1  0.16139949  0.42114713  0.49681262  1
  H  H181  1  0.14434740  0.08934163  0.48624416  1
  H  H182  1  0.65630585  0.24931997  0.50126720  1
  H  H183  1  0.48425016  0.42106377  1.02318155  1
  H  H184  1  0.05840769  0.95303501  0.49438749  1
  H  H185  1  0.08385228  0.08623155  0.99616015  1
  H  H186  1  0.94245509  0.26058917  0.50529735  1
  H  H187  1  0.35831062  0.91338497  0.51188560  1
  H  H188  1  0.66650128  0.42041472  0.50207435  1
  H  H189  1  0.04507426  0.57939978  -0.00476601  1
  H  H190  1  0.20599024  0.90915473  0.49249083  1
  H  H191  1  0.47863728  0.24901999  0.50980738  1
  Pb  Pb192  1  0.25880929  0.05171729  0.74555155  1
  Pb  Pb193  1  0.26445029  0.38413867  0.74939589  1
  Pb  Pb194  1  0.26085507  0.71597334  0.75154679  1
  Pb  Pb195  1  0.76079098  0.05191400  0.75456756  1
  Pb  Pb196  1  0.76265712  0.38329970  0.74832208  1
  Pb  Pb197  1  0.76282427  0.71663217  0.75689152  1
  Pb  Pb198  1  0.24160795  0.28342607  0.25990803  1
  Pb  Pb199  1  0.24139439  0.61482350  0.23787030  1
  Pb  Pb200  1  0.23909343  0.94881689  0.24941384  1
  Pb  Pb201  1  0.74650258  0.28596429  0.24745460  1
  Pb  Pb202  1  0.73990501  0.61293325  0.25793971  1
  Pb  Pb203  1  0.73932351  0.95052794  0.26105099  1
  Pb  Pb204  1  0.00658564  0.22040229  0.75075253  1
  Pb  Pb205  1  0.00787706  0.54787640  0.75446570  1
  Pb  Pb206  1  0.00961753  0.88318046  0.74073081  1
  Pb  Pb207  1  0.50770782  0.21807473  0.74378042  1
  Pb  Pb208  1  0.51186526  0.54864646  0.74875753  1
  Pb  Pb209  1  0.50958443  0.88362094  0.74960869  1
  Pb  Pb210  1  -0.01099617  0.11564574  0.24126465  1
  Pb  Pb211  1  -0.01184318  0.44907881  0.24636744  1
  Pb  Pb212  1  -0.01364244  0.77999882  0.25161734  1
  Pb  Pb213  1  0.49444368  0.11922663  0.25765023  1
  Pb  Pb214  1  0.48645645  0.44871309  0.25225667  1
  Pb  Pb215  1  0.48947449  0.78059976  0.24839797  1
  C  C216  1  0.00724544  0.04844377  0.63189462  1
  C  C217  1  -0.00116007  0.38145025  0.62700548  1
  C  C218  1  0.00765410  0.70723954  0.63502650  1
  C  C219  1  0.50311015  0.04695447  0.63514399  1
  C  C220  1  0.49857866  0.38268866  0.63258849  1
  C  C221  1  0.50390827  0.71091004  0.63585505  1
  C  C222  1  -0.00266694  0.28562234  0.12459339  1
  C  C223  1  0.00466689  0.62222436  0.13101987  1
  C  C224  1  -0.00149767  0.95295544  0.12980940  1
  C  C225  1  0.49894808  0.28741392  0.12870724  1
  C  C226  1  0.49853866  0.62017428  0.12812281  1
  C  C227  1  0.49392606  0.95546280  0.12948851  1
  C  C228  1  0.00401556  0.03906264  0.86771308  1
  C  C229  1  0.04156813  0.37693842  0.88897278  1
  C  C230  1  0.00381623  0.71412099  0.86584831  1
  C  C231  1  0.50307255  0.04308939  0.86980680  1
  C  C232  1  0.53995927  0.37840840  0.88962672  1
  C  C233  1  0.50637356  0.71177291  0.86703479  1
  C  C234  1  0.00622612  0.28799587  0.37392582  1
  C  C235  1  -0.00780397  0.61863264  0.37050608  1
  C  C236  1  -0.00923388  0.95755726  0.36611009  1
  C  C237  1  0.50654124  0.29066377  0.37103229  1
  C  C238  1  0.49993550  0.61859249  0.36970304  1
  C  C239  1  0.50297192  0.95576163  0.36925791  1
  C  C240  1  0.24574326  0.21276427  0.63194906  1
  C  C241  1  0.24503645  0.54399580  0.62784240  1
  C  C242  1  0.24702568  0.87678971  0.63088503  1
  C  C243  1  0.73825449  0.21162591  0.62929648  1
  C  C244  1  0.75781034  0.54511618  0.63040008  1
  C  C245  1  0.75769819  0.87461713  0.63460975  1
  C  C246  1  0.24214206  0.12472726  0.13315661  1
  C  C247  1  0.20827436  0.44836079  0.11455565  1
  C  C248  1  0.24672427  0.79348168  0.13060024  1
  C  C249  1  0.74872681  0.12473899  0.12878719  1
  C  C250  1  0.70849458  0.44883210  0.11503777  1
  C  C251  1  0.74215267  0.79105862  0.12863681  1
  C  C252  1  0.25091497  0.21150226  0.86648278  1
  C  C253  1  0.24871093  0.54577479  0.86346639  1
  C  C254  1  0.25352169  0.87766830  0.87181185  1
  C  C255  1  0.75533727  0.21355559  0.86845412  1
  C  C256  1  0.75165928  0.54667625  0.87360875  1
  C  C257  1  0.75080355  0.87957621  0.86922976  1
  C  C258  1  0.24979878  0.11977183  0.36333114  1
  C  C259  1  0.24218297  0.45921513  0.37206894  1
  C  C260  1  0.24634417  0.78708675  0.36431668  1
  C  C261  1  0.74859339  0.12348783  0.36971460  1
  C  C262  1  0.74783619  0.45532508  0.36959003  1
  C  C263  1  0.74513175  0.78523640  0.36360439  1
  C  C264  1  0.48798543  0.73780781  0.53796801  1
  C  C265  1  0.68652607  0.75395075  0.04337336  1
  C  C266  1  0.31033911  0.90472888  0.54624397  1
  C  C267  1  0.73812176  0.42032127  0.01890076  1
  C  C268  1  0.46409812  0.92471536  0.03507350  1
  C  C269  1  0.43229344  0.92680066  0.45081316  1
  C  C270  1  0.06284460  0.73771368  0.95432532  1
  C  C271  1  0.70681044  0.43009254  0.46390776  1
  C  C272  1  0.59561055  0.41026654  0.97669061  1
  C  C273  1  0.95916955  0.25639949  0.03324180  1
  C  C274  1  0.94105982  0.59033935  0.04677148  1
  C  C275  1  0.19145476  0.75725988  0.45226854  1
  C  C276  1  0.04656287  0.07445695  0.95680094  1
  C  C277  1  0.19159647  0.09738195  0.45237502  1
  C  C278  1  0.44139151  0.25946122  0.04040261  1
  C  C279  1  0.57815373  0.26172023  0.45192452  1
  C  C280  1  0.22607817  0.58051230  0.53512370  1
  C  C281  1  0.98472669  0.41813742  0.53374465  1
  C  C282  1  0.30612743  0.23826349  0.95396672  1
  C  C283  1  0.52234141  0.25614672  0.03360692  1
  C  C284  1  0.27299031  0.09446602  0.46077510  1
  C  C285  1  0.51782724  0.59186700  0.46729223  1
  C  C286  1  0.78833593  0.43035120  0.46348551  1
  C  C287  1  0.72356765  0.91052058  0.96329939  1
  C  C288  1  0.03946382  0.25612705  0.03440843  1
  C  C289  1  0.78914803  0.08929935  0.45952744  1
  C  C290  1  0.56852836  0.73278245  0.54937063  1
  C  C291  1  0.48902745  0.07595781  0.53772525  1
  C  C292  1  0.15585759  0.42279019  0.02323026  1
  C  C293  1  0.23079216  0.57329549  0.95926163  1
  C  C294  1  0.23053255  0.09720011  0.03496404  1
  C  C295  1  0.31029639  0.09813407  0.04948500  1
  C  C296  1  0.79392289  0.91362637  0.54548860  1
  C  C297  1  0.56935241  0.07132830  0.55009146  1
  C  C298  1  0.97653238  0.73556140  0.54148483  1
  C  C299  1  0.09643527  0.40914433  0.97614961  1
  C  C300  1  0.65535549  0.42276987  0.02401982  1
  C  C301  1  0.18385005  0.76041587  0.04714150  1
  C  C302  1  0.78767171  0.57636975  0.53749031  1
  C  C303  1  0.56065297  0.59591054  0.04268298  1
  C  C304  1  0.28585963  0.91620196  0.96106566  1
  C  C305  1  0.48458958  0.74288948  0.96115219  1
  C  C306  1  0.27305546  0.75484484  0.45898468  1
  C  C307  1  0.54557666  0.92671629  0.03947551  1
  C  C308  1  0.23862951  0.42097050  0.01823507  1
  C  C309  1  0.43708572  0.59541193  0.45647966  1
  C  C310  1  0.98152900  0.74037296  0.96294369  1
  C  C311  1  0.96324721  0.58615541  0.46309917  1
  N  N312  1  0.79103810  0.24266731  0.96185587  1
  N  N313  1  1.01617752  0.41419956  0.98031260  1
  N  N314  1  0.26171964  0.75918724  0.03715676  1
  N  N315  1  0.04440084  0.07564001  0.53801112  1
  N  N316  1  0.27943583  0.42481158  0.46339195  1
  N  N317  1  0.03919539  0.92951302  0.45628299  1
  N  N318  1  0.70105059  0.75917587  0.45564524  1
  N  N319  1  0.77720854  0.75810547  0.45849912  1
  N  N320  1  0.71137229  0.08948554  0.46203893  1
  N  N321  1  0.02306947  0.92280395  0.03442903  1
  N  N322  1  0.54445536  0.07053163  0.96225659  1
  N  N323  1  0.47485399  0.40531886  0.53755466  1
  N  N324  1  0.51537706  0.41555608  0.98121384  1
  N  N325  1  0.20117352  0.42647265  0.46020657  1
  N  N326  1  0.50913099  0.92487071  0.46463082  1
  N  N327  1  0.96696365  0.07594472  0.95650123  1
  N  N328  1  0.22967376  0.24093797  0.96376529  1
  N  N329  1  0.20860709  0.91528340  0.96049540  1
  N  N330  1  0.71053607  0.57472842  0.53905581  1
  N  N331  1  0.30914709  0.57052933  0.95158738  1
  N  N332  1  0.76499903  0.75380203  0.03755388  1
  N  N333  1  0.95613564  0.92197993  0.45750783  1
  N  N334  1  0.06119272  0.41379022  0.54249351  1
  N  N335  1  0.55267296  0.40420776  0.54215504  1
  N  N336  1  0.80139659  0.90925512  0.95936651  1
  N  N337  1  0.25171942  0.24289506  0.53728555  1
  N  N338  1  0.17591679  0.23655352  0.54923737  1
  N  N339  1  0.96613524  0.07683654  0.54199398  1
  N  N340  1  0.23195627  0.90634244  0.53570577  1
  N  N341  1  0.94563432  0.92556353  0.04357312  1
  N  N342  1  0.48491887  0.59124537  0.02987798  1
  N  N343  1  0.56332048  0.74277053  0.95441577  1
  N  N344  1  0.75856799  0.08868055  0.03588880  1
  N  N345  1  0.05112482  0.26544700  0.46496655  1
  N  N346  1  0.04044534  0.58748272  0.46096920  1
  N  N347  1  0.01897022  0.58805786  0.03754520  1
  N  N348  1  0.05563150  0.73641790  0.54418876  1
  N  N349  1  0.30279750  0.57639152  0.54204021  1
  N  N350  1  0.50127763  0.25672121  0.46518114  1
  N  N351  1  0.71482719  0.24254859  0.96069564  1
  N  N352  1  0.77570824  0.24308576  0.53712798  1
  N  N353  1  0.69775256  0.24104947  0.53945283  1
  N  N354  1  0.69496434  0.57451472  0.95862260  1
  N  N355  1  0.46813912  0.07189831  0.96340696  1
  N  N356  1  0.97301921  0.25426112  0.46446676  1
  N  N357  1  0.71458123  0.90791844  0.54583907  1
  N  N358  1  0.77178615  0.57713040  0.96949111  1
  N  N359  1  0.68185055  0.10132022  0.04649521  1
  N  N360  1  0.06918869  0.05974180  0.59484111  1
  N  N361  1  0.06996735  0.39077589  0.60201858  1
  N  N362  1  0.07348735  0.71885813  0.60282658  1
  N  N363  1  0.57642502  0.05361757  0.61052557  1
  N  N364  1  0.56669162  0.38904471  0.60095820  1
  N  N365  1  0.57674865  0.71630245  0.61017043  1
  N  N366  1  0.42846705  0.27887496  0.10084457  1
  N  N367  1  0.44601075  0.60688694  0.08440925  1
  N  N368  1  0.43314381  0.94189635  0.08949831  1
  N  N369  1  0.93263248  0.27436862  0.08824219  1
  N  N370  1  0.93206163  0.61072235  0.10488212  1
  N  N371  1  0.92940991  0.94428332  0.10109240  1
  N  N372  1  0.44112241  0.05478672  0.90642433  1
  N  N373  1  0.48174524  0.39171964  0.92909481  1
  N  N374  1  0.44811576  0.72403932  0.90800825  1
  N  N375  1  0.94071066  0.05043189  0.90281473  1
  N  N376  1  0.98301881  0.39082935  0.92792165  1
  N  N377  1  0.94616490  0.72541241  0.90763650  1
  N  N378  1  0.07220050  0.27602189  0.40601826  1
  N  N379  1  0.05875418  0.60838134  0.40207886  1
  N  N380  1  0.05602251  0.95601169  0.40099316  1
  N  N381  1  0.58163902  0.28134827  0.39287247  1
  N  N382  1  0.55562658  0.60648504  0.41286860  1
  N  N383  1  0.55359462  0.94587682  0.41530530  1
  N  N384  1  0.29580326  0.22523046  0.58613574  1
  N  N385  1  0.31505772  0.55363757  0.60074390  1
  N  N386  1  0.31970983  0.88815649  0.60587341  1
  N  N387  1  0.80033515  0.22526620  0.59309102  1
  N  N388  1  0.81951585  0.55859918  0.59227600  1
  N  N389  1  0.82077502  0.89370865  0.60057534  1
  N  N390  1  0.18896225  0.11372240  0.08768410  1
  N  N391  1  0.13910973  0.44035139  0.08424360  1
  N  N392  1  0.17415741  0.77987708  0.10557384  1
  N  N393  1  0.67604727  0.11407490  0.10678269  1
  N  N394  1  0.63911945  0.44045319  0.08507138  1
  N  N395  1  0.67212908  0.77636593  0.09996922  1
  N  N396  1  0.19495392  0.22337965  0.90795194  1
  N  N397  1  0.19196170  0.55830850  0.90565706  1
  N  N398  1  0.18814304  0.89076084  0.90370948  1
  N  N399  1  0.69109103  0.22423932  0.90296983  1
  N  N400  1  0.68149207  0.55658186  0.90032174  1
  N  N401  1  0.69074307  0.89282192  0.90884801  1
  N  N402  1  0.30786455  0.10845458  0.40501571  1
  N  N403  1  0.30413439  0.44353566  0.40756186  1
  N  N404  1  0.30593099  0.77334423  0.40369492  1
  N  N405  1  0.81392777  0.10951907  0.40360264  1
  N  N406  1  0.81286271  0.44523347  0.40654408  1
  N  N407  1  0.80584942  0.77352489  0.40133929  1
  N  N408  1  0.45645400  0.27733880  0.41630163  1
  N  N409  1  0.42740303  0.61170345  0.39578894  1
  N  N410  1  0.42810034  0.94453108  0.39125998  1
  N  N411  1  0.94463651  0.27850092  0.41148726  1
  N  N412  1  0.93082757  0.60486818  0.40878984  1
  N  N413  1  0.93071512  0.93535209  0.39878026  1
  N  N414  1  0.06993301  0.05343042  0.90118452  1
  N  N415  1  0.11185493  0.38801813  0.91777750  1
  N  N416  1  0.07500144  0.72148318  0.89383303  1
  N  N417  1  0.56758887  0.05274997  0.90428335  1
  N  N418  1  0.61048799  0.38940206  0.91810649  1
  N  N419  1  0.57500158  0.72339157  0.89567650  1
  N  N420  1  0.06349667  0.27377336  0.09021984  1
  N  N421  1  0.05932118  0.60943059  0.08854926  1
  N  N422  1  0.05549937  0.93952871  0.08871550  1
  N  N423  1  0.55713803  0.27316472  0.08657652  1
  N  N424  1  0.57171162  0.61279375  0.10292857  1
  N  N425  1  0.56267315  0.94575799  0.09941669  1
  N  N426  1  0.44898211  0.06069051  0.59117764  1
  N  N427  1  0.44037112  0.39416974  0.59269407  1
  N  N428  1  0.44900562  0.72413526  0.59236718  1
  N  N429  1  0.94227404  0.05842133  0.59824422  1
  N  N430  1  0.94421117  0.39874648  0.58420468  1
  N  N431  1  0.94562754  0.71867955  0.59718334  1
  N  N432  1  0.17885808  0.11287827  0.39173441  1
  N  N433  1  0.17734380  0.44902203  0.40572669  1
  N  N434  1  0.17649429  0.77707638  0.39341802  1
  N  N435  1  0.68594058  0.11068401  0.40483152  1
  N  N436  1  0.68282206  0.44555177  0.40429996  1
  N  N437  1  0.67960090  0.77594637  0.39708166  1
  N  N438  1  0.32190365  0.22116780  0.89481009  1
  N  N439  1  0.31848975  0.55372891  0.89188407  1
  N  N440  1  0.31633743  0.89371307  0.90770161  1
  N  N441  1  0.81772603  0.22493336  0.90481847  1
  N  N442  1  0.80664254  0.56008323  0.91635198  1
  N  N443  1  0.81818886  0.88982725  0.89950879  1
  N  N444  1  0.31575242  0.11492751  0.11036742  1
  N  N445  1  0.26854897  0.43712652  0.07488387  1
  N  N446  1  0.30133332  0.78269215  0.08766926  1
  N  N447  1  0.80021264  0.11330517  0.08349042  1
  N  N448  1  0.76848147  0.43694948  0.07524992  1
  N  N449  1  0.80045548  0.77854535  0.08918236  1
  N  N450  1  0.17244118  0.22021676  0.60879499  1
  N  N451  1  0.18837078  0.56086800  0.58668512  1
  N  N452  1  0.19302971  0.88584000  0.58688406  1
  N  N453  1  0.67359226  0.22075209  0.59497706  1
  N  N454  1  0.69163845  0.55487029  0.59827617  1
  N  N455  1  0.69273689  0.88086537  0.59998914  1
  Cl  Cl456  1  0.25938434  0.05555482  0.60971685  1
  Cl  Cl457  1  0.25671229  0.38697508  0.61608049  1
  Cl  Cl458  1  0.26215424  0.72012154  0.61801568  1
  Cl  Cl459  1  0.76289662  0.05350904  0.62302353  1
  Cl  Cl460  1  0.75531820  0.39145191  0.61532577  1
  Cl  Cl461  1  0.76312664  0.71654516  0.62817372  1
  Cl  Cl462  1  0.24441335  0.28418010  0.13243334  1
  Cl  Cl463  1  0.24838357  0.60950009  0.10113936  1
  Cl  Cl464  1  0.24365420  0.94157476  0.11748783  1
  Cl  Cl465  1  0.74327732  0.27988983  0.11883169  1
  Cl  Cl466  1  0.75161869  0.62120922  0.12594358  1
  Cl  Cl467  1  0.74862390  0.95038256  0.12942654  1
  Cl  Cl468  1  0.25552808  0.05599617  0.87993158  1
  Cl  Cl469  1  0.29817244  0.38856538  0.88453596  1
  Cl  Cl470  1  0.26563622  0.73225498  0.89195899  1
  Cl  Cl471  1  0.75645041  0.06471911  0.89418244  1
  Cl  Cl472  1  0.79816392  0.39083007  0.88378319  1
  Cl  Cl473  1  0.76303664  0.72616479  0.89511420  1
  Cl  Cl474  1  0.26917119  0.27388300  0.40188180  1
  Cl  Cl475  1  0.24103141  0.60613725  0.36929744  1
  Cl  Cl476  1  0.23694695  0.93779699  0.38885274  1
  Cl  Cl477  1  0.76326135  0.27481254  0.38184582  1
  Cl  Cl478  1  0.74258844  0.60641356  0.39004931  1
  Cl  Cl479  1  0.74012117  0.93836339  0.40272414  1
  Cl  Cl480  1  -0.01667392  0.23023198  0.61061792  1
  Cl  Cl481  1  0.00560696  0.55761710  0.62208395  1
  Cl  Cl482  1  0.00763767  0.89494174  0.60082217  1
  Cl  Cl483  1  0.48078170  0.23118019  0.60106917  1
  Cl  Cl484  1  0.50656487  0.54946022  0.61521624  1
  Cl  Cl485  1  0.51127695  0.89621803  0.60561556  1
  Cl  Cl486  1  -0.01268967  0.10532171  0.09817279  1
  Cl  Cl487  1  -0.04820007  0.44231442  0.10739202  1
  Cl  Cl488  1  -0.01573626  0.77541074  0.11744265  1
  Cl  Cl489  1  0.49821677  0.11841792  0.12741943  1
  Cl  Cl490  1  0.45331688  0.43992042  0.11167502  1
  Cl  Cl491  1  0.48394899  0.77605989  0.11261714  1
  Cl  Cl492  1  0.00647632  0.22610620  0.88446149  1
  Cl  Cl493  1  0.00288910  0.55610935  0.89926847  1
  Cl  Cl494  1  0.00212704  0.89069614  0.87249395  1
  Cl  Cl495  1  0.50776990  0.22298747  0.87549255  1
  Cl  Cl496  1  0.50190260  0.53886857  0.87739239  1
  Cl  Cl497  1  0.50438131  0.88998236  0.88238294  1
  Cl  Cl498  1  -0.00752587  0.11149009  0.37601233  1
  Cl  Cl499  1  -0.00387405  0.44535467  0.37870105  1
  Cl  Cl500  1  -0.01167711  0.78450364  0.38909544  1
  Cl  Cl501  1  0.49573923  0.11538925  0.39244737  1
  Cl  Cl502  1  0.48796007  0.44065424  0.38890911  1
  Cl  Cl503  1  0.49257020  0.78131667  0.38322413  1
  Cl  Cl504  1  0.35556435  0.15241845  0.75025370  1
  Cl  Cl505  1  0.36038489  0.48408509  0.73944103  1
  Cl  Cl506  1  0.36745974  0.81837167  0.74184423  1
  Cl  Cl507  1  0.85665576  0.15230161  0.74972738  1
  Cl  Cl508  1  0.86066030  0.48922399  0.75169171  1
  Cl  Cl509  1  0.85942989  0.81695717  0.75786071  1
  Cl  Cl510  1  0.13330930  0.18922471  0.25848034  1
  Cl  Cl511  1  0.13411179  0.52102105  0.23221503  1
  Cl  Cl512  1  0.13047978  0.85456457  0.24889564  1
  Cl  Cl513  1  0.63250532  0.18765555  0.25474682  1
  Cl  Cl514  1  0.63436291  0.51875637  0.23785811  1
  Cl  Cl515  1  0.63499434  0.85440865  0.24980410  1
  Cl  Cl516  1  0.13233677  0.14331765  0.73992515  1
  Cl  Cl517  1  0.14029032  0.47753278  0.74886171  1
  Cl  Cl518  1  0.14299024  0.81293128  0.75243847  1
  Cl  Cl519  1  0.63527829  0.14294748  0.74164046  1
  Cl  Cl520  1  0.63892850  0.47637078  0.75648001  1
  Cl  Cl521  1  0.63632739  0.80740836  0.74486815  1
  Cl  Cl522  1  0.35615364  0.18484101  0.24747632  1
  Cl  Cl523  1  0.35387819  0.51500017  0.25576597  1
  Cl  Cl524  1  0.35665852  0.85169323  0.25124638  1
  Cl  Cl525  1  0.85284843  0.18106811  0.24829004  1
  Cl  Cl526  1  0.85293069  0.51283657  0.25094598  1
  Cl  Cl527  1  0.85519548  0.85216042  0.25309313  1
  Cl  Cl528  1  0.11676925  0.31180089  0.74591826  1
  Cl  Cl529  1  0.12517888  0.64530514  0.76113102  1
  Cl  Cl530  1  0.11188506  0.97958738  0.74584631  1
  Cl  Cl531  1  0.61508641  0.31178413  0.74589230  1
  Cl  Cl532  1  0.61824084  0.64321766  0.75611109  1
  Cl  Cl533  1  0.62154070  0.97702236  0.74715195  1
  Cl  Cl534  1  0.38598776  0.01810643  0.25620840  1
  Cl  Cl535  1  0.39362212  0.34831284  0.25407915  1
  Cl  Cl536  1  0.39137446  0.68169863  0.25461446  1
  Cl  Cl537  1  0.89101446  0.01655639  0.24624605  1
  Cl  Cl538  1  0.89966707  0.34429833  0.25107387  1
  Cl  Cl539  1  0.88950559  0.68120993  0.25097105  1
  Cl  Cl540  1  0.39716486  0.31785618  0.74945463  1
  Cl  Cl541  1  0.39528493  0.64701130  0.75254954  1
  Cl  Cl542  1  0.39578968  0.98345502  0.74788642  1
  Cl  Cl543  1  0.89878907  0.32145268  0.74750022  1
  Cl  Cl544  1  0.89997214  0.65079949  0.75403722  1
  Cl  Cl545  1  0.89284443  0.98134267  0.74715843  1
  Cl  Cl546  1  0.11175668  0.02277294  0.25471924  1
  Cl  Cl547  1  0.11415236  0.35668099  0.25198392  1
  Cl  Cl548  1  0.11056000  0.68733114  0.25319941  1
  Cl  Cl549  1  0.60740018  0.01974534  0.24722630  1
  Cl  Cl550  1  0.61200740  0.35578007  0.25171969  1
  Cl  Cl551  1  0.61047600  0.68603544  0.24667523  1
