# generated using pymatgen
data_H8PbC4(N3Cl2)2
_symmetry_space_group_name_H-M   'P 1'
_cell_length_a   16.62862796
_cell_length_b   22.51869554
_cell_length_c   21.59681912
_cell_angle_alpha   89.99959570
_cell_angle_beta   90.01867127
_cell_angle_gamma   90.00987003
_symmetry_Int_Tables_number   1
_chemical_formula_structural   H8PbC4(N3Cl2)2
_chemical_formula_sum   'H192 Pb24 C96 N144 Cl96'
_cell_volume   8087.03657697
_cell_formula_units_Z   24
loop_
 _symmetry_equiv_pos_site_id
 _symmetry_equiv_pos_as_xyz
  1  'x, y, z'
loop_
 _atom_site_type_symbol
 _atom_site_label
 _atom_site_symmetry_multiplicity
 _atom_site_fract_x
 _atom_site_fract_y
 _atom_site_fract_z
 _atom_site_occupancy
  H  H0  1  -0.01607420  0.03134708  0.68173381  1
  H  H1  1  -0.00062453  0.36064546  0.67618161  1
  H  H2  1  -0.01304919  0.69626207  0.67679246  1
  H  H3  1  0.51492424  0.03237352  0.68179722  1
  H  H4  1  0.49097475  0.36419716  0.67423662  1
  H  H5  1  0.51298041  0.69617682  0.68026499  1
  H  H6  1  -0.00196455  0.30667858  0.17550785  1
  H  H7  1  0.00369249  0.64333974  0.17882566  1
  H  H8  1  -0.00050312  0.96918973  0.18307926  1
  H  H9  1  0.50262242  0.30098826  0.17955556  1
  H  H10  1  0.50475024  0.63616461  0.18117444  1
  H  H11  1  0.50545128  0.96885546  0.17635734  1
  H  H12  1  0.00683430  0.02970994  0.81898817  1
  H  H13  1  -0.00097177  0.36166244  0.82072920  1
  H  H14  1  -0.00701974  0.69695556  0.82082874  1
  H  H15  1  0.48862546  0.02768736  0.82318800  1
  H  H16  1  0.48810561  0.35818246  0.82133868  1
  H  H17  1  0.49011180  0.69956151  0.82474741  1
  H  H18  1  -0.01027563  0.30668648  0.32426456  1
  H  H19  1  -0.01763945  0.63484084  0.32132859  1
  H  H20  1  -0.00072641  0.96911771  0.32038782  1
  H  H21  1  0.49651927  0.30866593  0.32582971  1
  H  H22  1  0.51560453  0.63627165  0.32713855  1
  H  H23  1  0.49545939  0.96868555  0.32208756  1
  H  H24  1  0.25545892  0.19402720  0.67260097  1
  H  H25  1  0.24016778  0.52748983  0.67327768  1
  H  H26  1  0.25700475  0.86375689  0.67677542  1
  H  H27  1  0.75188760  0.19703502  0.68078671  1
  H  H28  1  0.75929850  0.52347255  0.67400176  1
  H  H29  1  0.74678482  0.86335914  0.67849450  1
  H  H30  1  0.24016870  0.13595927  0.17897261  1
  H  H31  1  0.26014245  0.47262327  0.18003317  1
  H  H32  1  0.24737897  0.80710017  0.17848023  1
  H  H33  1  0.74542924  0.13772367  0.17917674  1
  H  H34  1  0.74216405  0.47009288  0.18356744  1
  H  H35  1  0.75422983  0.80435217  0.17915738  1
  H  H36  1  0.23726554  0.19881712  0.81696574  1
  H  H37  1  0.24563455  0.53281282  0.81873978  1
  H  H38  1  0.24526618  0.86428525  0.82998554  1
  H  H39  1  0.75768172  0.19288681  0.81968907  1
  H  H40  1  0.74021275  0.52757169  0.82214158  1
  H  H41  1  0.74588006  0.85824902  0.82107841  1
  H  H42  1  0.25354681  0.13904347  0.31875339  1
  H  H43  1  0.25507607  0.47182215  0.32182957  1
  H  H44  1  0.25200604  0.80277092  0.32151864  1
  H  H45  1  0.75064276  0.13787202  0.31828274  1
  H  H46  1  0.76023369  0.46737147  0.32926262  1
  H  H47  1  0.75593489  0.80834742  0.32178056  1
  H  H48  1  0.12367830  0.04939769  0.63082729  1
  H  H49  1  0.13193625  0.38607141  0.61358275  1
  H  H50  1  0.13029227  0.71343447  0.62699676  1
  H  H51  1  0.62066585  0.05407355  0.59683504  1
  H  H52  1  0.62853384  0.38304702  0.62128527  1
  H  H53  1  0.62865871  0.72088502  0.60457129  1
  H  H54  1  0.37093997  0.28025294  0.11952228  1
  H  H55  1  0.36570566  0.61977596  0.12649085  1
  H  H56  1  0.36500017  0.95120319  0.12492993  1
  H  H57  1  0.86520759  0.27830749  0.11740795  1
  H  H58  1  0.86790025  0.61799234  0.12420348  1
  H  H59  1  0.86954344  0.94547248  0.11490285  1
  H  H60  1  0.36851946  0.05309222  0.89856852  1
  H  H61  1  0.38261264  0.39025396  0.90527009  1
  H  H62  1  0.38065861  0.72515763  0.90613782  1
  H  H63  1  0.86767233  0.04904034  0.87054088  1
  H  H64  1  0.87712325  0.38956476  0.89302902  1
  H  H65  1  0.87833533  0.72408810  0.89750722  1
  H  H66  1  0.12515193  0.28165815  0.38162152  1
  H  H67  1  0.12442495  0.61775589  0.37146521  1
  H  H68  1  0.13118146  0.94680374  0.38222638  1
  H  H69  1  0.62940905  0.28449567  0.38713812  1
  H  H70  1  0.61542731  0.60395738  0.41473515  1
  H  H71  1  0.62683734  0.94743212  0.38674326  1
  H  H72  1  0.36888589  0.22667042  0.59693189  1
  H  H73  1  0.37531873  0.54911760  0.61496823  1
  H  H74  1  0.36640912  0.88909547  0.59377209  1
  H  H75  1  0.86849368  0.22520744  0.60399456  1
  H  H76  1  0.86665332  0.55522876  0.59105131  1
  H  H77  1  0.87285637  0.88801368  0.61028176  1
  H  H78  1  0.13816084  0.10673672  0.09206377  1
  H  H79  1  0.12200598  0.44918479  0.12699668  1
  H  H80  1  0.12004305  0.78294584  0.11077200  1
  H  H81  1  0.63315320  0.11162034  0.10170935  1
  H  H82  1  0.62121582  0.44297630  0.10846975  1
  H  H83  1  0.61959786  0.78043595  0.11980997  1
  H  H84  1  0.13225355  0.22532728  0.90172998  1
  H  H85  1  0.13575998  0.55915715  0.89860453  1
  H  H86  1  0.13783534  0.89175970  0.91117479  1
  H  H87  1  0.63049525  0.21808296  0.88688893  1
  H  H88  1  0.63418026  0.55761517  0.90547392  1
  H  H89  1  0.63475820  0.88948811  0.90055526  1
  H  H90  1  0.37514063  0.11321596  0.39294162  1
  H  H91  1  0.36609877  0.44077896  0.40180309  1
  H  H92  1  0.36704681  0.77937059  0.39861316  1
  H  H93  1  0.87484490  0.11355315  0.38736310  1
  H  H94  1  0.86027949  0.43878849  0.41483538  1
  H  H95  1  0.86071539  0.77528577  0.40596084  1
  H  H96  1  0.38136663  0.27773238  0.40101552  1
  H  H97  1  0.37318082  0.61902251  0.37602804  1
  H  H98  1  0.37852148  0.94219442  0.39760706  1
  H  H99  1  0.87954332  0.27861529  0.40575736  1
  H  H100  1  0.88040212  0.60267212  0.40727250  1
  H  H101  1  0.88358979  0.94290052  0.39780848  1
  H  H102  1  0.11292265  0.05260373  0.90317689  1
  H  H103  1  0.12492825  0.38874199  0.88876322  1
  H  H104  1  0.12631816  0.72027142  0.88322388  1
  H  H105  1  0.61653582  0.05449316  0.88878250  1
  H  H106  1  0.62782754  0.38035168  0.87248706  1
  H  H107  1  0.62679488  0.71535211  0.87971797  1
  H  H108  1  0.11274613  0.27673893  0.09864762  1
  H  H109  1  0.11474048  0.61145950  0.09885874  1
  H  H110  1  0.11777860  0.94529615  0.10573607  1
  H  H111  1  0.61862469  0.27553041  0.10396386  1
  H  H112  1  0.61197518  0.61005808  0.09975576  1
  H  H113  1  0.61079992  0.94085223  0.09390713  1
  H  H114  1  0.37529985  0.04927020  0.63027157  1
  H  H115  1  0.38294410  0.39059324  0.59337105  1
  H  H116  1  0.38023773  0.71442486  0.61775794  1
  H  H117  1  0.87862637  0.05499967  0.59723981  1
  H  H118  1  0.88366947  0.39001459  0.59947655  1
  H  H119  1  0.88825860  0.73030429  0.58874609  1
  H  H120  1  0.12708628  0.11212198  0.38771746  1
  H  H121  1  0.11915349  0.44814559  0.38245871  1
  H  H122  1  0.11902467  0.78122260  0.38136826  1
  H  H123  1  0.62518470  0.11368371  0.38854755  1
  H  H124  1  0.61794930  0.45176502  0.37598820  1
  H  H125  1  0.61652405  0.78462355  0.37472840  1
  H  H126  1  0.37800523  0.21653256  0.87211123  1
  H  H127  1  0.38245306  0.55225398  0.87369644  1
  H  H128  1  0.38323928  0.88252357  0.88258825  1
  H  H129  1  0.87958975  0.22202521  0.89260820  1
  H  H130  1  0.87964057  0.55167412  0.87369886  1
  H  H131  1  0.88211581  0.88122470  0.87746204  1
  H  H132  1  0.38137838  0.11799436  0.12644498  1
  H  H133  1  0.36793703  0.44234486  0.09733273  1
  H  H134  1  0.36920239  0.77867039  0.10543413  1
  H  H135  1  0.88113950  0.11693100  0.12054034  1
  H  H136  1  0.86920210  0.44507241  0.11419751  1
  H  H137  1  0.86724996  0.77553146  0.10002758  1
  H  H138  1  0.12169280  0.22045398  0.61318599  1
  H  H139  1  0.12864598  0.55761379  0.59545245  1
  H  H140  1  0.12020926  0.88544467  0.61814778  1
  H  H141  1  0.62059229  0.22131565  0.61421373  1
  H  H142  1  0.62136937  0.54820887  0.61893937  1
  H  H143  1  0.62353601  0.88736015  0.60551454  1
  H  H144  1  0.54841241  0.07513232  0.49039451  1
  H  H145  1  0.11259536  0.58624888  0.48431775  1
  H  H146  1  0.14691456  0.91413603  0.51005578  1
  H  H147  1  0.82569072  0.92065324  0.50175859  1
  H  H148  1  0.95069475  0.07692191  0.49103460  1
  H  H149  1  0.88149108  0.07890701  0.98592119  1
  H  H150  1  0.16446730  0.75367466  0.00152146  1
  H  H151  1  0.59433156  0.25454305  0.49396867  1
  H  H152  1  0.21885585  0.07595567  -0.00377436  1
  H  H153  1  0.89123794  0.58699131  0.01087661  1
  H  H154  1  0.10916640  0.07724770  0.51590662  1
  H  H155  1  0.39025691  0.07650329  0.51523925  1
  H  H156  1  0.97297646  0.75342130  0.49196745  1
  H  H157  1  0.69528095  0.08188176  -0.00634440  1
  H  H158  1  0.36446568  0.58429981  0.98849049  1
  H  H159  1  0.67503577  0.09586792  0.49640220  1
  H  H160  1  0.95057885  0.25367386  0.50619099  1
  H  H161  1  0.14319357  0.41627397  0.01457269  1
  H  H162  1  0.95819986  0.58063789  0.50579580  1
  H  H163  1  0.93279665  0.41535485  0.99729315  1
  H  H164  1  0.14748124  0.75460539  0.49461124  1
  H  H165  1  0.29588815  0.42067317  -0.00352439  1
  H  H166  1  0.15507512  0.25076620  0.50563675  1
  H  H167  1  0.82761837  0.08783259  0.49930290  1
  H  H168  1  0.20720561  0.25207478  1.00450794  1
  H  H169  1  0.61048082  0.41313034  0.98486692  1
  H  H170  1  0.04534977  0.58936572  -0.00301234  1
  H  H171  1  0.67572750  0.24966809  0.99610949  1
  H  H172  1  0.04666256  0.24829125  -0.00408735  1
  H  H173  1  0.20215882  0.58802406  1.00495091  1
  H  H174  1  0.57232543  0.75100127  0.49646983  1
  H  H175  1  0.42449903  0.08392046  0.99959645  1
  H  H176  1  0.78191205  0.74844684  0.50425459  1
  H  H177  1  0.78944823  0.58086015  0.49149273  1
  H  H178  1  0.34853203  0.58163801  0.50642415  1
  H  H179  1  0.40112986  0.24893546  1.00586958  1
  H  H180  1  0.85737043  0.91621246  0.98806920  1
  H  H181  1  0.04276926  0.08039494  1.00756319  1
  H  H182  1  0.30956432  0.75086255  0.50659087  1
  H  H183  1  0.61727176  0.41982210  0.49902780  1
  H  H184  1  0.09343759  0.41522202  0.50757031  1
  H  H185  1  0.37006375  0.91682237  0.00170795  1
  H  H186  1  0.60742887  0.74514975  0.99543412  1
  H  H187  1  0.54240681  0.58396718  -0.00727719  1
  H  H188  1  0.71006801  0.58434279  1.00481459  1
  H  H189  1  0.53837727  0.91209382  -0.01087614  1
  H  H190  1  0.70290816  0.91383631  1.00240085  1
  H  H191  1  0.45722137  0.41228624  1.00489259  1
  Pb  Pb192  1  0.25119921  0.04698161  0.76252635  1
  Pb  Pb193  1  0.25822894  0.38377059  0.75503382  1
  Pb  Pb194  1  0.25565723  0.71442054  0.75705514  1
  Pb  Pb195  1  0.75033841  0.04673415  0.73888335  1
  Pb  Pb196  1  0.75576221  0.38072891  0.74812970  1
  Pb  Pb197  1  0.75197666  0.71589246  0.74075043  1
  Pb  Pb198  1  0.24366719  0.28405256  0.24951210  1
  Pb  Pb199  1  0.24296973  0.62024807  0.24752185  1
  Pb  Pb200  1  0.24584224  0.95232321  0.25275263  1
  Pb  Pb201  1  0.74699769  0.28621394  0.25057464  1
  Pb  Pb202  1  0.73940376  0.61562524  0.25352414  1
  Pb  Pb203  1  0.74546167  0.95264383  0.24540956  1
  Pb  Pb204  1  0.00700413  0.21658404  0.75331473  1
  Pb  Pb205  1  0.00292806  0.55002021  0.74638899  1
  Pb  Pb206  1  0.00481108  0.88029892  0.75401632  1
  Pb  Pb207  1  0.50300955  0.21427323  0.74268000  1
  Pb  Pb208  1  0.50828220  0.54792125  0.75546541  1
  Pb  Pb209  1  0.50004064  0.88050100  0.74513322  1
  Pb  Pb210  1  -0.00153831  0.11983042  0.24794297  1
  Pb  Pb211  1  -0.00571372  0.45166939  0.25275895  1
  Pb  Pb212  1  -0.00770323  0.78516860  0.25178862  1
  Pb  Pb213  1  0.49924235  0.11857446  0.25134215  1
  Pb  Pb214  1  0.49100530  0.45030681  0.24303455  1
  Pb  Pb215  1  0.49291249  0.78635546  0.24937483  1
  C  C216  1  -0.00403116  0.04526016  0.63443568  1
  C  C217  1  0.00541125  0.37841131  0.62975737  1
  C  C218  1  0.00154807  0.71237198  0.63079010  1
  C  C219  1  0.50314797  0.04528264  0.63416236  1
  C  C220  1  0.50127302  0.37949749  0.62730575  1
  C  C221  1  0.50768216  0.71084430  0.63273854  1
  C  C222  1  -0.00772644  0.28903190  0.12913146  1
  C  C223  1  -0.00429763  0.62556927  0.13241026  1
  C  C224  1  -0.00470262  0.95391930  0.13546716  1
  C  C225  1  0.49650047  0.28583755  0.13221394  1
  C  C226  1  0.49410566  0.62215214  0.13377208  1
  C  C227  1  0.49358733  0.95400359  0.12945997  1
  C  C228  1  -0.00478097  0.04398859  0.86620104  1
  C  C229  1  0.00006071  0.37942971  0.86739399  1
  C  C230  1  -0.00040301  0.71325283  0.86761815  1
  C  C231  1  0.49073602  0.04495811  0.87002713  1
  C  C232  1  0.49936679  0.37459316  0.86795233  1
  C  C233  1  0.50001981  0.71354055  0.87215517  1
  C  C234  1  -0.00208650  0.29005532  0.37096740  1
  C  C235  1  -0.00427890  0.61971647  0.36812840  1
  C  C236  1  0.00455547  0.95304398  0.36741147  1
  C  C237  1  0.50294378  0.29132279  0.37231797  1
  C  C238  1  0.50172239  0.62062479  0.37326514  1
  C  C239  1  0.50058531  0.95316554  0.36924447  1
  C  C240  1  0.24816322  0.21183437  0.62637121  1
  C  C241  1  0.24851684  0.54387096  0.62648746  1
  C  C242  1  0.24748254  0.87924888  0.62973467  1
  C  C243  1  0.74683103  0.21305529  0.63345928  1
  C  C244  1  0.74957255  0.54134717  0.62796772  1
  C  C245  1  0.74760366  0.87982473  0.63131657  1
  C  C246  1  0.25309351  0.12069934  0.13238398  1
  C  C247  1  0.25017415  0.45612957  0.13329306  1
  C  C248  1  0.24560241  0.79020365  0.13149822  1
  C  C249  1  0.75298954  0.12203143  0.13204727  1
  C  C250  1  0.74403941  0.45412657  0.13613582  1
  C  C251  1  0.74718850  0.78755569  0.13264862  1
  C  C252  1  0.24956145  0.21288479  0.86414710  1
  C  C253  1  0.25528793  0.54755996  0.86610803  1
  C  C254  1  0.25605965  0.87968808  0.87684955  1
  C  C255  1  0.75615033  0.21043741  0.86646270  1
  C  C256  1  0.75116933  0.54426895  0.86848500  1
  C  C257  1  0.75414614  0.87506311  0.86788951  1
  C  C258  1  0.25189092  0.12234961  0.36591482  1
  C  C259  1  0.24669113  0.45492296  0.36850982  1
  C  C260  1  0.24560603  0.78792685  0.36910307  1
  C  C261  1  0.74952342  0.12257951  0.36601454  1
  C  C262  1  0.74547314  0.45263799  0.37571824  1
  C  C263  1  0.74463048  0.79086924  0.36775294  1
  C  C264  1  0.05960819  0.06844020  0.54765339  1
  C  C265  1  0.18982104  0.42615354  0.04832034  1
  C  C266  1  0.71595052  0.23923894  0.95773653  1
  C  C267  1  0.56090343  0.40656648  0.54063014  1
  C  C268  1  0.47248222  0.25802629  0.46643943  1
  C  C269  1  0.43771804  0.59467727  0.45743875  1
  C  C270  1  0.22225236  0.57649263  0.53133214  1
  C  C271  1  0.72870065  0.09332944  0.03536858  1
  C  C272  1  0.97901259  0.06903063  0.53566813  1
  C  C273  1  0.97300699  0.74522930  0.96110673  1
  C  C274  1  0.19283285  0.76380146  0.45952913  1
  C  C275  1  0.56236600  0.40373923  0.95213279  1
  C  C276  1  0.67805454  0.42816643  0.46000666  1
  C  C277  1  0.27703670  0.24736582  0.53289219  1
  C  C278  1  0.50954879  0.92509654  0.03235574  1
  C  C279  1  0.80962860  0.09555449  0.04361341  1
  C  C280  1  0.52032305  0.06770692  0.53515755  1
  C  C281  1  0.48036212  0.40923445  0.53194666  1
  C  C282  1  0.81133018  0.90606334  0.95379207  1
  C  C283  1  0.93782979  0.25458410  0.04223484  1
  C  C284  1  0.45558936  0.73704902  0.54284323  1
  C  C285  1  0.43182233  0.59928349  0.04625630  1
  C  C286  1  0.55834008  0.73727128  0.96156185  1
  C  C287  1  0.93770668  0.59524593  0.04651617  1
  C  C288  1  0.51209850  0.59540378  0.03581812  1
  C  C289  1  0.79059262  0.09579119  0.45868345  1
  C  C290  1  0.52738853  0.25718439  0.03744185  1
  C  C291  1  0.31669530  0.90647246  0.96376863  1
  C  C292  1  0.23515264  0.24028972  0.96048113  1
  C  C293  1  0.01318295  0.06998676  0.96387193  1
  C  C294  1  0.81445384  0.57490067  0.95261603  1
  C  C295  1  0.31476592  0.57401974  0.95382665  1
  C  C296  1  0.69627951  0.75750346  0.04481247  1
  C  C297  1  0.06207258  0.59363976  0.45199184  1
  C  C298  1  0.78625228  0.90913846  0.54003399  1
  C  C299  1  0.53668979  0.73928418  0.53677374  1
  C  C300  1  0.23595404  0.90998685  0.97229661  1
  C  C301  1  0.43958684  0.06741790  0.54714071  1
  C  C302  1  0.20511590  0.76286241  0.03983146  1
  C  C303  1  0.44605158  0.25854756  0.04136490  1
  C  C304  1  0.47218791  0.92294132  0.46258624  1
  C  C305  1  0.75769214  0.42344368  0.47232043  1
  C  C306  1  0.05344372  0.92663943  0.45775299  1
  C  C307  1  0.47750525  0.74040978  0.96872087  1
  C  C308  1  0.42918949  0.92870824  0.04393723  1
  C  C309  1  0.27448013  0.76226786  0.46555291  1
  C  C310  1  0.23341270  0.57594619  0.96247967  1
  C  C311  1  0.93223621  0.06893281  0.95278725  1
  N  N312  1  0.06966081  0.74042155  0.54926473  1
  N  N313  1  0.26859591  0.42414778  0.03921539  1
  N  N314  1  0.48391215  0.40740825  0.96203538  1
  N  N315  1  0.45989731  0.07508970  0.96145399  1
  N  N316  1  0.04536941  0.40800439  0.95868466  1
  N  N317  1  0.21079564  0.09207372  0.45755968  1
  N  N318  1  0.26971726  0.42314842  0.46331983  1
  N  N319  1  0.79508914  0.24121427  0.95961718  1
  N  N320  1  0.99387869  0.74525090  0.53718261  1
  N  N321  1  0.02678106  0.92737115  0.04038049  1
  N  N322  1  0.53816340  0.07528999  0.96018350  1
  N  N323  1  0.68834887  0.57303074  0.54378567  1
  N  N324  1  0.31318373  0.23778050  0.95044557  1
  N  N325  1  0.05160906  0.40789302  0.54212545  1
  N  N326  1  0.55114113  0.26127448  0.46057195  1
  N  N327  1  0.30068019  0.57289541  0.53886559  1
  N  N328  1  0.05625892  0.26093991  0.45744892  1
  N  N329  1  0.01673957  0.59225693  0.03911747  1
  N  N330  1  0.19858628  0.24333331  0.53888789  1
  N  N331  1  0.76543162  0.57473993  0.53543003  1
  N  N332  1  0.97382189  0.40856093  0.53553396  1
  N  N333  1  0.54933404  0.92472567  0.46049253  1
  N  N334  1  0.96711901  0.41031071  0.95826491  1
  N  N335  1  0.77682630  0.24267603  0.53893519  1
  N  N336  1  0.77309189  0.75566536  0.03686128  1
  N  N337  1  0.95078289  0.92800330  0.04339696  1
  N  N338  1  0.78621360  0.42672525  0.04362382  1
  N  N339  1  0.68108554  0.75860209  0.45071346  1
  N  N340  1  0.70697412  0.90920010  0.53818543  1
  N  N341  1  0.70986713  0.42657353  0.04162822  1
  N  N342  1  0.97836802  0.25848475  0.46389420  1
  N  N343  1  0.28434114  0.76028750  0.03816068  1
  N  N344  1  0.73231924  0.90927034  0.96070872  1
  N  N345  1  0.05036837  0.74320415  0.95791053  1
  N  N346  1  0.98401012  0.58764486  0.46286605  1
  N  N347  1  0.73658052  0.57696482  0.96245891  1
  N  N348  1  0.28692971  0.09253236  0.45922763  1
  N  N349  1  0.24246416  0.09085590  0.03803603  1
  N  N350  1  0.71089392  0.09518229  0.45789794  1
  N  N351  1  0.31923577  0.09463463  0.04821496  1
  N  N352  1  0.01637536  0.25553348  0.03668266  1
  N  N353  1  0.51309197  0.58911401  0.47095486  1
  N  N354  1  0.19379954  0.42593893  0.45689752  1
  N  N355  1  0.70040149  0.24131675  0.54254364  1
  N  N356  1  0.75808950  0.75602938  0.46005888  1
  N  N357  1  0.97591135  0.92467911  0.46404746  1
  N  N358  1  0.27132263  0.90772102  0.53379639  1
  N  N359  1  0.19378436  0.90667714  0.54335691  1
  N  N360  1  0.06843226  0.05394193  0.60903749  1
  N  N361  1  0.07242688  0.38891623  0.59878756  1
  N  N362  1  0.07440968  0.72117467  0.60748453  1
  N  N363  1  0.55872605  0.05407700  0.58992591  1
  N  N364  1  0.57282644  0.38832445  0.60049232  1
  N  N365  1  0.56820104  0.72267086  0.59395583  1
  N  N366  1  0.42815889  0.27639979  0.10143642  1
  N  N367  1  0.42128964  0.61511142  0.10576911  1
  N  N368  1  0.42052363  0.94606416  0.10372207  1
  N  N369  1  0.92278343  0.27450346  0.09971474  1
  N  N370  1  0.92462936  0.61359113  0.10509837  1
  N  N371  1  0.92965396  0.94435682  0.10230466  1
  N  N372  1  0.42957939  0.05603613  0.90738802  1
  N  N373  1  0.44506289  0.38616377  0.91111089  1
  N  N374  1  0.44232257  0.72622870  0.91501613  1
  N  N375  1  0.92306188  0.05300013  0.89195448  1
  N  N376  1  0.93818801  0.39010056  0.90405382  1
  N  N377  1  0.93947743  0.72701578  0.90726362  1
  N  N378  1  0.06733459  0.27794661  0.39863570  1
  N  N379  1  0.06921192  0.61212363  0.39283177  1
  N  N380  1  0.07292704  0.94320096  0.39882146  1
  N  N381  1  0.57056395  0.28266844  0.40297619  1
  N  N382  1  0.55331312  0.60598152  0.41715647  1
  N  N383  1  0.56733730  0.94373670  0.40097872  1
  N  N384  1  0.30789666  0.22815640  0.58690428  1
  N  N385  1  0.31720342  0.55189744  0.59731629  1
  N  N386  1  0.30425261  0.89078838  0.58781851  1
  N  N387  1  0.80681243  0.22493635  0.59496053  1
  N  N388  1  0.80448927  0.55362464  0.58549773  1
  N  N389  1  0.81284396  0.89164025  0.59697243  1
  N  N390  1  0.20076157  0.10669511  0.08871057  1
  N  N391  1  0.17831278  0.44447648  0.10709538  1
  N  N392  1  0.17981149  0.78055785  0.09705329  1
  N  N393  1  0.69452754  0.11000988  0.09187987  1
  N  N394  1  0.68231526  0.44354675  0.09897605  1
  N  N395  1  0.67769052  0.77629211  0.10300638  1
  N  N396  1  0.19463776  0.22491892  0.90790290  1
  N  N397  1  0.19760234  0.55926779  0.90767335  1
  N  N398  1  0.19956080  0.89364870  0.91965746  1
  N  N399  1  0.69040943  0.22090421  0.90073909  1
  N  N400  1  0.69665790  0.55515640  0.91139752  1
  N  N401  1  0.69708887  0.88683549  0.90876175  1
  N  N402  1  0.31391102  0.11152288  0.40271011  1
  N  N403  1  0.30385517  0.44110731  0.40884010  1
  N  N404  1  0.30584644  0.77726317  0.40889664  1
  N  N405  1  0.81485804  0.11096817  0.40123646  1
  N  N406  1  0.79840306  0.43840141  0.42111728  1
  N  N407  1  0.79810927  0.77809856  0.41102028  1
  N  N408  1  0.44237985  0.27619407  0.41159526  1
  N  N409  1  0.42814727  0.61349979  0.39778563  1
  N  N410  1  0.43940773  0.94024014  0.40799060  1
  N  N411  1  0.94163587  0.27942385  0.41270551  1
  N  N412  1  0.94294141  0.60678574  0.41196456  1
  N  N413  1  0.94550912  0.94149097  0.40630866  1
  N  N414  1  0.05104381  0.05459013  0.90962434  1
  N  N415  1  0.06507539  0.39186652  0.90083463  1
  N  N416  1  0.06703959  0.72323761  0.89809796  1
  N  N417  1  0.55651024  0.05720319  0.90276465  1
  N  N418  1  0.57199267  0.38505234  0.89325939  1
  N  N419  1  0.57080483  0.72061883  0.90005917  1
  N  N420  1  0.05106470  0.27867193  0.08937524  1
  N  N421  1  0.05241051  0.61438966  0.09112001  1
  N  N422  1  0.05588386  0.94326377  0.09712216  1
  N  N423  1  0.55762601  0.27363860  0.09218582  1
  N  N424  1  0.55005238  0.60979750  0.09162160  1
  N  N425  1  0.54880377  0.94131014  0.08662547  1
  N  N426  1  0.43068052  0.05372405  0.60854055  1
  N  N427  1  0.44433727  0.39280196  0.58463817  1
  N  N428  1  0.43855192  0.72001002  0.60078545  1
  N  N429  1  0.94048675  0.05474082  0.59029377  1
  N  N430  1  0.94552907  0.39133757  0.59090069  1
  N  N431  1  0.95070136  0.72587533  0.58568069  1
  N  N432  1  0.18750745  0.11014208  0.39976715  1
  N  N433  1  0.17812895  0.44566645  0.39806025  1
  N  N434  1  0.17626852  0.77937372  0.39954772  1
  N  N435  1  0.68570794  0.11488478  0.40148811  1
  N  N436  1  0.67170843  0.44581265  0.39939137  1
  N  N437  1  0.67347220  0.77863128  0.39256178  1
  N  N438  1  0.32052663  0.22092183  0.89044425  1
  N  N439  1  0.32642829  0.55641801  0.89366485  1
  N  N440  1  0.32779562  0.88781076  0.90353051  1
  N  N441  1  0.81844280  0.22309885  0.90247325  1
  N  N442  1  0.82395854  0.55617676  0.89400482  1
  N  N443  1  0.82497673  0.88660034  0.89567454  1
  N  N444  1  0.32519017  0.11317368  0.10694630  1
  N  N445  1  0.30571001  0.44580955  0.09071711  1
  N  N446  1  0.30771002  0.77758567  0.09531240  1
  N  N447  1  0.82406743  0.11249045  0.10224051  1
  N  N448  1  0.80861142  0.44359199  0.10186342  1
  N  N449  1  0.80514960  0.77491612  0.09299217  1
  N  N450  1  0.17987413  0.21982746  0.59621505  1
  N  N451  1  0.18961048  0.55883660  0.58579227  1
  N  N452  1  0.17841529  0.88947679  0.60151084  1
  N  N453  1  0.68063649  0.22293759  0.60107789  1
  N  N454  1  0.67907135  0.55351073  0.60171766  1
  N  N455  1  0.68460433  0.89087047  0.59539162  1
  Cl  Cl456  1  0.25066591  0.04937278  0.63483353  1
  Cl  Cl457  1  0.25574334  0.38433149  0.62258970  1
  Cl  Cl458  1  0.25751745  0.71092994  0.62308527  1
  Cl  Cl459  1  0.74869429  0.06084705  0.60157342  1
  Cl  Cl460  1  0.76213877  0.39056060  0.61517636  1
  Cl  Cl461  1  0.76935252  0.72837155  0.59737824  1
  Cl  Cl462  1  0.23452978  0.27638077  0.11321940  1
  Cl  Cl463  1  0.23393033  0.60987429  0.11321207  1
  Cl  Cl464  1  0.23693124  0.94999387  0.11958700  1
  Cl  Cl465  1  0.73959498  0.27497921  0.11716970  1
  Cl  Cl466  1  0.73647690  0.60755642  0.11290585  1
  Cl  Cl467  1  0.73740871  0.93777670  0.10549621  1
  Cl  Cl468  1  0.23965536  0.05477424  0.90200312  1
  Cl  Cl469  1  0.25877731  0.39455086  0.89862119  1
  Cl  Cl470  1  0.25449887  0.72466078  0.88762534  1
  Cl  Cl471  1  0.73696818  0.05130718  0.87175780  1
  Cl  Cl472  1  0.75538175  0.38947684  0.88006580  1
  Cl  Cl473  1  0.75665779  0.71448799  0.87095275  1
  Cl  Cl474  1  0.25396105  0.27629636  0.38405490  1
  Cl  Cl475  1  0.24941866  0.61014420  0.37914121  1
  Cl  Cl476  1  0.25486775  0.94350815  0.38395595  1
  Cl  Cl477  1  0.75769517  0.27947672  0.38286557  1
  Cl  Cl478  1  0.75748868  0.60345091  0.39649916  1
  Cl  Cl479  1  0.75846165  0.94781255  0.37864122  1
  Cl  Cl480  1  -0.00794935  0.22873938  0.61317714  1
  Cl  Cl481  1  -0.00781978  0.56020312  0.60171898  1
  Cl  Cl482  1  -0.00298683  0.88518658  0.62057611  1
  Cl  Cl483  1  0.49623251  0.22655402  0.60709821  1
  Cl  Cl484  1  0.49760383  0.54952792  0.62809763  1
  Cl  Cl485  1  0.49258702  0.88518545  0.61332509  1
  Cl  Cl486  1  0.01747133  0.11421628  0.11303672  1
  Cl  Cl487  1  -0.00748524  0.44322273  0.11596094  1
  Cl  Cl488  1  -0.00718318  0.77585066  0.12015755  1
  Cl  Cl489  1  0.50865641  0.11187531  0.11886389  1
  Cl  Cl490  1  0.49185531  0.43693870  0.10160582  1
  Cl  Cl491  1  0.49352799  0.77626202  0.11688146  1
  Cl  Cl492  1  0.00969795  0.22850226  0.89380795  1
  Cl  Cl493  1  0.01210071  0.56198709  0.88771937  1
  Cl  Cl494  1  0.01358326  0.88550811  0.88374177  1
  Cl  Cl495  1  0.50686877  0.21847330  0.87377225  1
  Cl  Cl496  1  0.51459993  0.55420316  0.89084361  1
  Cl  Cl497  1  0.51577835  0.88970336  0.88034774  1
  Cl  Cl498  1  -0.00078438  0.11319411  0.38228665  1
  Cl  Cl499  1  -0.00896484  0.44418067  0.38476840  1
  Cl  Cl500  1  -0.02130237  0.76847206  0.39772003  1
  Cl  Cl501  1  0.50054514  0.11251485  0.38746735  1
  Cl  Cl502  1  0.48447665  0.44303241  0.37411695  1
  Cl  Cl503  1  0.48818735  0.78174746  0.38162582  1
  Cl  Cl504  1  0.36412820  0.14705939  0.75365445  1
  Cl  Cl505  1  0.36272601  0.47916786  0.75410851  1
  Cl  Cl506  1  0.36034075  0.81829309  0.75296514  1
  Cl  Cl507  1  0.86029891  0.14662383  0.75232543  1
  Cl  Cl508  1  0.86930245  0.48158053  0.75684273  1
  Cl  Cl509  1  0.86826679  0.81291872  0.75158954  1
  Cl  Cl510  1  0.14293575  0.18399004  0.25407861  1
  Cl  Cl511  1  0.13181774  0.51943644  0.24963742  1
  Cl  Cl512  1  0.13345442  0.85197498  0.25916832  1
  Cl  Cl513  1  0.63863972  0.18360141  0.25673266  1
  Cl  Cl514  1  0.63944391  0.51932894  0.25882278  1
  Cl  Cl515  1  0.63452378  0.85101276  0.25104618  1
  Cl  Cl516  1  0.14179023  0.14893751  0.74667817  1
  Cl  Cl517  1  0.14240659  0.48136671  0.74758936  1
  Cl  Cl518  1  0.14168965  0.81316445  0.74457434  1
  Cl  Cl519  1  0.63901630  0.14754971  0.74386330  1
  Cl  Cl520  1  0.64656300  0.48334187  0.74581501  1
  Cl  Cl521  1  0.64931603  0.81306952  0.74625217  1
  Cl  Cl522  1  0.36541915  0.18930795  0.24127685  1
  Cl  Cl523  1  0.35729057  0.52106409  0.24493506  1
  Cl  Cl524  1  0.35504154  0.85173496  0.24351696  1
  Cl  Cl525  1  0.86003082  0.18550561  0.24392173  1
  Cl  Cl526  1  0.85811810  0.51915859  0.25170111  1
  Cl  Cl527  1  0.85597991  0.85112915  0.24860166  1
  Cl  Cl528  1  0.10947898  0.31349297  0.75342619  1
  Cl  Cl529  1  0.12033018  0.64605222  0.74437204  1
  Cl  Cl530  1  0.11047309  0.98429403  0.74912372  1
  Cl  Cl531  1  0.61350132  0.31649204  0.74618158  1
  Cl  Cl532  1  0.61394956  0.65054484  0.75088614  1
  Cl  Cl533  1  0.61089336  0.98210716  0.74722579  1
  Cl  Cl534  1  0.38388667  0.02022756  0.24393333  1
  Cl  Cl535  1  0.39002187  0.35454202  0.24188247  1
  Cl  Cl536  1  0.38280732  0.68437798  0.24987789  1
  Cl  Cl537  1  0.88604773  0.01968767  0.24461956  1
  Cl  Cl538  1  0.88838919  0.34911538  0.24469906  1
  Cl  Cl539  1  0.88963259  0.68288896  0.24767306  1
  Cl  Cl540  1  0.39093775  0.31413878  0.75093918  1
  Cl  Cl541  1  0.39278519  0.64645104  0.75592950  1
  Cl  Cl542  1  0.39032353  0.98104219  0.75200647  1
  Cl  Cl543  1  0.89346049  0.31519721  0.75002226  1
  Cl  Cl544  1  0.90036641  0.64699867  0.74570645  1
  Cl  Cl545  1  0.88687138  0.97852312  0.75299396  1
  Cl  Cl546  1  0.10796798  0.01848979  0.25727141  1
  Cl  Cl547  1  0.10860363  0.35195564  0.25556589  1
  Cl  Cl548  1  0.11094606  0.68993385  0.26267842  1
  Cl  Cl549  1  0.60661878  0.01579210  0.25666275  1
  Cl  Cl550  1  0.60795681  0.35266865  0.24893295  1
  Cl  Cl551  1  0.60569811  0.68518786  0.25447851  1
