# generated using pymatgen
data_H8PbC4(N3Cl2)2
_symmetry_space_group_name_H-M   'P 1'
_cell_length_a   16.62109531
_cell_length_b   22.50165795
_cell_length_c   21.58909392
_cell_angle_alpha   90.00055231
_cell_angle_beta   89.99368207
_cell_angle_gamma   89.99901102
_symmetry_Int_Tables_number   1
_chemical_formula_structural   H8PbC4(N3Cl2)2
_chemical_formula_sum   'H192 Pb24 C96 N144 Cl96'
_cell_volume   8074.36860190
_cell_formula_units_Z   24
loop_
 _symmetry_equiv_pos_site_id
 _symmetry_equiv_pos_as_xyz
  1  'x, y, z'
loop_
 _atom_site_type_symbol
 _atom_site_label
 _atom_site_symmetry_multiplicity
 _atom_site_fract_x
 _atom_site_fract_y
 _atom_site_fract_z
 _atom_site_occupancy
  H  H0  1  -0.00351335  0.03292174  0.68034320  1
  H  H1  1  0.00038568  0.36604150  0.68018745  1
  H  H2  1  0.00106146  0.69984144  0.68245769  1
  H  H3  1  0.49705185  0.03136184  0.67964504  1
  H  H4  1  0.50545530  0.36421750  0.68104285  1
  H  H5  1  0.50095689  0.70027853  0.67960615  1
  H  H6  1  0.00880510  0.30029985  0.18276839  1
  H  H7  1  0.00475513  0.63413699  0.18032456  1
  H  H8  1  -0.00686931  0.96754124  0.18312710  1
  H  H9  1  0.49636439  0.30062254  0.18000618  1
  H  H10  1  0.49305468  0.63442484  0.17799798  1
  H  H11  1  0.49246030  0.96652506  0.17682255  1
  H  H12  1  -0.00338441  0.03200100  0.81886046  1
  H  H13  1  -0.00279980  0.36480424  0.81731347  1
  H  H14  1  -0.00012127  0.69964512  0.82194796  1
  H  H15  1  0.49591006  0.03074563  0.82044578  1
  H  H16  1  0.50639098  0.36429430  0.82076778  1
  H  H17  1  0.49767989  0.69975433  0.81872712  1
  H  H18  1  -0.00760276  0.30169445  0.32018486  1
  H  H19  1  0.00675972  0.63567120  0.31890865  1
  H  H20  1  0.00335498  0.96788077  0.31843883  1
  H  H21  1  0.50495344  0.29947953  0.31887181  1
  H  H22  1  0.49734415  0.64280624  0.32266332  1
  H  H23  1  0.49710416  0.96857213  0.31911414  1
  H  H24  1  0.25010140  0.19828774  0.67872830  1
  H  H25  1  0.25365477  0.53239329  0.68360592  1
  H  H26  1  0.24790633  0.86442899  0.67945514  1
  H  H27  1  0.74884193  0.19683527  0.68253042  1
  H  H28  1  0.74366194  0.53250785  0.67984646  1
  H  H29  1  0.74870059  0.86478517  0.68088218  1
  H  H30  1  0.25547476  0.13318356  0.18091107  1
  H  H31  1  0.25409232  0.46943948  0.18198431  1
  H  H32  1  0.25641946  0.80201247  0.17863512  1
  H  H33  1  0.75317759  0.13482855  0.18059590  1
  H  H34  1  0.74263155  0.46903843  0.18094763  1
  H  H35  1  0.74619345  0.80182162  0.17894155  1
  H  H36  1  0.24484104  0.19838510  0.82027441  1
  H  H37  1  0.25271622  0.53224932  0.82132133  1
  H  H38  1  0.25121168  0.86604433  0.82016544  1
  H  H39  1  0.75185441  0.19891915  0.81928926  1
  H  H40  1  0.74840495  0.53251837  0.82012657  1
  H  H41  1  0.75485276  0.86539648  0.81879623  1
  H  H42  1  0.25742610  0.13508477  0.32388571  1
  H  H43  1  0.25663247  0.46748907  0.31726698  1
  H  H44  1  0.24852989  0.80111782  0.32088231  1
  H  H45  1  0.74737045  0.13423743  0.31763906  1
  H  H46  1  0.74374938  0.46816711  0.32015158  1
  H  H47  1  0.74491226  0.80152704  0.31792356  1
  H  H48  1  0.13129175  0.05178673  0.61989413  1
  H  H49  1  0.11733010  0.38670296  0.60457434  1
  H  H50  1  0.12483379  0.72193749  0.60965198  1
  H  H51  1  0.62758438  0.05231476  0.61522811  1
  H  H52  1  0.61911481  0.39079090  0.60108523  1
  H  H53  1  0.62380981  0.72193525  0.60772412  1
  H  H54  1  0.37789028  0.27644987  0.10389784  1
  H  H55  1  0.38598632  0.60775688  0.09435275  1
  H  H56  1  0.38170275  0.94433369  0.09722362  1
  H  H57  1  0.87090929  0.28325341  0.12627674  1
  H  H58  1  0.88030885  0.61485102  0.11138278  1
  H  H59  1  0.87981057  0.94339254  0.10429843  1
  H  H60  1  0.38092823  0.05394992  0.90032077  1
  H  H61  1  0.37024342  0.38534619  0.87753738  1
  H  H62  1  0.37534201  0.72154303  0.89318838  1
  H  H63  1  0.88248320  0.05684899  0.89665346  1
  H  H64  1  0.87319191  0.38596115  0.88784983  1
  H  H65  1  0.87697985  0.72101832  0.89251706  1
  H  H66  1  0.12824792  0.28244788  0.38007324  1
  H  H67  1  0.11957133  0.61016509  0.39971324  1
  H  H68  1  0.12414457  0.94605979  0.39241731  1
  H  H69  1  0.61833201  0.27741227  0.39669298  1
  H  H70  1  0.62209272  0.61265201  0.38988107  1
  H  H71  1  0.62050826  0.94520914  0.39115422  1
  H  H72  1  0.37459041  0.21964203  0.60808416  1
  H  H73  1  0.37655877  0.55471472  0.61260683  1
  H  H74  1  0.37580581  0.88601607  0.61079076  1
  H  H75  1  0.87442794  0.22268950  0.61254290  1
  H  H76  1  0.87811196  0.55285758  0.61939480  1
  H  H77  1  0.87703181  0.88788471  0.61316487  1
  H  H78  1  0.12208884  0.11398678  0.11536700  1
  H  H79  1  0.12912512  0.44739949  0.10997334  1
  H  H80  1  0.12254821  0.77947922  0.11615920  1
  H  H81  1  0.61822287  0.11381595  0.11874156  1
  H  H82  1  0.63087445  0.44241938  0.09920508  1
  H  H83  1  0.62738558  0.77832072  0.10396909  1
  H  H84  1  0.12988974  0.22464382  0.89749760  1
  H  H85  1  0.11962830  0.55442154  0.88308817  1
  H  H86  1  0.12595788  0.88491145  0.88863462  1
  H  H87  1  0.62284384  0.22020904  0.88463929  1
  H  H88  1  0.61900844  0.55417960  0.88772341  1
  H  H89  1  0.62023716  0.88432203  0.87778002  1
  H  H90  1  0.36827476  0.11034111  0.40422915  1
  H  H91  1  0.37491785  0.44386746  0.39069657  1
  H  H92  1  0.37506242  0.77907368  0.39045911  1
  H  H93  1  0.87146863  0.11219189  0.38968016  1
  H  H94  1  0.88150147  0.44977309  0.37783994  1
  H  H95  1  0.87394531  0.77901383  0.38630820  1
  H  H96  1  0.37042823  0.28219946  0.37942656  1
  H  H97  1  0.37364854  0.61336082  0.39086418  1
  H  H98  1  0.37198919  0.94670538  0.39123648  1
  H  H99  1  0.88149615  0.27584157  0.40303653  1
  H  H100  1  0.87292363  0.61410124  0.38111539  1
  H  H101  1  0.87511152  0.94618505  0.38713454  1
  H  H102  1  0.13142506  0.05152035  0.88117630  1
  H  H103  1  0.12267495  0.38630564  0.88566657  1
  H  H104  1  0.12600491  0.71903753  0.88999700  1
  H  H105  1  0.62849394  0.05336001  0.88563578  1
  H  H106  1  0.61716427  0.39092717  0.90190902  1
  H  H107  1  0.62478771  0.72137385  0.88775178  1
  H  H108  1  0.11796667  0.27765009  0.10161578  1
  H  H109  1  0.12976698  0.61395500  0.10920542  1
  H  H110  1  0.12824573  0.94783862  0.12034703  1
  H  H111  1  0.62580216  0.27929375  0.11285857  1
  H  H112  1  0.63183872  0.61580737  0.12425015  1
  H  H113  1  0.62838374  0.94863669  0.11986570  1
  H  H114  1  0.37902900  0.05602235  0.60262372  1
  H  H115  1  0.37174397  0.38350477  0.61772151  1
  H  H116  1  0.37459492  0.72129512  0.60925890  1
  H  H117  1  0.88281279  0.05569981  0.60308126  1
  H  H118  1  0.86856614  0.38716401  0.61765226  1
  H  H119  1  0.87526400  0.71953855  0.61191606  1
  H  H120  1  0.12142292  0.11511440  0.38256049  1
  H  H121  1  0.12600891  0.44880527  0.38228387  1
  H  H122  1  0.12602617  0.77877521  0.39324901  1
  H  H123  1  0.62221702  0.11286712  0.38839191  1
  H  H124  1  0.63428566  0.44200386  0.40144808  1
  H  H125  1  0.62534417  0.77796944  0.39457507  1
  H  H126  1  0.37738347  0.21606437  0.88346634  1
  H  H127  1  0.36817218  0.55696821  0.89967583  1
  H  H128  1  0.37522877  0.88726040  0.89070706  1
  H  H129  1  0.87164024  0.22145507  0.89150878  1
  H  H130  1  0.86706862  0.55676815  0.89610501  1
  H  H131  1  0.86867471  0.88740006  0.89716608  1
  H  H132  1  0.36980684  0.10878327  0.10087204  1
  H  H133  1  0.37820648  0.44565865  0.11095549  1
  H  H134  1  0.36995640  0.77922705  0.09794730  1
  H  H135  1  0.86714116  0.11208124  0.10202179  1
  H  H136  1  0.87734918  0.44859993  0.12008120  1
  H  H137  1  0.87643721  0.77895031  0.11393736  1
  H  H138  1  0.12587002  0.22179274  0.60726210  1
  H  H139  1  0.12700816  0.55198116  0.61599772  1
  H  H140  1  0.12696014  0.88850044  0.60693735  1
  H  H141  1  0.62444865  0.21924580  0.61281748  1
  H  H142  1  0.63032634  0.55937121  0.60042057  1
  H  H143  1  0.62727581  0.88673987  0.60756048  1
  H  H144  1  0.34205083  0.25452874  0.98505281  1
  H  H145  1  0.83528151  0.91377100  0.50714140  1
  H  H146  1  0.65835539  0.58133881  0.99404543  1
  H  H147  1  0.92274746  0.74662529  0.50220208  1
  H  H148  1  0.55085463  0.41312251  0.49834260  1
  H  H149  1  0.16905996  0.57648032  0.50241996  1
  H  H150  1  0.15589747  0.75172092  0.01025740  1
  H  H151  1  0.58572232  0.25170695  0.00715195  1
  H  H152  1  0.66824330  0.08386287  0.49743633  1
  H  H153  1  0.69774439  0.58439705  0.49740004  1
  H  H154  1  0.67723695  0.91450805  0.49862431  1
  H  H155  1  0.94112210  0.08313369  0.49470271  1
  H  H156  1  0.55694676  0.25156078  0.50678428  1
  H  H157  1  0.45940532  0.58342942  -0.00636249  1
  H  H158  1  0.95509268  0.25352422  0.50463859  1
  H  H159  1  0.83844299  0.74974144  0.00817794  1
  H  H160  1  0.33137737  0.41777818  0.00187080  1
  H  H161  1  0.82461654  0.25161072  1.00119806  1
  H  H162  1  0.91754728  0.41375682  0.99815435  1
  H  H163  1  0.82434117  0.24010939  0.50455539  1
  H  H164  1  0.94326895  0.08357992  1.00486136  1
  H  H165  1  0.65067579  0.08529412  0.01182202  1
  H  H166  1  0.16866297  0.91463942  1.00078381  1
  H  H167  1  0.80593694  0.08671005  -0.00641939  1
  H  H168  1  0.56430421  0.60057584  0.49632563  1
  H  H169  1  0.86120820  0.42027787  0.48707263  1
  H  H170  1  0.92475276  0.58732446  -0.00146612  1
  H  H171  1  0.57989404  0.75159827  0.99682935  1
  H  H172  1  0.67201259  0.24298425  0.50040105  1
  H  H173  1  0.04975590  0.58760714  0.50247945  1
  H  H174  1  0.09887896  0.07955163  0.98827053  1
  H  H175  1  0.70185871  0.41731782  -0.00212496  1
  H  H176  1  0.06452520  0.41529576  0.49601046  1
  H  H177  1  0.54694012  0.41552019  1.00405032  1
  H  H178  1  0.08111267  0.41531630  0.99631115  1
  H  H179  1  0.70266025  0.41640071  0.50786225  1
  H  H180  1  0.07177587  0.91727917  0.50013175  1
  H  H181  1  0.05169996  0.25270084  -0.00628877  1
  H  H182  1  0.14628478  0.08480644  0.49170485  1
  H  H183  1  0.94543267  0.91419727  -0.00230021  1
  H  H184  1  0.19508659  0.23531524  1.00200599  1
  H  H185  1  0.32218238  0.41464761  0.50045487  1
  H  H186  1  0.42189113  0.91722241  0.49451722  1
  H  H187  1  0.43713789  0.60720697  0.49727362  1
  H  H188  1  0.32840564  0.57403060  0.49930847  1
  H  H189  1  0.80738058  0.91411230  1.00559285  1
  H  H190  1  0.30330727  0.58423198  1.00300909  1
  H  H191  1  0.64243709  0.91402871  0.99131644  1
  Pb  Pb192  1  0.25355623  0.04494317  0.74711351  1
  Pb  Pb193  1  0.24733838  0.38038288  0.74898241  1
  Pb  Pb194  1  0.24659558  0.71449048  0.75131807  1
  Pb  Pb195  1  0.74872654  0.04690735  0.75201265  1
  Pb  Pb196  1  0.74718639  0.38097600  0.75333698  1
  Pb  Pb197  1  0.75388399  0.71430785  0.75257632  1
  Pb  Pb198  1  0.24641074  0.28643432  0.23869946  1
  Pb  Pb199  1  0.25271245  0.62033297  0.24926169  1
  Pb  Pb200  1  0.25399333  0.95254475  0.25068534  1
  Pb  Pb201  1  0.75215907  0.28363404  0.25833456  1
  Pb  Pb202  1  0.75047591  0.62137333  0.25376717  1
  Pb  Pb203  1  0.74938730  0.95399869  0.25225251  1
  Pb  Pb204  1  0.00042345  0.21233726  0.74868527  1
  Pb  Pb205  1  -0.00102100  0.54702407  0.74907668  1
  Pb  Pb206  1  0.00190086  0.88217811  0.75148708  1
  Pb  Pb207  1  0.49703326  0.21327580  0.74929003  1
  Pb  Pb208  1  0.49853656  0.55036860  0.74719290  1
  Pb  Pb209  1  0.50053236  0.87751959  0.74387989  1
  Pb  Pb210  1  0.00191342  0.11774188  0.24618844  1
  Pb  Pb211  1  0.00083124  0.45456520  0.24632430  1
  Pb  Pb212  1  0.00054413  0.78747967  0.25163584  1
  Pb  Pb213  1  0.49673899  0.12038412  0.25221551  1
  Pb  Pb214  1  0.50395927  0.45028199  0.25137939  1
  Pb  Pb215  1  0.50107950  0.78806579  0.24701764  1
  C  C216  1  0.00313776  0.04705290  0.63260872  1
  C  C217  1  -0.00417078  0.38016113  0.63233542  1
  C  C218  1  0.00040494  0.71421781  0.63455579  1
  C  C219  1  0.50108434  0.04645452  0.63225042  1
  C  C220  1  0.49913468  0.37923370  0.63351690  1
  C  C221  1  0.49951599  0.71448071  0.63181661  1
  C  C222  1  -0.00067588  0.28698860  0.13508145  1
  C  C223  1  0.00450677  0.62084102  0.13214678  1
  C  C224  1  0.00072217  0.95318248  0.13551721  1
  C  C225  1  0.50026458  0.28558079  0.13237036  1
  C  C226  1  0.50354508  0.61987415  0.13075038  1
  C  C227  1  0.50108790  0.95316134  0.12918911  1
  C  C228  1  0.00411408  0.04682718  0.86647397  1
  C  C229  1  -0.00241134  0.37936778  0.86527124  1
  C  C230  1  0.00097467  0.71358141  0.86991160  1
  C  C231  1  0.50193624  0.04528537  0.86819799  1
  C  C232  1  0.49808499  0.37918410  0.86808705  1
  C  C233  1  0.49924352  0.71424175  0.86660146  1
  C  C234  1  0.00023063  0.28735992  0.36776539  1
  C  C235  1  -0.00003586  0.62083102  0.36642861  1
  C  C236  1  0.00052448  0.95323345  0.36623965  1
  C  C237  1  0.49818984  0.28640648  0.36686099  1
  C  C238  1  0.49770585  0.62406658  0.36898204  1
  C  C239  1  0.49619366  0.95341223  0.36679537  1
  C  C240  1  0.24994359  0.21301929  0.63110594  1
  C  C241  1  0.25246828  0.54636543  0.63544460  1
  C  C242  1  0.25048999  0.87959385  0.63207731  1
  C  C243  1  0.74993249  0.21256686  0.63492168  1
  C  C244  1  0.75046685  0.54689127  0.63233503  1
  C  C245  1  0.75141330  0.88002717  0.63316573  1
  C  C246  1  0.24890650  0.11923240  0.13301631  1
  C  C247  1  0.25372803  0.45404077  0.13439004  1
  C  C248  1  0.24935623  0.78680641  0.13126369  1
  C  C249  1  0.74562035  0.11966911  0.13310391  1
  C  C250  1  0.75002959  0.45401881  0.13352985  1
  C  C251  1  0.75036740  0.78621848  0.13156752  1
  C  C252  1  0.25080527  0.21290572  0.86806627  1
  C  C253  1  0.24699361  0.54712111  0.86879769  1
  C  C254  1  0.25025768  0.87977797  0.86821223  1
  C  C255  1  0.74918525  0.21366487  0.86699996  1
  C  C256  1  0.74432972  0.54744055  0.86782553  1
  C  C257  1  0.74755504  0.87962644  0.86658339  1
  C  C258  1  0.24858506  0.11998363  0.37106168  1
  C  C259  1  0.25288428  0.45336251  0.36512023  1
  C  C260  1  0.25009077  0.78639101  0.36846581  1
  C  C261  1  0.74712668  0.11968229  0.36549171  1
  C  C262  1  0.75392281  0.45314981  0.36747814  1
  C  C263  1  0.74813168  0.78664809  0.36565781  1
  C  C264  1  0.20383757  0.42894850  0.45658034  1
  C  C265  1  0.56618524  0.59387015  0.04426096  1
  C  C266  1  0.70925494  0.09435006  0.45864933  1
  C  C267  1  0.47786483  0.92772804  0.03331092  1
  C  C268  1  0.02587084  0.40557652  0.53569384  1
  C  C269  1  0.28513354  0.42666468  0.46099278  1
  C  C270  1  0.55790315  0.92894899  0.04069693  1
  C  C271  1  0.20924127  0.90502690  0.96255661  1
  C  C272  1  0.93942490  0.26450947  0.04698017  1
  C  C273  1  0.53523969  0.74064273  0.53853631  1
  C  C274  1  0.80648378  0.57506286  0.54345374  1
  C  C275  1  0.78339873  0.24056951  0.96255242  1
  C  C276  1  0.96212054  0.73909793  0.96359018  1
  C  C277  1  0.71466384  0.90546049  0.53876731  1
  C  C278  1  0.05819286  0.07122698  0.54306147  1
  C  C279  1  0.77369251  0.09518027  0.03667062  1
  C  C280  1  0.19322320  0.57521915  0.95851843  1
  C  C281  1  0.52400107  0.26192522  0.46454112  1
  C  C282  1  0.97692429  0.92623468  0.04017300  1
  C  C283  1  0.29083423  0.90570891  0.96161777  1
  C  C284  1  0.54729521  0.07383642  0.54167394  1
  C  C285  1  0.71595308  0.75761708  0.03633771  1
  C  C286  1  0.21634097  0.90800472  0.53865813  1
  C  C287  1  0.28791861  0.24049538  0.53866471  1
  C  C288  1  0.04624165  0.59780052  0.03793558  1
  C  C289  1  0.96224784  0.73794420  0.54134785  1
  C  C290  1  0.53910562  0.74025932  0.95879887  1
  C  C291  1  0.44318208  0.26384149  0.45680616  1
  C  C292  1  0.95778033  0.40388249  0.95979447  1
  C  C293  1  0.21509905  0.75874062  0.46142865  1
  C  C294  1  0.03990500  0.40453558  0.95891371  1
  C  C295  1  0.97711916  0.07297234  0.53536959  1
  C  C296  1  0.02004228  0.26242026  0.03670622  1
  C  C297  1  0.96457329  0.59713204  0.03712555  1
  C  C298  1  0.03356488  0.92770623  0.46035433  1
  C  C299  1  0.70169713  0.23964814  0.95871432  1
  C  C300  1  0.69218447  0.90389500  0.95646853  1
  C  C301  1  0.29092656  0.56825539  0.54001598  1
  C  C302  1  0.73254818  0.42652351  0.46423241  1
  C  C303  1  0.94445875  0.40526427  0.54159354  1
  C  C304  1  0.20893107  0.56823463  0.54136945  1
  C  C305  1  0.70870245  0.23772944  0.54169068  1
  C  C306  1  0.04400556  0.73835901  0.96252727  1
  C  C307  1  0.97576309  0.07302846  0.96240502  1
  C  C308  1  0.29060475  0.42768477  0.04120325  1
  C  C309  1  0.77386505  0.90462041  0.96351229  1
  C  C310  1  0.43887132  0.40701543  0.95578368  1
  C  C311  1  0.27328544  0.09094189  0.46764045  1
  N  N312  1  0.81131577  0.42859077  0.45486752  1
  N  N313  1  0.70112225  0.57220420  0.95836813  1
  N  N314  1  0.98107111  0.25985930  0.46188349  1
  N  N315  1  0.05582785  0.92826643  0.04552195  1
  N  N316  1  0.27190041  0.57525685  0.96316062  1
  N  N317  1  0.46464663  0.26040922  0.03739092  1
  N  N318  1  0.45986528  0.73988010  0.96130004  1
  N  N319  1  0.29420473  0.90763046  0.53905345  1
  N  N320  1  0.45651257  0.58608011  0.45748515  1
  N  N321  1  0.27808333  0.76088410  0.03511659  1
  N  N322  1  0.94446347  0.59553580  0.45535847  1
  N  N323  1  0.79215753  0.75949411  0.45771348  1
  N  N324  1  0.77942038  0.57315220  0.96266258  1
  N  N325  1  0.48794603  0.59152375  0.03508144  1
  N  N326  1  0.21055046  0.24119499  0.53699240  1
  N  N327  1  0.78883339  0.09466690  0.45988402  1
  N  N328  1  0.79491858  0.75847810  0.04118589  1
  N  N329  1  0.72945506  0.42572973  0.03969653  1
  N  N330  1  0.44414298  0.40366288  0.54420487  1
  N  N331  1  0.22287559  0.24452369  0.96064652  1
  N  N332  1  0.46982811  0.07560555  0.53654718  1
  N  N333  1  0.19516442  0.09331468  0.45903508  1
  N  N334  1  0.52182544  0.40682155  0.53969239  1
  N  N335  1  0.71553681  0.75932818  0.46039083  1
  N  N336  1  0.20050274  0.76085538  0.04314995  1
  N  N337  1  0.45970406  0.92774885  0.45847816  1
  N  N338  1  0.30149913  0.23148359  0.95839436  1
  N  N339  1  0.54330501  0.26161620  0.04162107  1
  N  N340  1  0.55030593  0.07162609  0.95916213  1
  N  N341  1  0.53973253  0.58398216  0.45596970  1
  N  N342  1  0.47420151  0.07190297  0.96413866  1
  N  N343  1  0.27594663  0.09276055  0.03693207  1
  N  N344  1  0.05846600  0.26307359  0.45596188  1
  N  N345  1  0.51760485  0.40826928  0.96284495  1
  N  N346  1  0.80710640  0.42826532  0.04537457  1
  N  N347  1  0.45777870  0.73964518  0.53748519  1
  N  N348  1  0.21110763  0.42796126  0.04062807  1
  N  N349  1  0.05487128  0.07121263  0.95570580  1
  N  N350  1  0.95404646  0.92801102  0.45936689  1
  N  N351  1  0.19970928  0.09515216  0.04157317  1
  N  N352  1  0.79427709  0.90663220  0.54197354  1
  N  N353  1  0.69463697  0.09515467  0.04402679  1
  N  N354  1  0.29241097  0.75840823  0.46174520  1
  N  N355  1  0.78828711  0.24028667  0.54296241  1
  N  N356  1  0.72799458  0.57573371  0.53777431  1
  N  N357  1  0.53811651  0.92664475  0.45983977  1
  N  N358  1  0.04164888  0.73888176  0.54006969  1
  N  N359  1  0.02210914  0.59351196  0.46045662  1
  N  N360  1  0.07334587  0.05579627  0.60214204  1
  N  N361  1  0.05661002  0.38982065  0.59357766  1
  N  N362  1  0.06361178  0.72423199  0.59856048  1
  N  N363  1  0.56883801  0.05638151  0.59960593  1
  N  N364  1  0.55715859  0.38999884  0.59312665  1
  N  N365  1  0.56374761  0.72523009  0.59517788  1
  N  N366  1  0.43893276  0.27526247  0.09421603  1
  N  N367  1  0.44848355  0.60932660  0.08812975  1
  N  N368  1  0.44286581  0.94234841  0.08712949  1
  N  N369  1  0.92754607  0.27905444  0.10639633  1
  N  N370  1  0.93982928  0.61172493  0.09682240  1
  N  N371  1  0.94162746  0.94165558  0.09498964  1
  N  N372  1  0.44272044  0.05541279  0.90805085  1
  N  N373  1  0.42702370  0.39003831  0.89675454  1
  N  N374  1  0.43673564  0.72389855  0.90343678  1
  N  N375  1  0.94385339  0.05806390  0.90687605  1
  N  N376  1  0.93287222  0.38828048  0.90118726  1
  N  N377  1  0.93691171  0.72393292  0.90644106  1
  N  N378  1  0.06986987  0.27847402  0.39677183  1
  N  N379  1  0.05778429  0.61112855  0.40736817  1
  N  N380  1  0.06329326  0.94294510  0.40364554  1
  N  N381  1  0.55767341  0.27618305  0.40713236  1
  N  N382  1  0.56169799  0.61200343  0.40299623  1
  N  N383  1  0.55996034  0.94296892  0.40252932  1
  N  N384  1  0.31488610  0.22340579  0.59524903  1
  N  N385  1  0.31681884  0.55485882  0.59895166  1
  N  N386  1  0.31536612  0.88964327  0.59846294  1
  N  N387  1  0.81369969  0.22152469  0.59969410  1
  N  N388  1  0.82060623  0.55727268  0.60188413  1
  N  N389  1  0.81672420  0.89010519  0.59993442  1
  N  N390  1  0.18161383  0.11158386  0.10127118  1
  N  N391  1  0.19013149  0.44437531  0.09885036  1
  N  N392  1  0.18179858  0.77608270  0.10123324  1
  N  N393  1  0.67755671  0.10957325  0.10346702  1
  N  N394  1  0.69307245  0.44304474  0.09242110  1
  N  N395  1  0.68809669  0.77473381  0.09247977  1
  N  N396  1  0.19130500  0.22178215  0.90773731  1
  N  N397  1  0.17751445  0.55799975  0.90006610  1
  N  N398  1  0.18512981  0.88874768  0.90314693  1
  N  N399  1  0.68176824  0.22366376  0.90075699  1
  N  N400  1  0.67871323  0.55652583  0.90101006  1
  N  N401  1  0.67785807  0.88851156  0.89601432  1
  N  N402  1  0.30690680  0.10753722  0.41318095  1
  N  N403  1  0.31472339  0.44226041  0.40286756  1
  N  N404  1  0.31450980  0.77603694  0.40266671  1
  N  N405  1  0.81047430  0.11012975  0.40131893  1
  N  N406  1  0.82359135  0.44465265  0.39531701  1
  N  N407  1  0.81354381  0.77626016  0.39894649  1
  N  N408  1  0.42814136  0.27838857  0.39791842  1
  N  N409  1  0.43394590  0.61246087  0.40341585  1
  N  N410  1  0.43282685  0.94340475  0.40222905  1
  N  N411  1  0.94358882  0.27702990  0.40943039  1
  N  N412  1  0.93132100  0.61084507  0.39633658  1
  N  N413  1  0.93532639  0.94397384  0.40003324  1
  N  N414  1  0.07215842  0.05512870  0.89671997  1
  N  N415  1  0.06302972  0.38939266  0.89998112  1
  N  N416  1  0.06664543  0.72297513  0.90494132  1
  N  N417  1  0.56887848  0.05503102  0.89968360  1
  N  N418  1  0.55502813  0.38891220  0.90950545  1
  N  N419  1  0.56486058  0.72437285  0.90103562  1
  N  N420  1  0.05649692  0.27659797  0.09307468  1
  N  N421  1  0.07001477  0.61186804  0.09550175  1
  N  N422  1  0.06888368  0.94481616  0.10511932  1
  N  N423  1  0.56575787  0.27650771  0.09909848  1
  N  N424  1  0.57587931  0.61042200  0.10378781  1
  N  N425  1  0.57192028  0.94443986  0.10008004  1
  N  N426  1  0.44095225  0.05811895  0.59425502  1
  N  N427  1  0.43074079  0.38812397  0.60291784  1
  N  N428  1  0.43527909  0.72349412  0.59707048  1
  N  N429  1  0.94385051  0.05772927  0.59265090  1
  N  N430  1  0.92682583  0.39017466  0.60048729  1
  N  N431  1  0.93541094  0.72328662  0.59908417  1
  N  N432  1  0.17946342  0.11108344  0.39954566  1
  N  N433  1  0.18478373  0.44484837  0.39865321  1
  N  N434  1  0.18612649  0.77549475  0.40527897  1
  N  N435  1  0.68244428  0.10973246  0.40100322  1
  N  N436  1  0.69644828  0.44148784  0.41000151  1
  N  N437  1  0.68701207  0.77623110  0.40364725  1
  N  N438  1  0.31862228  0.22284036  0.89823570  1
  N  N439  1  0.30634183  0.55680511  0.90834241  1
  N  N440  1  0.31526470  0.89043349  0.90480060  1
  N  N441  1  0.81167914  0.22413151  0.90406206  1
  N  N442  1  0.80560304  0.55804058  0.90607426  1
  N  N443  1  0.80716632  0.88962313  0.90707940  1
  N  N444  1  0.30778227  0.10772115  0.09328824  1
  N  N445  1  0.31804392  0.44329083  0.09866670  1
  N  N446  1  0.30827339  0.77684648  0.09050254  1
  N  N447  1  0.80575250  0.11016630  0.09214294  1
  N  N448  1  0.81919775  0.44461293  0.10422292  1
  N  N449  1  0.81665861  0.77622023  0.09959554  1
  N  N450  1  0.18658712  0.22364609  0.59592669  1
  N  N451  1  0.18644387  0.55457875  0.60096849  1
  N  N452  1  0.18728866  0.89138230  0.59483330  1
  N  N453  1  0.68454816  0.22270740  0.59922751  1
  N  N454  1  0.69206511  0.55651454  0.59194988  1
  N  N455  1  0.68785541  0.88979052  0.59559445  1
  Cl  Cl456  1  0.25589516  0.05420468  0.61241519  1
  Cl  Cl457  1  0.24671688  0.38444699  0.61765787  1
  Cl  Cl458  1  0.24876679  0.71863060  0.62037534  1
  Cl  Cl459  1  0.75281859  0.05235359  0.62039288  1
  Cl  Cl460  1  0.73990382  0.38961953  0.61329968  1
  Cl  Cl461  1  0.74992132  0.71472003  0.62168003  1
  Cl  Cl462  1  0.24928661  0.27353695  0.10138652  1
  Cl  Cl463  1  0.26279099  0.60810815  0.10658945  1
  Cl  Cl464  1  0.25408158  0.94526750  0.11792605  1
  Cl  Cl465  1  0.74504750  0.28204458  0.12457256  1
  Cl  Cl466  1  0.75531486  0.61690859  0.12202622  1
  Cl  Cl467  1  0.75887523  0.94736044  0.11944472  1
  Cl  Cl468  1  0.25579126  0.05230121  0.87938398  1
  Cl  Cl469  1  0.24687850  0.38399272  0.88178643  1
  Cl  Cl470  1  0.25097970  0.71689261  0.88475759  1
  Cl  Cl471  1  0.75678166  0.05816041  0.88873302  1
  Cl  Cl472  1  0.73917997  0.39217029  0.89254633  1
  Cl  Cl473  1  0.75114133  0.72128453  0.88813563  1
  Cl  Cl474  1  0.24870669  0.28391228  0.36876033  1
  Cl  Cl475  1  0.24608434  0.61063990  0.38512587  1
  Cl  Cl476  1  0.24876024  0.94977510  0.38444425  1
  Cl  Cl477  1  0.75678182  0.27489025  0.39842387  1
  Cl  Cl478  1  0.74342027  0.60635457  0.39169316  1
  Cl  Cl479  1  0.74738762  0.94419460  0.38888727  1
  Cl  Cl480  1  -0.00391647  0.22533510  0.60942652  1
  Cl  Cl481  1  0.00455164  0.55611938  0.61268270  1
  Cl  Cl482  1  0.00146450  0.88808144  0.61714560  1
  Cl  Cl483  1  0.50146594  0.21965856  0.61641156  1
  Cl  Cl484  1  0.50640375  0.56310589  0.60459723  1
  Cl  Cl485  1  0.50059584  0.88673673  0.60998691  1
  Cl  Cl486  1  -0.00678972  0.11170507  0.10968094  1
  Cl  Cl487  1  0.00425250  0.44685073  0.11384499  1
  Cl  Cl488  1  -0.00039922  0.77967697  0.11850287  1
  Cl  Cl489  1  0.49395437  0.11464675  0.11848703  1
  Cl  Cl490  1  0.50937014  0.44299898  0.10524850  1
  Cl  Cl491  1  0.49974061  0.77991371  0.11391962  1
  Cl  Cl492  1  0.00717233  0.22042661  0.88251218  1
  Cl  Cl493  1  -0.00929908  0.55554653  0.88090217  1
  Cl  Cl494  1  -0.00717292  0.88650210  0.88471847  1
  Cl  Cl495  1  0.49968974  0.22158926  0.88326833  1
  Cl  Cl496  1  0.49177452  0.55578208  0.89313879  1
  Cl  Cl497  1  0.49659196  0.88294370  0.87375593  1
  Cl  Cl498  1  -0.00433422  0.11504597  0.37972933  1
  Cl  Cl499  1  0.00341830  0.44980951  0.37919422  1
  Cl  Cl500  1  -0.00154602  0.77947950  0.38389042  1
  Cl  Cl501  1  0.49554658  0.11507192  0.38321879  1
  Cl  Cl502  1  0.51109903  0.44121836  0.38857266  1
  Cl  Cl503  1  0.50233945  0.77899898  0.38023693  1
  Cl  Cl504  1  0.36133038  0.14635896  0.75267106  1
  Cl  Cl505  1  0.36354973  0.47731107  0.74956666  1
  Cl  Cl506  1  0.36344972  0.81018242  0.74903735  1
  Cl  Cl507  1  0.86421247  0.14523042  0.75050804  1
  Cl  Cl508  1  0.85972479  0.47788060  0.74769845  1
  Cl  Cl509  1  0.85759782  0.81002544  0.74897155  1
  Cl  Cl510  1  0.13741833  0.18988092  0.24937252  1
  Cl  Cl511  1  0.13785872  0.52146036  0.24881228  1
  Cl  Cl512  1  0.13611500  0.85580199  0.24795410  1
  Cl  Cl513  1  0.63782769  0.18987313  0.24818638  1
  Cl  Cl514  1  0.63900448  0.52074961  0.25086747  1
  Cl  Cl515  1  0.63970145  0.85500067  0.24853675  1
  Cl  Cl516  1  0.13707186  0.14359503  0.74805563  1
  Cl  Cl517  1  0.13849616  0.47822725  0.75254474  1
  Cl  Cl518  1  0.13842561  0.80927242  0.75117947  1
  Cl  Cl519  1  0.64063045  0.14500447  0.75163969  1
  Cl  Cl520  1  0.63671659  0.47789626  0.75144667  1
  Cl  Cl521  1  0.63716955  0.81090692  0.75081047  1
  Cl  Cl522  1  0.36226133  0.18933454  0.25085130  1
  Cl  Cl523  1  0.36265723  0.52253487  0.25031104  1
  Cl  Cl524  1  0.36012605  0.85421706  0.25203385  1
  Cl  Cl525  1  0.85739838  0.19011685  0.24760511  1
  Cl  Cl526  1  0.86233124  0.52066597  0.25184276  1
  Cl  Cl527  1  0.86441362  0.85552136  0.25061038  1
  Cl  Cl528  1  0.11289260  0.31175366  0.75116763  1
  Cl  Cl529  1  0.11207296  0.64308612  0.75000580  1
  Cl  Cl530  1  0.11027214  0.97750781  0.75078631  1
  Cl  Cl531  1  0.61258383  0.31137707  0.75051836  1
  Cl  Cl532  1  0.60961041  0.64206568  0.75243336  1
  Cl  Cl533  1  0.61483225  0.97704643  0.74972267  1
  Cl  Cl534  1  0.38818641  0.02122152  0.25048502  1
  Cl  Cl535  1  0.39027488  0.35628764  0.24824901  1
  Cl  Cl536  1  0.38909694  0.68723111  0.25150218  1
  Cl  Cl537  1  0.88696932  0.02330319  0.25380868  1
  Cl  Cl538  1  0.88597253  0.35579693  0.24739097  1
  Cl  Cl539  1  0.88760602  0.68799140  0.25249566  1
  Cl  Cl540  1  0.38902069  0.31182203  0.75142389  1
  Cl  Cl541  1  0.39017446  0.64191070  0.74869205  1
  Cl  Cl542  1  0.38954477  0.97787276  0.74747221  1
  Cl  Cl543  1  0.88540626  0.31149563  0.74626631  1
  Cl  Cl544  1  0.88696470  0.64381853  0.75082929  1
  Cl  Cl545  1  0.88846509  0.97763428  0.75069875  1
  Cl  Cl546  1  0.10873934  0.02465359  0.24732259  1
  Cl  Cl547  1  0.11103990  0.35441794  0.25092664  1
  Cl  Cl548  1  0.11267198  0.68719164  0.24715239  1
  Cl  Cl549  1  0.61347403  0.02157891  0.24776013  1
  Cl  Cl550  1  0.60966910  0.35700390  0.24894732  1
  Cl  Cl551  1  0.61248896  0.68717598  0.24779542  1
