# generated using pymatgen
data_H8PbC4(N3Cl2)2
_symmetry_space_group_name_H-M   'P 1'
_cell_length_a   16.62735891
_cell_length_b   22.51604754
_cell_length_c   21.59531098
_cell_angle_alpha   90.00070293
_cell_angle_beta   89.99685444
_cell_angle_gamma   89.99949232
_symmetry_Int_Tables_number   1
_chemical_formula_structural   H8PbC4(N3Cl2)2
_chemical_formula_sum   'H192 Pb24 C96 N144 Cl96'
_cell_volume   8084.90441979
_cell_formula_units_Z   24
loop_
 _symmetry_equiv_pos_site_id
 _symmetry_equiv_pos_as_xyz
  1  'x, y, z'
loop_
 _atom_site_type_symbol
 _atom_site_label
 _atom_site_symmetry_multiplicity
 _atom_site_fract_x
 _atom_site_fract_y
 _atom_site_fract_z
 _atom_site_occupancy
  H  H0  1  0.01438471  0.03116312  0.68116520  1
  H  H1  1  0.00041277  0.35975497  0.68004376  1
  H  H2  1  0.00013404  0.69694383  0.68172304  1
  H  H3  1  0.49332006  0.03115167  0.68050349  1
  H  H4  1  0.49758448  0.36327994  0.67816036  1
  H  H5  1  0.49698131  0.69571860  0.67770949  1
  H  H6  1  -0.00215900  0.30692889  0.17944943  1
  H  H7  1  -0.00966659  0.63312421  0.17554999  1
  H  H8  1  -0.01321630  0.97245802  0.17403997  1
  H  H9  1  0.49603403  0.30421378  0.17945122  1
  H  H10  1  0.49334623  0.64071523  0.17750061  1
  H  H11  1  0.51110853  0.96991647  0.18031250  1
  H  H12  1  0.00109386  0.02970574  0.82066191  1
  H  H13  1  -0.00437479  0.35963463  0.82491205  1
  H  H14  1  -0.00943972  0.69193953  0.82423084  1
  H  H15  1  0.49100415  0.03076648  0.82099077  1
  H  H16  1  0.50724076  0.36342555  0.81993914  1
  H  H17  1  0.51202465  0.69774485  0.82609117  1
  H  H18  1  0.00461416  0.30604288  0.31882155  1
  H  H19  1  -0.00717226  0.63915038  0.32201096  1
  H  H20  1  0.00269177  0.97060597  0.31805970  1
  H  H21  1  0.48824889  0.29934079  0.32226075  1
  H  H22  1  0.50542510  0.63564191  0.31738672  1
  H  H23  1  0.49370276  0.96999783  0.32433900  1
  H  H24  1  0.23825231  0.19690622  0.68248368  1
  H  H25  1  0.24723394  0.53128447  0.68047208  1
  H  H26  1  0.24824232  0.86099954  0.68173204  1
  H  H27  1  0.76060453  0.19648060  0.67331541  1
  H  H28  1  0.73834771  0.53184829  0.68055037  1
  H  H29  1  0.75189992  0.86081973  0.67873300  1
  H  H30  1  0.25141729  0.13770659  0.18241292  1
  H  H31  1  0.25301172  0.47118363  0.18014155  1
  H  H32  1  0.23738773  0.80370794  0.17468553  1
  H  H33  1  0.75458954  0.13936414  0.17691701  1
  H  H34  1  0.75090896  0.46799471  0.17288139  1
  H  H35  1  0.76329543  0.80414694  0.17719593  1
  H  H36  1  0.25471227  0.19759819  0.82268248  1
  H  H37  1  0.26255496  0.52693078  0.82323682  1
  H  H38  1  0.24966264  0.86250273  0.82415022  1
  H  H39  1  0.75509001  0.19418189  0.81886749  1
  H  H40  1  0.74793572  0.52883972  0.82281884  1
  H  H41  1  0.76215113  0.86352966  0.81991395  1
  H  H42  1  0.25992054  0.13952484  0.32014864  1
  H  H43  1  0.25869629  0.46903577  0.32060702  1
  H  H44  1  0.24832938  0.80520901  0.31811427  1
  H  H45  1  0.74156834  0.13114459  0.31921011  1
  H  H46  1  0.74086897  0.46873100  0.32160675  1
  H  H47  1  0.74515838  0.80617803  0.31826580  1
  H  H48  1  0.12056967  0.05740953  0.59712374  1
  H  H49  1  0.13034912  0.38609339  0.61384628  1
  H  H50  1  0.12405384  0.71858004  0.61163487  1
  H  H51  1  0.62217032  0.04881956  0.61332991  1
  H  H52  1  0.63169896  0.38498392  0.61814836  1
  H  H53  1  0.62373805  0.72172488  0.61160596  1
  H  H54  1  0.37256028  0.27935922  0.10906005  1
  H  H55  1  0.38755614  0.60749645  0.09377875  1
  H  H56  1  0.37952303  0.94782650  0.11855574  1
  H  H57  1  0.87372563  0.28133076  0.11055883  1
  H  H58  1  0.88081183  0.60827868  0.09451209  1
  H  H59  1  0.88972641  0.94050365  0.08578307  1
  H  H60  1  0.38578868  0.05742176  0.90349691  1
  H  H61  1  0.37561889  0.38321332  0.88449867  1
  H  H62  1  0.37306485  0.71806548  0.88173864  1
  H  H63  1  0.88445775  0.05759049  0.89612875  1
  H  H64  1  0.87723575  0.39045566  0.89840556  1
  H  H65  1  0.88072796  0.72060085  0.90584844  1
  H  H66  1  0.13083235  0.28039792  0.38870786  1
  H  H67  1  0.11808071  0.61159530  0.39051454  1
  H  H68  1  0.12781337  0.94667318  0.38644601  1
  H  H69  1  0.62915019  0.28504542  0.37462473  1
  H  H70  1  0.62006780  0.61147097  0.39446516  1
  H  H71  1  0.63019263  0.94791794  0.37987456  1
  H  H72  1  0.36893777  0.21774533  0.61640175  1
  H  H73  1  0.37666110  0.55252635  0.61386538  1
  H  H74  1  0.36995029  0.88720063  0.60796324  1
  H  H75  1  0.86656262  0.22787539  0.59108683  1
  H  H76  1  0.87837853  0.55023056  0.62535147  1
  H  H77  1  0.86618665  0.89090022  0.60175899  1
  H  H78  1  0.11962972  0.11688599  0.12019789  1
  H  H79  1  0.12617446  0.44815978  0.11074733  1
  H  H80  1  0.13397127  0.77182691  0.08938704  1
  H  H81  1  0.62081416  0.11582341  0.11575844  1
  H  H82  1  0.62514783  0.44599041  0.10648804  1
  H  H83  1  0.62514870  0.78191791  0.12379640  1
  H  H84  1  0.12839308  0.21865561  0.88899448  1
  H  H85  1  0.12058253  0.54902387  0.87277411  1
  H  H86  1  0.12046689  0.88695164  0.88964562  1
  H  H87  1  0.62931320  0.21968437  0.88906746  1
  H  H88  1  0.62415229  0.55294248  0.89094050  1
  H  H89  1  0.62223371  0.88323824  0.87392720  1
  H  H90  1  0.37722334  0.10955540  0.39358709  1
  H  H91  1  0.36098542  0.44155428  0.40528096  1
  H  H92  1  0.37393252  0.78081109  0.38949269  1
  H  H93  1  0.87790711  0.11401656  0.37776464  1
  H  H94  1  0.86706006  0.44456085  0.39164203  1
  H  H95  1  0.87369242  0.77978122  0.38401257  1
  H  H96  1  0.38390857  0.27539775  0.40625940  1
  H  H97  1  0.37196920  0.61542316  0.37717486  1
  H  H98  1  0.38338176  0.94130763  0.40494530  1
  H  H99  1  0.88241613  0.27771954  0.39140015  1
  H  H100  1  0.86980446  0.61031624  0.39310983  1
  H  H101  1  0.87833789  0.94841736  0.38685052  1
  H  H102  1  0.13272786  0.05236120  0.88457683  1
  H  H103  1  0.12542755  0.38580525  0.89024859  1
  H  H104  1  0.12716663  0.71855701  0.87858625  1
  H  H105  1  0.63105530  0.04720543  0.87276679  1
  H  H106  1  0.62412833  0.39043826  0.89734505  1
  H  H107  1  0.61792087  0.72528102  0.91140696  1
  H  H108  1  0.12257955  0.27975399  0.10981780  1
  H  H109  1  0.12641036  0.61716432  0.12042421  1
  H  H110  1  0.13123435  0.95056220  0.12996522  1
  H  H111  1  0.62182593  0.28299430  0.11232603  1
  H  H112  1  0.63212218  0.61675426  0.12368719  1
  H  H113  1  0.62808165  0.94446197  0.10494041  1
  H  H114  1  0.37448464  0.05831292  0.60710102  1
  H  H115  1  0.38408870  0.39035958  0.59899541  1
  H  H116  1  0.37439588  0.72063962  0.60556604  1
  H  H117  1  0.87471132  0.05203163  0.62543381  1
  H  H118  1  0.88211696  0.38730759  0.60369141  1
  H  H119  1  0.87480171  0.72027056  0.61434693  1
  H  H120  1  0.12827233  0.11398595  0.38340123  1
  H  H121  1  0.11683970  0.45220472  0.36924568  1
  H  H122  1  0.12558671  0.77813886  0.39043847  1
  H  H123  1  0.63055497  0.11185868  0.39954541  1
  H  H124  1  0.61836546  0.44335054  0.39424916  1
  H  H125  1  0.62503453  0.77930512  0.39235764  1
  H  H126  1  0.37765912  0.22109399  0.89434757  1
  H  H127  1  0.36509533  0.55994257  0.90788574  1
  H  H128  1  0.36863133  0.89003102  0.89657916  1
  H  H129  1  0.87850405  0.21894094  0.88950628  1
  H  H130  1  0.87322608  0.55131516  0.89220560  1
  H  H131  1  0.86589630  0.89349727  0.90597296  1
  H  H132  1  0.36850947  0.11468119  0.10746485  1
  H  H133  1  0.37502372  0.44255815  0.11046720  1
  H  H134  1  0.37794473  0.78401494  0.12363933  1
  H  H135  1  0.86908685  0.10912965  0.10009188  1
  H  H136  1  0.87405431  0.44858019  0.10236409  1
  H  H137  1  0.87094755  0.77286522  0.09523729  1
  H  H138  1  0.12022710  0.22397636  0.60714378  1
  H  H139  1  0.12883860  0.55543416  0.60334195  1
  H  H140  1  0.12171235  0.88675659  0.61208389  1
  H  H141  1  0.62155585  0.21357844  0.61733312  1
  H  H142  1  0.63308238  0.55743376  0.59684022  1
  H  H143  1  0.61935118  0.88449730  0.61565505  1
  H  H144  1  0.16925949  0.25040477  1.00110070  1
  H  H145  1  0.15120442  0.08954686  0.00772352  1
  H  H146  1  0.79640053  0.74398798  -0.00434241  1
  H  H147  1  0.69485940  0.09240358  0.50994287  1
  H  H148  1  0.07998536  0.74974770  0.50227747  1
  H  H149  1  0.45164604  0.91095050  0.50457971  1
  H  H150  1  0.45138413  0.41636801  0.49609670  1
  H  H151  1  0.10679029  0.58684409  1.00477997  1
  H  H152  1  0.45626209  0.25063057  0.51206422  1
  H  H153  1  0.95396624  0.74761036  1.00687053  1
  H  H154  1  0.28505722  0.58392337  1.00726601  1
  H  H155  1  0.81538734  0.41504301  0.49677869  1
  H  H156  1  0.57061819  0.05227480  0.50504988  1
  H  H157  1  0.08136106  0.41617931  0.99507508  1
  H  H158  1  0.39588837  0.74800577  0.99116661  1
  H  H159  1  0.67924757  0.74875722  0.49867905  1
  H  H160  1  0.28751573  0.41419594  0.50851634  1
  H  H161  1  0.64055696  0.25087593  0.50918668  1
  H  H162  1  0.79140946  0.24279567  0.49039626  1
  H  H163  1  0.70703749  0.58464793  0.49311024  1
  H  H164  1  0.82954875  0.25126498  0.99726222  1
  H  H165  1  0.57436260  0.91544169  -0.00252789  1
  H  H166  1  0.40007553  0.58650462  0.49018261  1
  H  H167  1  0.18912561  0.58617552  0.50204088  1
  H  H168  1  0.66779474  0.58145763  1.00276638  1
  H  H169  1  0.41228296  0.41097114  0.99560424  1
  H  H170  1  0.97385278  0.91455668  -0.01033393  1
  H  H171  1  0.31225359  0.08821798  -0.00280884  1
  H  H172  1  0.78676313  0.92016541  1.00365273  1
  H  H173  1  0.04497275  0.08310169  0.49295122  1
  H  H174  1  0.57985408  0.25229228  0.00039383  1
  H  H175  1  0.41011853  0.91966758  0.00601098  1
  H  H176  1  0.12782287  0.42152530  0.48281525  1
  H  H177  1  0.45730371  0.08683835  1.00840568  1
  H  H178  1  0.17830171  0.25426768  0.50130623  1
  H  H179  1  0.91602344  0.75010149  0.50340011  1
  H  H180  1  0.15829360  0.91467812  0.99784696  1
  H  H181  1  0.42692826  0.75219238  0.50226664  1
  H  H182  1  0.08566725  0.91602191  0.49608852  1
  H  H183  1  0.32013604  0.07419379  0.49987017  1
  H  H184  1  0.16820902  0.09345561  0.49233344  1
  H  H185  1  0.44142784  0.10968230  0.51821203  1
  H  H186  1  0.56137028  0.58357633  0.50262611  1
  H  H187  1  0.92147708  0.58201586  0.49673062  1
  H  H188  1  0.65305101  0.91237106  0.50867411  1
  H  H189  1  0.61640273  0.07755510  -0.01375489  1
  H  H190  1  0.92194967  0.92019503  0.49798853  1
  H  H191  1  0.46553205  0.58339357  -0.00542188  1
  Pb  Pb192  1  0.25602250  0.04989948  0.74876942  1
  Pb  Pb193  1  0.25073460  0.38028949  0.74983983  1
  Pb  Pb194  1  0.25053571  0.71311994  0.74691243  1
  Pb  Pb195  1  0.75108375  0.04729827  0.75189707  1
  Pb  Pb196  1  0.75676341  0.38274058  0.74770875  1
  Pb  Pb197  1  0.74969123  0.71325828  0.75845205  1
  Pb  Pb198  1  0.24987104  0.28726814  0.25336084  1
  Pb  Pb199  1  0.25580279  0.61641479  0.24641923  1
  Pb  Pb200  1  0.25313571  0.95293082  0.25244726  1
  Pb  Pb201  1  0.75598277  0.28368529  0.25054171  1
  Pb  Pb202  1  0.75149468  0.61963006  0.25054682  1
  Pb  Pb203  1  0.75600872  0.95099058  0.23984300  1
  Pb  Pb204  1  -0.00013684  0.21308694  0.74621056  1
  Pb  Pb205  1  0.00163811  0.54743019  0.74567402  1
  Pb  Pb206  1  -0.00068851  0.88096462  0.75103243  1
  Pb  Pb207  1  0.50474755  0.21683453  0.75161236  1
  Pb  Pb208  1  0.49991449  0.54716517  0.75256031  1
  Pb  Pb209  1  0.49785993  0.87937833  0.74796017  1
  Pb  Pb210  1  0.00130355  0.11952298  0.24594870  1
  Pb  Pb211  1  -0.00237839  0.45450865  0.24467235  1
  Pb  Pb212  1  0.00605762  0.78268910  0.24221970  1
  Pb  Pb213  1  0.50107738  0.11910782  0.25755782  1
  Pb  Pb214  1  0.50411593  0.44975851  0.25882851  1
  Pb  Pb215  1  0.50144394  0.78684619  0.25840654  1
  C  C216  1  0.00280495  0.04628740  0.63426442  1
  C  C217  1  0.00438278  0.37648931  0.63305265  1
  C  C218  1  -0.00040091  0.71222581  0.63399713  1
  C  C219  1  0.49673144  0.04581268  0.63273282  1
  C  C220  1  0.50418538  0.37830539  0.63085848  1
  C  C221  1  0.49804213  0.71256669  0.63074691  1
  C  C222  1  -0.00165416  0.28968099  0.13282448  1
  C  C223  1  0.00013777  0.61935811  0.12809933  1
  C  C224  1  0.00256973  0.95563058  0.12848932  1
  C  C225  1  0.49735030  0.28880490  0.13196598  1
  C  C226  1  0.50399754  0.62302091  0.13148746  1
  C  C227  1  0.50614695  0.95458272  0.13273132  1
  C  C228  1  0.00642592  0.04614958  0.86746529  1
  C  C229  1  -0.00022591  0.37757965  0.87136977  1
  C  C230  1  -0.00074234  0.70901641  0.87059402  1
  C  C231  1  0.50322661  0.04558086  0.86796315  1
  C  C232  1  0.50235790  0.37882570  0.86738260  1
  C  C233  1  0.50069001  0.71377613  0.87265139  1
  C  C234  1  0.00589702  0.28922180  0.36586067  1
  C  C235  1  -0.00684225  0.62137762  0.36871776  1
  C  C236  1  0.00297837  0.95478689  0.36558650  1
  C  C237  1  0.50048573  0.28685510  0.36994787  1
  C  C238  1  0.49873616  0.62090046  0.36501744  1
  C  C239  1  0.50211102  0.95317521  0.37098449  1
  C  C240  1  0.24267071  0.21269541  0.63517018  1
  C  C241  1  0.25061998  0.54656085  0.63287374  1
  C  C242  1  0.24668797  0.87753293  0.63455871  1
  C  C243  1  0.74929676  0.21263477  0.62650680  1
  C  C244  1  0.75035442  0.54643351  0.63354806  1
  C  C245  1  0.74535634  0.87792176  0.63203959  1
  C  C246  1  0.24621782  0.12276949  0.13473702  1
  C  C247  1  0.25110122  0.45439087  0.13333897  1
  C  C248  1  0.24953064  0.78698648  0.12863581  1
  C  C249  1  0.74785723  0.12180811  0.13063644  1
  C  C250  1  0.74991820  0.45389270  0.12465562  1
  C  C251  1  0.75333964  0.78795721  0.13069973  1
  C  C252  1  0.25307841  0.21252992  0.87035607  1
  C  C253  1  0.24964469  0.54346363  0.86936257  1
  C  C254  1  0.24557073  0.87897554  0.87119110  1
  C  C255  1  0.75404611  0.21079513  0.86601223  1
  C  C256  1  0.74786572  0.54415059  0.87033640  1
  C  C257  1  0.75034863  0.87873555  0.86668553  1
  C  C258  1  0.25440407  0.12294559  0.36725821  1
  C  C259  1  0.24480032  0.45436855  0.36723623  1
  C  C260  1  0.24941272  0.78918334  0.36542927  1
  C  C261  1  0.74992044  0.11932178  0.36736330  1
  C  C262  1  0.74226822  0.45228404  0.36879970  1
  C  C263  1  0.74804370  0.78901777  0.36516349  1
  C  C264  1  0.71669024  0.75990326  0.45853580  1
  C  C265  1  0.03945412  0.73905574  0.54018424  1
  C  C266  1  0.21039126  0.23985060  0.96356898  1
  C  C267  1  0.96218756  0.92898058  0.45943537  1
  C  C268  1  0.95724844  0.73941189  0.54093260  1
  C  C269  1  0.56590147  0.26603519  0.45675324  1
  C  C270  1  0.21381518  0.24177123  0.54149026  1
  C  C271  1  0.78811218  0.42977653  0.03185503  1
  C  C272  1  0.17857395  0.42995516  0.45211568  1
  C  C273  1  0.44540751  0.59614584  0.45527189  1
  C  C274  1  0.29197543  0.24001700  0.96380279  1
  C  C275  1  0.78960325  0.57042375  0.96324710  1
  C  C276  1  0.25896646  0.42638687  0.46492696  1
  C  C277  1  0.45609588  0.40313559  0.95839696  1
  C  C278  1  0.04435291  0.92742087  0.45882592  1
  C  C279  1  0.28689524  0.42214980  0.04150608  1
  C  C280  1  0.54353444  0.74285573  0.53901767  1
  C  C281  1  0.72675995  0.09913770  0.46644591  1
  C  C282  1  0.18366145  0.57415442  0.95216294  1
  C  C283  1  0.56677997  0.06976130  0.95416982  1
  C  C284  1  0.52713940  0.59478531  0.46143703  1
  C  C285  1  0.53763195  0.92698859  0.03720978  1
  C  C286  1  0.27747597  0.09781303  0.03857193  1
  C  C287  1  0.56125704  0.92423414  0.45797065  1
  C  C288  1  0.48568382  0.26203435  0.46863708  1
  C  C289  1  0.70795909  0.42886190  0.03315448  1
  C  C290  1  0.97783122  0.07911396  0.96028111  1
  C  C291  1  0.69150883  0.75585079  0.04586333  1
  C  C292  1  0.80740080  0.09979283  0.45689862  1
  C  C293  1  0.28114169  0.90944596  0.96540301  1
  C  C294  1  0.48624704  0.07385628  0.96530312  1
  C  C295  1  0.05873627  0.74243450  0.95588643  1
  C  C296  1  0.79015284  0.24011516  0.95818567  1
  C  C297  1  0.97743649  0.59189359  0.03174283  1
  C  C298  1  0.96001296  0.25789380  0.04159403  1
  C  C299  1  0.55990898  0.40767558  0.54239247  1
  C  C300  1  0.70827421  0.57144956  0.96459295  1
  C  C301  1  0.77394608  0.08747213  0.03797426  1
  C  C302  1  0.05817528  0.59497920  0.03891971  1
  C  C303  1  0.53906596  0.26197436  0.03837459  1
  C  C304  1  0.07373363  0.92661285  0.04738396  1
  C  C305  1  0.01796929  0.07322220  0.53775671  1
  C  C306  1  0.19562679  0.09854709  0.04352023  1
  C  C307  1  0.73533227  0.57360838  0.53715738  1
  C  C308  1  0.31007273  0.76041081  0.04311846  1
  C  C309  1  0.45569202  0.92899467  0.04155331  1
  C  C310  1  0.45755004  0.26056106  0.03904005  1
  C  C311  1  0.28687745  0.09028029  0.45999649  1
  N  N312  1  0.52093715  0.74233774  0.96914912  1
  N  N313  1  0.54433512  0.07243132  0.54265987  1
  N  N314  1  0.99687260  0.92288275  0.03370064  1
  N  N315  1  0.81357523  0.57161554  0.54666485  1
  N  N316  1  0.95849870  0.59101021  0.45939412  1
  N  N317  1  0.77963075  0.42419997  0.45939857  1
  N  N318  1  0.04917788  0.40654513  0.54276109  1
  N  N319  1  0.79604196  0.76022918  0.45658526  1
  N  N320  1  0.77562532  0.90805134  0.53768165  1
  N  N321  1  0.04680550  0.25993453  0.45798325  1
  N  N322  1  0.29311980  0.23994640  0.54418078  1
  N  N323  1  0.70162840  0.42422333  0.46168771  1
  N  N324  1  0.44400391  0.74002834  0.95819404  1
  N  N325  1  0.76683572  0.24779414  0.53387912  1
  N  N326  1  0.98064884  0.74175636  0.96416072  1
  N  N327  1  0.48140486  0.40832835  0.53692960  1
  N  N328  1  0.26101821  0.57751745  0.96328398  1
  N  N329  1  0.21228779  0.75983734  0.45854961  1
  N  N330  1  0.53503881  0.40623375  0.96310709  1
  N  N331  1  0.04223358  0.40985425  0.95899427  1
  N  N332  1  0.46142734  0.07108937  0.53859447  1
  N  N333  1  0.68583701  0.90592891  0.95117055  1
  N  N334  1  0.76264311  0.91009610  0.96033810  1
  N  N335  1  0.69677502  0.08992035  0.04211409  1
  N  N336  1  0.20895570  0.42421187  0.04061682  1
  N  N337  1  0.56690595  0.59320015  0.04735118  1
  N  N338  1  0.20226407  0.90702921  0.96198892  1
  N  N339  1  0.22187058  0.57071518  0.53890293  1
  N  N340  1  0.28929222  0.76044841  0.45805547  1
  N  N341  1  0.71079912  0.24079454  0.95829702  1
  N  N342  1  0.48260332  0.92222259  0.46526402  1
  N  N343  1  0.28191026  0.90768545  0.54131622  1
  N  N344  1  0.68978148  0.23460636  0.54027734  1
  N  N345  1  0.05515990  0.07688149  0.95770015  1
  N  N346  1  0.48987177  0.59029220  0.03843647  1
  N  N347  1  0.03784278  0.25709848  0.04023981  1
  N  N348  1  0.20737271  0.09253173  0.45584241  1
  N  N349  1  0.97311789  0.40681109  0.53917403  1
  N  N350  1  0.93982579  0.07192466  0.54756332  1
  N  N351  1  0.96429267  0.41103868  0.96343491  1
  N  N352  1  0.97002187  0.25893264  0.45878655  1
  N  N353  1  0.03696786  0.59201614  0.46018774  1
  N  N354  1  0.46433702  0.74241936  0.53849249  1
  N  N355  1  0.76955123  0.75384579  0.03745252  1
  N  N356  1  0.69752783  0.90544357  0.54378308  1
  N  N357  1  0.23408092  0.75573963  0.03128499  1
  N  N358  1  0.20536883  0.90714397  0.54255326  1
  N  N359  1  0.30003213  0.57108022  0.54157881  1
  N  N360  1  0.05845973  0.05779526  0.59075884  1
  N  N361  1  0.07034903  0.38793734  0.60068984  1
  N  N362  1  0.06418631  0.72226011  0.59840828  1
  N  N363  1  0.56230804  0.04773925  0.59823168  1
  N  N364  1  0.57428959  0.38970408  0.60075180  1
  N  N365  1  0.56446402  0.72489843  0.59630729  1
  N  N366  1  0.43261564  0.27660163  0.09558272  1
  N  N367  1  0.45015319  0.61060606  0.08841857  1
  N  N368  1  0.43789002  0.94602734  0.10121965  1
  N  N369  1  0.93365539  0.27750334  0.09743399  1
  N  N370  1  0.94245188  0.60670815  0.08532805  1
  N  N371  1  0.95234788  0.94329783  0.08301499  1
  N  N372  1  0.44777551  0.05851034  0.91108639  1
  N  N373  1  0.43454782  0.38705880  0.89973426  1
  N  N374  1  0.43064343  0.72317065  0.89963700  1
  N  N375  1  0.94564543  0.06023503  0.90614140  1
  N  N376  1  0.93840954  0.39209887  0.90811810  1
  N  N377  1  0.94288424  0.71877087  0.91267069  1
  N  N378  1  0.07014182  0.27865906  0.40041901  1
  N  N379  1  0.05760094  0.60969794  0.40313275  1
  N  N380  1  0.06814854  0.94335222  0.40010490  1
  N  N381  1  0.57418081  0.28077759  0.39655213  1
  N  N382  1  0.55897245  0.61028164  0.40484945  1
  N  N383  1  0.57343956  0.94282226  0.39938711  1
  N  N384  1  0.30906348  0.22247515  0.60286140  1
  N  N385  1  0.31722547  0.55490978  0.59981791  1
  N  N386  1  0.30877318  0.88963393  0.59827602  1
  N  N387  1  0.80456385  0.22460017  0.58407606  1
  N  N388  1  0.82109277  0.55486351  0.60707868  1
  N  N389  1  0.80467321  0.89155272  0.59304788  1
  N  N390  1  0.17777159  0.11374910  0.10337546  1
  N  N391  1  0.18687981  0.44453289  0.09896882  1
  N  N392  1  0.19621182  0.77257686  0.08595046  1
  N  N393  1  0.68000177  0.11139296  0.10072061  1
  N  N394  1  0.68377389  0.44330676  0.08977296  1
  N  N395  1  0.68124574  0.77645789  0.10372089  1
  N  N396  1  0.18740835  0.22261174  0.90427877  1
  N  N397  1  0.17616737  0.55465536  0.89359526  1
  N  N398  1  0.17975383  0.88769508  0.90398145  1
  N  N399  1  0.69012707  0.22233746  0.90058395  1
  N  N400  1  0.68333180  0.55514059  0.90522230  1
  N  N401  1  0.67875193  0.88784111  0.89248045  1
  N  N402  1  0.31629869  0.10807680  0.40481766  1
  N  N403  1  0.29878875  0.44171050  0.41150584  1
  N  N404  1  0.31318005  0.77837627  0.40038321  1
  N  N405  1  0.82095340  0.11158498  0.39720792  1
  N  N406  1  0.80610710  0.44136726  0.40341163  1
  N  N407  1  0.81379324  0.77848596  0.39799636  1
  N  N408  1  0.44583877  0.27531030  0.41341685  1
  N  N409  1  0.42937014  0.61213760  0.39528304  1
  N  N410  1  0.44550365  0.94063999  0.41170300  1
  N  N411  1  0.94362077  0.27710283  0.40193786  1
  N  N412  1  0.93051414  0.60997171  0.40452712  1
  N  N413  1  0.93798147  0.94564556  0.40109774  1
  N  N414  1  0.07332198  0.05609054  0.89879661  1
  N  N415  1  0.06547850  0.38773196  0.90412005  1
  N  N416  1  0.07037751  0.72330084  0.89762028  1
  N  N417  1  0.57576794  0.05262982  0.89381629  1
  N  N418  1  0.56231888  0.39083284  0.90591112  1
  N  N419  1  0.55595415  0.72616372  0.91552328  1
  N  N420  1  0.06172068  0.27707639  0.09844097  1
  N  N421  1  0.07091531  0.61200511  0.10017059  1
  N  N422  1  0.07738578  0.94532817  0.10667275  1
  N  N423  1  0.56267768  0.27958092  0.09737958  1
  N  N424  1  0.57499144  0.61170804  0.10580271  1
  N  N425  1  0.56760111  0.94293033  0.09426026  1
  N  N426  1  0.43571347  0.06290560  0.59793906  1
  N  N427  1  0.44582250  0.38829125  0.59055600  1
  N  N428  1  0.43546800  0.72349432  0.59488947  1
  N  N429  1  0.93222004  0.05544865  0.60744421  1
  N  N430  1  0.94385972  0.38821337  0.59502878  1
  N  N431  1  0.93405539  0.72286453  0.59950821  1
  N  N432  1  0.18763165  0.11594078  0.39953413  1
  N  N433  1  0.17147203  0.44698217  0.39150787  1
  N  N434  1  0.18660871  0.77779077  0.40140100  1
  N  N435  1  0.69176591  0.11128135  0.40916243  1
  N  N436  1  0.67884364  0.44114674  0.40469176  1
  N  N437  1  0.68590545  0.77691612  0.40261099  1
  N  N438  1  0.31749424  0.22365527  0.90747077  1
  N  N439  1  0.30274038  0.55509344  0.91323391  1
  N  N440  1  0.30812936  0.89229026  0.90915201  1
  N  N441  1  0.81797620  0.22227186  0.90178636  1
  N  N442  1  0.81337653  0.55434190  0.90644589  1
  N  N443  1  0.80352696  0.89125435  0.91029157  1
  N  N444  1  0.30771094  0.11269686  0.09580324  1
  N  N445  1  0.31472218  0.44021897  0.09753957  1
  N  N446  1  0.32217761  0.77890382  0.10274881  1
  N  N447  1  0.80754634  0.10679348  0.09125692  1
  N  N448  1  0.81460411  0.44478577  0.08776240  1
  N  N449  1  0.80882164  0.77559075  0.08875759  1
  N  N450  1  0.18133979  0.22498540  0.59690174  1
  N  N451  1  0.19045626  0.55791392  0.59475328  1
  N  N452  1  0.18222490  0.88842285  0.60025247  1
  N  N453  1  0.67857143  0.22201553  0.60014692  1
  N  N454  1  0.69507988  0.55844400  0.59005875  1
  N  N455  1  0.67824360  0.88647553  0.60068378  1
  Cl  Cl456  1  0.24835176  0.05956899  0.60559464  1
  Cl  Cl457  1  0.26048270  0.39071385  0.61430806  1
  Cl  Cl458  1  0.25137275  0.71655939  0.61537872  1
  Cl  Cl459  1  0.74270779  0.05601170  0.61705589  1
  Cl  Cl460  1  0.76153793  0.38808429  0.61007629  1
  Cl  Cl461  1  0.74594264  0.72152914  0.62598078  1
  Cl  Cl462  1  0.24673809  0.28075565  0.12035973  1
  Cl  Cl463  1  0.26980452  0.60331566  0.10302206  1
  Cl  Cl464  1  0.25618004  0.94091882  0.11841456  1
  Cl  Cl465  1  0.75083403  0.27947646  0.11978572  1
  Cl  Cl466  1  0.75943122  0.61479422  0.11800887  1
  Cl  Cl467  1  0.76705186  0.94013522  0.09832119  1
  Cl  Cl468  1  0.26430513  0.05332049  0.88284379  1
  Cl  Cl469  1  0.24848880  0.38683538  0.88106128  1
  Cl  Cl470  1  0.25194919  0.71570887  0.87821912  1
  Cl  Cl471  1  0.76200195  0.05236236  0.88239615  1
  Cl  Cl472  1  0.75128750  0.39021699  0.88034184  1
  Cl  Cl473  1  0.75614894  0.72555974  0.90056867  1
  Cl  Cl474  1  0.25578291  0.27550920  0.38714477  1
  Cl  Cl475  1  0.24050322  0.61042271  0.38116170  1
  Cl  Cl476  1  0.25832491  0.94915506  0.38356975  1
  Cl  Cl477  1  0.76072956  0.27327032  0.38824002  1
  Cl  Cl478  1  0.74556522  0.60850379  0.38700467  1
  Cl  Cl479  1  0.75313983  0.94702211  0.37103805  1
  Cl  Cl480  1  -0.00865574  0.22536647  0.61388595  1
  Cl  Cl481  1  0.00682210  0.55545238  0.61232922  1
  Cl  Cl482  1  -0.00574985  0.88972385  0.61773826  1
  Cl  Cl483  1  0.49495918  0.21305397  0.61540724  1
  Cl  Cl484  1  0.50642383  0.55447490  0.61786165  1
  Cl  Cl485  1  0.49341273  0.88866760  0.60765963  1
  Cl  Cl486  1  -0.00942712  0.11129688  0.11525040  1
  Cl  Cl487  1  0.00224307  0.44737585  0.11198981  1
  Cl  Cl488  1  -0.00479240  0.77230756  0.10024599  1
  Cl  Cl489  1  0.49278986  0.11453845  0.12421895  1
  Cl  Cl490  1  0.49745541  0.44648544  0.12710668  1
  Cl  Cl491  1  0.50098073  0.77730045  0.12869737  1
  Cl  Cl492  1  0.00097053  0.21786641  0.87791477  1
  Cl  Cl493  1  -0.00481478  0.55234499  0.87736819  1
  Cl  Cl494  1  -0.01204944  0.89218790  0.89702357  1
  Cl  Cl495  1  0.50400102  0.22065142  0.88252604  1
  Cl  Cl496  1  0.48564214  0.56400870  0.89679209  1
  Cl  Cl497  1  0.49143766  0.88808928  0.87973191  1
  Cl  Cl498  1  0.00654072  0.10720388  0.38142386  1
  Cl  Cl499  1  -0.01374967  0.45044819  0.37660629  1
  Cl  Cl500  1  0.00203406  0.77482749  0.37620002  1
  Cl  Cl501  1  0.50263268  0.10500593  0.39495892  1
  Cl  Cl502  1  0.48536633  0.44046578  0.39809684  1
  Cl  Cl503  1  0.49813633  0.77934985  0.39545560  1
  Cl  Cl504  1  0.35702790  0.14669500  0.74320815  1
  Cl  Cl505  1  0.35926120  0.48376900  0.74841242  1
  Cl  Cl506  1  0.35557392  0.81771745  0.75138034  1
  Cl  Cl507  1  0.85671285  0.15018508  0.74364238  1
  Cl  Cl508  1  0.85976090  0.48269432  0.74382655  1
  Cl  Cl509  1  0.85778471  0.81598642  0.74909958  1
  Cl  Cl510  1  0.13765748  0.18656017  0.25009683  1
  Cl  Cl511  1  0.13549157  0.52116626  0.25094104  1
  Cl  Cl512  1  0.13999844  0.85256128  0.24595698  1
  Cl  Cl513  1  0.63840061  0.18613604  0.25042435  1
  Cl  Cl514  1  0.63830200  0.51920868  0.24949929  1
  Cl  Cl515  1  0.63552154  0.85547276  0.24067378  1
  Cl  Cl516  1  0.13755822  0.14623511  0.75318773  1
  Cl  Cl517  1  0.13874224  0.48088959  0.75169808  1
  Cl  Cl518  1  0.13463264  0.81232319  0.75676490  1
  Cl  Cl519  1  0.63647340  0.14627689  0.74819371  1
  Cl  Cl520  1  0.63828797  0.48053483  0.75063260  1
  Cl  Cl521  1  0.63573146  0.81316076  0.75420703  1
  Cl  Cl522  1  0.35961860  0.18506842  0.25091160  1
  Cl  Cl523  1  0.35547165  0.51978895  0.25596164  1
  Cl  Cl524  1  0.36412976  0.85217466  0.24550128  1
  Cl  Cl525  1  0.85825872  0.18266112  0.25315513  1
  Cl  Cl526  1  0.85658564  0.51689508  0.25036061  1
  Cl  Cl527  1  0.85625051  0.85132670  0.25054601  1
  Cl  Cl528  1  0.11418006  0.31268146  0.74728480  1
  Cl  Cl529  1  0.11203138  0.64704699  0.75416034  1
  Cl  Cl530  1  0.10858762  0.97929277  0.75674950  1
  Cl  Cl531  1  0.60803292  0.31318390  0.74168440  1
  Cl  Cl532  1  0.60981749  0.64884360  0.75595829  1
  Cl  Cl533  1  0.61434630  0.97748724  0.75349499  1
  Cl  Cl534  1  0.39010691  0.01849062  0.25110520  1
  Cl  Cl535  1  0.39117968  0.35017821  0.25003204  1
  Cl  Cl536  1  0.38803557  0.68616106  0.25711554  1
  Cl  Cl537  1  0.89318162  0.01662237  0.25104785  1
  Cl  Cl538  1  0.89139380  0.35032928  0.25040029  1
  Cl  Cl539  1  0.88970630  0.68492693  0.25088858  1
  Cl  Cl540  1  0.38913358  0.31461909  0.75149998  1
  Cl  Cl541  1  0.39231877  0.65051873  0.74993354  1
  Cl  Cl542  1  0.39411648  0.98468469  0.74545315  1
  Cl  Cl543  1  0.89433674  0.31793396  0.75213651  1
  Cl  Cl544  1  0.88972240  0.64870859  0.74664471  1
  Cl  Cl545  1  0.88788978  0.98129396  0.74439016  1
  Cl  Cl546  1  0.11463937  0.02011353  0.24266222  1
  Cl  Cl547  1  0.11229330  0.35551234  0.25258210  1
  Cl  Cl548  1  0.10767816  0.68648835  0.24086210  1
  Cl  Cl549  1  0.60860387  0.01895830  0.25237798  1
  Cl  Cl550  1  0.61067645  0.35507248  0.26101687  1
  Cl  Cl551  1  0.61080773  0.68527808  0.24957833  1
