# generated using pymatgen
data_H8PbC4(N3Cl2)2
_symmetry_space_group_name_H-M   'P 1'
_cell_length_a   16.62574611
_cell_length_b   22.51486239
_cell_length_c   21.59216811
_cell_angle_alpha   89.99885839
_cell_angle_beta   89.98560624
_cell_angle_gamma   90.00460529
_symmetry_Int_Tables_number   1
_chemical_formula_structural   H8PbC4(N3Cl2)2
_chemical_formula_sum   'H192 Pb24 C96 N144 Cl96'
_cell_volume   8082.51796903
_cell_formula_units_Z   24
loop_
 _symmetry_equiv_pos_site_id
 _symmetry_equiv_pos_as_xyz
  1  'x, y, z'
loop_
 _atom_site_type_symbol
 _atom_site_label
 _atom_site_symmetry_multiplicity
 _atom_site_fract_x
 _atom_site_fract_y
 _atom_site_fract_z
 _atom_site_occupancy
  H  H0  1  0.00388870  0.02748415  0.67611924  1
  H  H1  1  -0.00120958  0.36145764  0.67502646  1
  H  H2  1  -0.00958840  0.69436094  0.67719924  1
  H  H3  1  0.49763247  0.03087749  0.67843445  1
  H  H4  1  0.49066959  0.36275613  0.67873051  1
  H  H5  1  0.50867365  0.69731410  0.68072247  1
  H  H6  1  0.00173801  0.30323701  0.17136949  1
  H  H7  1  0.00755391  0.63713844  0.18195674  1
  H  H8  1  0.01586040  0.97374692  0.17548198  1
  H  H9  1  0.49077002  0.30126875  0.17667517  1
  H  H10  1  0.49955631  0.63601231  0.17698334  1
  H  H11  1  0.48086267  0.97191200  0.18076011  1
  H  H12  1  -0.00316086  0.03011150  0.82286931  1
  H  H13  1  0.00658337  0.35870699  0.82041971  1
  H  H14  1  -0.00699488  0.69861771  0.82441687  1
  H  H15  1  0.51147445  0.03267561  0.82303803  1
  H  H16  1  0.49033693  0.36244255  0.82152591  1
  H  H17  1  0.51372458  0.69397984  0.82162181  1
  H  H18  1  -0.00028755  0.30661913  0.32579991  1
  H  H19  1  -0.01056161  0.63483508  0.32706063  1
  H  H20  1  0.01050035  0.97078824  0.32374052  1
  H  H21  1  0.50374088  0.30799180  0.32564041  1
  H  H22  1  0.49438735  0.63769007  0.31949457  1
  H  H23  1  0.48990570  0.96610818  0.31566493  1
  H  H24  1  0.24410950  0.19959089  0.67584679  1
  H  H25  1  0.25313681  0.52684357  0.67772631  1
  H  H26  1  0.25403072  0.85221470  0.67502315  1
  H  H27  1  0.75747013  0.19879892  0.67931415  1
  H  H28  1  0.74796955  0.52648287  0.67581547  1
  H  H29  1  0.74085314  0.86308794  0.67694674  1
  H  H30  1  0.24184045  0.14012175  0.17870439  1
  H  H31  1  0.26363747  0.46553145  0.18109045  1
  H  H32  1  0.26325058  0.80118147  0.17549692  1
  H  H33  1  0.74334685  0.14040224  0.17833111  1
  H  H34  1  0.73030340  0.46777697  0.17254203  1
  H  H35  1  0.73782824  0.80401538  0.18009754  1
  H  H36  1  0.23857264  0.19296885  0.82321977  1
  H  H37  1  0.23732892  0.53209703  0.82337202  1
  H  H38  1  0.25437811  0.86351246  0.81551764  1
  H  H39  1  0.76052972  0.19348942  0.82524721  1
  H  H40  1  0.76437197  0.53052136  0.81957626  1
  H  H41  1  0.75160954  0.86178558  0.82348342  1
  H  H42  1  0.24322235  0.13273507  0.31956948  1
  H  H43  1  0.24077334  0.46946979  0.32683315  1
  H  H44  1  0.24808114  0.80152247  0.32127108  1
  H  H45  1  0.75914796  0.13661563  0.32278681  1
  H  H46  1  0.76303488  0.46812468  0.32332473  1
  H  H47  1  0.76362704  0.80335093  0.32170734  1
  H  H48  1  0.11623153  0.05875914  0.59782912  1
  H  H49  1  0.12754148  0.38826394  0.60925535  1
  H  H50  1  0.13051807  0.71247034  0.62349681  1
  H  H51  1  0.61870746  0.05581231  0.60614447  1
  H  H52  1  0.62271906  0.38451311  0.61438861  1
  H  H53  1  0.62553359  0.72368721  0.60557335  1
  H  H54  1  0.38347051  0.27381989  0.09609480  1
  H  H55  1  0.37053067  0.61307700  0.11006821  1
  H  H56  1  0.37598127  0.94466440  0.09659991  1
  H  H57  1  0.87915945  0.28050025  0.10251808  1
  H  H58  1  0.86934841  0.61489285  0.12524687  1
  H  H59  1  0.87379358  0.95030167  0.12696514  1
  H  H60  1  0.37404621  0.05069607  0.87629674  1
  H  H61  1  0.37972081  0.38973360  0.90294639  1
  H  H62  1  0.37463207  0.71584388  0.87402317  1
  H  H63  1  0.86739157  0.05521733  0.88928175  1
  H  H64  1  0.87852633  0.38417865  0.88810049  1
  H  H65  1  0.87961829  0.72364969  0.90135391  1
  H  H66  1  0.10999399  0.27890679  0.40805391  1
  H  H67  1  0.12977660  0.61467777  0.37972635  1
  H  H68  1  0.11690815  0.93948624  0.40746540  1
  H  H69  1  0.61176152  0.27509209  0.40583130  1
  H  H70  1  0.62823215  0.61359464  0.38153234  1
  H  H71  1  0.61738038  0.94696099  0.38269912  1
  H  H72  1  0.38522845  0.21605471  0.62427412  1
  H  H73  1  0.36436411  0.55486518  0.59707198  1
  H  H74  1  0.37971798  0.88499584  0.60926067  1
  H  H75  1  0.88962093  0.21893734  0.61627007  1
  H  H76  1  0.86758672  0.55394898  0.60240448  1
  H  H77  1  0.87768669  0.88895409  0.62346680  1
  H  H78  1  0.12689276  0.11286372  0.10146895  1
  H  H79  1  0.12281858  0.44808752  0.12661719  1
  H  H80  1  0.12413195  0.78311866  0.12136746  1
  H  H81  1  0.63262810  0.10995329  0.09669544  1
  H  H82  1  0.63268327  0.43992611  0.08415849  1
  H  H83  1  0.63486084  0.77490195  0.09584754  1
  H  H84  1  0.12307955  0.22259760  0.89933121  1
  H  H85  1  0.13738156  0.56272746  0.91011453  1
  H  H86  1  0.12834065  0.88427447  0.88387443  1
  H  H87  1  0.62060124  0.21509001  0.87931466  1
  H  H88  1  0.63031187  0.54752652  0.88073169  1
  H  H89  1  0.62894413  0.89066973  0.89223125  1
  H  H90  1  0.38266194  0.11459162  0.37516716  1
  H  H91  1  0.37005224  0.44740462  0.38930575  1
  H  H92  1  0.37031788  0.77554449  0.39200171  1
  H  H93  1  0.87581628  0.11122933  0.40087752  1
  H  H94  1  0.86906255  0.44454548  0.40777591  1
  H  H95  1  0.86482968  0.77276922  0.40914706  1
  H  H96  1  0.36612605  0.28900639  0.38344560  1
  H  H97  1  0.37995126  0.60933798  0.39616537  1
  H  H98  1  0.36806852  0.94610848  0.38851810  1
  H  H99  1  0.86404478  0.28217070  0.38418399  1
  H  H100  1  0.88466536  0.60345717  0.40943698  1
  H  H101  1  0.87213391  0.94840423  0.37902071  1
  H  H102  1  0.11599970  0.05816365  0.89680411  1
  H  H103  1  0.12680391  0.38552290  0.89546925  1
  H  H104  1  0.12682295  0.71693219  0.88423405  1
  H  H105  1  0.61952807  0.05772043  0.90521691  1
  H  H106  1  0.62680294  0.38474521  0.87887637  1
  H  H107  1  0.62023055  0.72516158  0.90433121  1
  H  H108  1  0.12797571  0.27853849  0.10620515  1
  H  H109  1  0.11562332  0.61298325  0.09819610  1
  H  H110  1  0.11565970  0.94215823  0.08882526  1
  H  H111  1  0.63028326  0.28609327  0.12187640  1
  H  H112  1  0.61974228  0.60754845  0.10548881  1
  H  H113  1  0.62127182  0.95118605  0.12646790  1
  H  H114  1  0.37011946  0.05651717  0.61084611  1
  H  H115  1  0.37415436  0.39176923  0.60365091  1
  H  H116  1  0.37706612  0.71629453  0.61834440  1
  H  H117  1  0.86918840  0.05333977  0.61913488  1
  H  H118  1  0.87868451  0.38865999  0.60230928  1
  H  H119  1  0.88593513  0.72723454  0.59408280  1
  H  H120  1  0.13589905  0.10816518  0.40277895  1
  H  H121  1  0.12127671  0.44675047  0.40003274  1
  H  H122  1  0.12202599  0.77675541  0.39011920  1
  H  H123  1  0.62810678  0.11476707  0.38784123  1
  H  H124  1  0.62405547  0.45055522  0.37457091  1
  H  H125  1  0.62234259  0.78197147  0.37262543  1
  H  H126  1  0.37132685  0.21766040  0.88481070  1
  H  H127  1  0.38046329  0.54823437  0.87193295  1
  H  H128  1  0.37785000  0.88777087  0.88473486  1
  H  H129  1  0.86497999  0.22684617  0.90913975  1
  H  H130  1  0.87844886  0.55585540  0.89625291  1
  H  H131  1  0.87812652  0.88808004  0.89198138  1
  H  H132  1  0.37499112  0.11605148  0.11662377  1
  H  H133  1  0.36944713  0.43968131  0.09697595  1
  H  H134  1  0.36914230  0.77268588  0.09263247  1
  H  H135  1  0.87938281  0.11874132  0.11787781  1
  H  H136  1  0.87341181  0.45132277  0.12840799  1
  H  H137  1  0.87928661  0.78661738  0.13087974  1
  H  H138  1  0.14072848  0.22928639  0.59098048  1
  H  H139  1  0.11726048  0.54715420  0.61911912  1
  H  H140  1  0.13175958  0.88945888  0.61026307  1
  H  H141  1  0.64115572  0.22268604  0.60431277  1
  H  H142  1  0.61938990  0.55236354  0.60862283  1
  H  H143  1  0.63245629  0.89210578  0.59536001  1
  H  H144  1  0.36010543  0.08729755  0.48384745  1
  H  H145  1  0.63997620  0.24812312  0.98859603  1
  H  H146  1  0.29796282  0.40905572  -0.00580129  1
  H  H147  1  0.21775243  0.58882120  1.00743941  1
  H  H148  1  0.87010876  0.75332215  0.01824020  1
  H  H149  1  0.64030873  0.42073081  0.49041021  1
  H  H150  1  0.39280985  0.08158589  -0.00872136  1
  H  H151  1  0.20607084  0.08132778  0.50781047  1
  H  H152  1  0.66899560  0.08585314  0.49432601  1
  H  H153  1  0.67570162  0.92338667  1.00091580  1
  H  H154  1  0.57764286  0.92435644  0.49638212  1
  H  H155  1  0.70570636  0.91755668  0.49415814  1
  H  H156  1  0.56946697  0.57574509  -0.00253443  1
  H  H157  1  0.45136408  0.24350755  -0.00942736  1
  H  H158  1  0.44264214  0.57746652  0.50142886  1
  H  H159  1  0.03856109  0.91757624  0.50779151  1
  H  H160  1  0.38951135  0.25320012  0.49186768  1
  H  H161  1  0.69776772  0.25017174  0.49429235  1
  H  H162  1  0.40693447  0.74589749  0.50611368  1
  H  H163  1  0.03285627  0.91680397  -0.00807408  1
  H  H164  1  0.39207463  0.75038990  0.98559854  1
  H  H165  1  0.18893500  0.90734012  0.50383067  1
  H  H166  1  0.78322329  0.74920405  0.50659272  1
  H  H167  1  0.33115498  0.91666785  0.99622105  1
  H  H168  1  0.83382624  0.91482788  0.99757033  1
  H  H169  1  0.21840325  0.25743330  0.49191369  1
  H  H170  1  0.14434845  0.41440331  0.01979088  1
  H  H171  1  0.03753971  0.25065009  0.50822623  1
  H  H172  1  0.91050102  0.08674957  0.99334434  1
  H  H173  1  0.31523097  0.89082843  0.50247571  1
  H  H174  1  0.53804515  0.25637360  0.50768874  1
  H  H175  1  0.40860072  0.58392502  0.00337658  1
  H  H176  1  0.14053949  0.75160773  0.01152984  1
  H  H177  1  0.41761295  0.93609180  0.50244280  1
  H  H178  1  0.10972251  0.75044965  0.51834255  1
  H  H179  1  0.82000395  0.58424708  1.00430398  1
  H  H180  1  0.45213490  0.92006748  -0.00753869  1
  H  H181  1  0.66424149  0.58085064  0.50370731  1
  H  H182  1  0.17135210  0.91084202  0.99623074  1
  H  H183  1  0.70873521  0.74500063  -0.00679571  1
  H  H184  1  0.96320407  0.74443843  0.49418913  1
  H  H185  1  0.04730459  0.08637746  0.49568757  1
  H  H186  1  0.57175286  0.75068923  0.49737549  1
  H  H187  1  0.45087512  0.41509660  1.00480313  1
  H  H188  1  0.04412532  0.58657820  -0.00564725  1
  H  H189  1  0.86744716  0.41836415  1.01259322  1
  H  H190  1  0.54604518  0.74831649  1.00499771  1
  H  H191  1  0.11089561  0.58087585  0.48897476  1
  Pb  Pb192  1  0.24861543  0.04900552  0.74729938  1
  Pb  Pb193  1  0.24802426  0.38117247  0.75641820  1
  Pb  Pb194  1  0.24973839  0.71225148  0.75260295  1
  Pb  Pb195  1  0.74451454  0.04939581  0.74945462  1
  Pb  Pb196  1  0.75193533  0.38055600  0.74535002  1
  Pb  Pb197  1  0.75138573  0.71462359  0.74807066  1
  Pb  Pb198  1  0.24367188  0.28264850  0.25247688  1
  Pb  Pb199  1  0.24328501  0.61717380  0.24400806  1
  Pb  Pb200  1  0.24228798  0.94859254  0.24456260  1
  Pb  Pb201  1  0.74883065  0.28779139  0.25444597  1
  Pb  Pb202  1  0.74499481  0.61428005  0.25550414  1
  Pb  Pb203  1  0.74393349  0.95107830  0.25419872  1
  Pb  Pb204  1  0.00137302  0.21393082  0.75045162  1
  Pb  Pb205  1  -0.00045643  0.54713414  0.75467414  1
  Pb  Pb206  1  -0.00060439  0.88299829  0.75090449  1
  Pb  Pb207  1  0.49994103  0.21619941  0.74278482  1
  Pb  Pb208  1  0.50055410  0.54624613  0.74514575  1
  Pb  Pb209  1  0.50040725  0.88124408  0.74629098  1
  Pb  Pb210  1  -0.00529348  0.11704238  0.25599835  1
  Pb  Pb211  1  -0.00337400  0.45166525  0.25950658  1
  Pb  Pb212  1  -0.00643053  0.78288812  0.26204949  1
  Pb  Pb213  1  0.50162637  0.11961061  0.24508615  1
  Pb  Pb214  1  0.49351330  0.44938377  0.23854309  1
  Pb  Pb215  1  0.49482187  0.78265583  0.24039273  1
  C  C216  1  -0.00325262  0.04499886  0.62984272  1
  C  C217  1  0.00195358  0.37914885  0.62854091  1
  C  C218  1  0.00257450  0.71076759  0.63073792  1
  C  C219  1  0.49503220  0.04736529  0.63152126  1
  C  C220  1  0.49617083  0.37939539  0.63202402  1
  C  C221  1  0.50366789  0.71244113  0.63306845  1
  C  C222  1  0.00302320  0.28720396  0.12386277  1
  C  C223  1  -0.00283371  0.62249193  0.13474755  1
  C  C224  1  0.00205051  0.95679174  0.12960879  1
  C  C225  1  0.50125536  0.28693619  0.12937252  1
  C  C226  1  0.49593280  0.61934739  0.12974142  1
  C  C227  1  0.49305606  0.95611777  0.13417028  1
  C  C228  1  -0.00691422  0.04725771  0.86970755  1
  C  C229  1  0.00406698  0.37518773  0.86757574  1
  C  C230  1  -0.00016983  0.71322523  0.87185165  1
  C  C231  1  0.50077044  0.04693852  0.87021431  1
  C  C232  1  0.49860358  0.37764612  0.86862347  1
  C  C233  1  0.50296771  0.71048462  0.86828942  1
  C  C234  1  -0.00852362  0.28993413  0.37257488  1
  C  C235  1  0.00195535  0.61832204  0.37321542  1
  C  C236  1  0.00016166  0.95440244  0.37034658  1
  C  C237  1  0.49352324  0.29089144  0.37216517  1
  C  C238  1  0.50114710  0.62075574  0.36626274  1
  C  C239  1  0.49178697  0.95341248  0.36416715  1
  C  C240  1  0.25676821  0.21428988  0.62891756  1
  C  C241  1  0.24504200  0.54239777  0.63070796  1
  C  C242  1  0.25538176  0.87335433  0.62984192  1
  C  C243  1  0.76260945  0.21287690  0.63153473  1
  C  C244  1  0.74443732  0.54365645  0.62900315  1
  C  C245  1  0.75018435  0.87949827  0.63047959  1
  C  C246  1  0.24827717  0.12352220  0.13200921  1
  C  C247  1  0.25133224  0.45147515  0.13383346  1
  C  C248  1  0.25166132  0.78575811  0.12871374  1
  C  C249  1  0.75157869  0.12413186  0.13140028  1
  C  C250  1  0.74660360  0.45309064  0.12640242  1
  C  C251  1  0.75119842  0.78865379  0.13349184  1
  C  C252  1  0.24460703  0.21044602  0.86962367  1
  C  C253  1  0.25162888  0.54692069  0.86994535  1
  C  C254  1  0.25341040  0.87828665  0.86342365  1
  C  C255  1  0.74828032  0.21061979  0.87126057  1
  C  C256  1  0.75790897  0.54468546  0.86727230  1
  C  C257  1  0.75338201  0.87897103  0.87054520  1
  C  C258  1  0.25473549  0.11818033  0.36678260  1
  C  C259  1  0.24424586  0.45431936  0.37460670  1
  C  C260  1  0.24631757  0.78551112  0.36838220  1
  C  C261  1  0.75417515  0.12080429  0.37009427  1
  C  C262  1  0.75099019  0.45433166  0.37045296  1
  C  C263  1  0.75059844  0.78752486  0.36809053  1
  C  C264  1  0.81591873  0.42750781  0.04249901  1
  C  C265  1  0.55718800  0.40701688  0.95594942  1
  C  C266  1  0.97276721  0.74083063  0.96722715  1
  C  C267  1  0.96951342  0.41337579  0.53730235  1
  C  C268  1  0.98371490  0.58394388  0.46865784  1
  C  C269  1  0.21078794  0.42646977  0.46756567  1
  C  C270  1  0.05335664  0.73850116  0.96138885  1
  C  C271  1  0.52195981  0.07500168  0.96673780  1
  C  C272  1  0.32039046  0.57265303  0.95349156  1
  C  C273  1  0.46748524  0.41278525  0.53929380  1
  C  C274  1  0.21102440  0.90230557  0.95721943  1
  C  C275  1  0.32201478  0.23988335  0.54358479  1
  C  C276  1  0.56328003  0.26214307  0.04270539  1
  C  C277  1  0.70398167  0.56874842  0.95709584  1
  C  C278  1  0.23470229  0.09120417  0.46361302  1
  C  C279  1  0.27068665  0.75609200  0.03127570  1
  C  C280  1  0.45294024  0.73702970  0.54155636  1
  C  C281  1  0.81450404  0.23692826  0.54059860  1
  C  C282  1  0.73636562  0.42423263  0.02885624  1
  C  C283  1  0.44127898  0.07265119  0.95836896  1
  C  C284  1  0.71426495  0.91039501  0.96247968  1
  C  C285  1  0.96511150  0.25813267  0.03244812  1
  C  C286  1  0.01470497  0.59634939  0.03840103  1
  C  C287  1  0.53649674  0.93390460  0.45849434  1
  C  C288  1  0.29296442  0.90439443  0.95739974  1
  C  C289  1  0.76989101  0.42723469  0.46763895  1
  C  C290  1  0.28241953  0.75785017  0.46190718  1
  C  C291  1  0.19247595  0.56865443  0.54218633  1
  C  C292  1  0.47596520  0.59020033  0.46010890  1
  C  C293  1  0.73298887  0.23880772  0.53509385  1
  C  C294  1  0.81086972  0.91196302  0.54515518  1
  C  C295  1  0.29108948  0.42677893  0.46417187  1
  C  C296  1  0.68933396  0.42922228  0.45785396  1
  C  C297  1  0.53491676  0.73960513  0.53725883  1
  C  C298  1  0.53134598  0.58868617  0.03673399  1
  C  C299  1  0.52986610  0.07680797  0.53822206  1
  C  C300  1  0.73699503  0.75832362  0.03643027  1
  C  C301  1  0.81747098  0.76231593  0.04877659  1
  C  C302  1  0.47893147  0.92960591  0.03745351  1
  C  C303  1  0.22160781  0.09165910  0.03841924  1
  C  C304  1  0.26968801  0.42242611  0.03746430  1
  C  C305  1  0.44090663  0.74101869  0.95243101  1
  C  C306  1  0.93975207  0.07823040  0.54336366  1
  C  C307  1  0.04531169  0.25763431  0.03379470  1
  C  C308  1  0.78488004  0.57222650  0.96377674  1
  C  C309  1  0.48285376  0.25711297  0.03247882  1
  C  C310  1  0.21788521  0.24399961  0.96236275  1
  C  C311  1  0.45449509  0.93627425  0.46099751  1
  N  N312  1  0.55500161  0.59187918  0.45554206  1
  N  N313  1  0.01506410  0.92279920  0.46374760  1
  N  N314  1  0.93638793  0.59659100  0.04726368  1
  N  N315  1  0.78717040  0.09361302  0.46513943  1
  N  N316  1  0.45194169  0.07648959  0.53871918  1
  N  N317  1  0.21580511  0.91868918  0.54539015  1
  N  N318  1  0.01818689  0.07846138  0.53691038  1
  N  N319  1  0.29519381  0.24267800  0.95911997  1
  N  N320  1  0.04681546  0.41326979  0.53822895  1
  N  N321  1  0.93787935  0.92541584  0.45531957  1
  N  N322  1  0.45184220  0.59131183  0.03930096  1
  N  N323  1  0.70941054  0.09556100  0.45978931  1
  N  N324  1  0.02891784  0.07751387  0.96303355  1
  N  N325  1  0.80558398  0.09582603  0.04316649  1
  N  N326  1  0.72966180  0.09243219  0.03640482  1
  N  N327  1  0.01071942  0.25781464  0.46537437  1
  N  N328  1  0.95085747  0.07692861  0.95851974  1
  N  N329  1  0.73285953  0.91113699  0.53637779  1
  N  N330  1  0.51965791  0.74406759  0.96198235  1
  N  N331  1  0.98654917  0.74740997  0.53866513  1
  N  N332  1  0.19286092  0.75976371  0.04230856  1
  N  N333  1  0.01105778  0.92293947  0.03644027  1
  N  N334  1  0.51333980  0.25394417  0.46377169  1
  N  N335  1  0.06358582  0.73343233  0.54548421  1
  N  N336  1  0.55700555  0.93109730  0.04765013  1
  N  N337  1  0.43625596  0.26631922  0.45843542  1
  N  N338  1  0.68386014  0.76070408  0.45173561  1
  N  N339  1  0.93425799  0.92662244  0.04772145  1
  N  N340  1  0.19140959  0.42687131  0.04805691  1
  N  N341  1  0.54481658  0.40995080  0.54154069  1
  N  N342  1  0.70344566  0.57358290  0.53990256  1
  N  N343  1  0.26935815  0.57225831  0.53403306  1
  N  N344  1  0.06121893  0.58900245  0.45792023  1
  N  N345  1  0.78147306  0.57403372  0.53602887  1
  N  N346  1  0.24412264  0.24484379  0.53394740  1
  N  N347  1  0.96158364  0.40404377  0.95901914  1
  N  N348  1  0.29851912  0.91268514  0.54254584  1
  N  N349  1  0.29881904  0.09257518  0.04249735  1
  N  N350  1  0.31309818  0.09181137  0.45264810  1
  N  N351  1  0.20448815  0.75934274  0.46266941  1
  N  N352  1  0.47880972  0.40777425  0.96292745  1
  N  N353  1  0.69003939  0.23967224  0.95520855  1
  N  N354  1  0.79401998  0.90869392  0.96132634  1
  N  N355  1  0.76653374  0.24425255  0.96608809  1
  N  N356  1  0.93319377  0.25905387  0.45865879  1
  N  N357  1  0.24307559  0.57719230  0.96538028  1
  N  N358  1  0.03786158  0.40399130  0.96144415  1
  N  N359  1  0.76050805  0.75673730  0.46225495  1
  N  N360  1  0.05456810  0.05617926  0.58940813  1
  N  N361  1  0.06730283  0.39181577  0.59636722  1
  N  N362  1  0.07380212  0.72039285  0.60543644  1
  N  N363  1  0.55808757  0.05943254  0.59432553  1
  N  N364  1  0.56304562  0.38911808  0.60063230  1
  N  N365  1  0.56504101  0.72441794  0.59459372  1
  N  N366  1  0.44516383  0.27318301  0.08775261  1
  N  N367  1  0.43031264  0.61104797  0.09632938  1
  N  N368  1  0.43798052  0.94416131  0.09040194  1
  N  N369  1  0.93841428  0.27599067  0.08741748  1
  N  N370  1  0.92722371  0.61303402  0.10725596  1
  N  N371  1  0.92966682  0.94541219  0.10659059  1
  N  N372  1  0.42954849  0.05514715  0.89721093  1
  N  N373  1  0.44153523  0.38764698  0.91011113  1
  N  N374  1  0.43081178  0.72203058  0.89372806  1
  N  N375  1  0.92753301  0.05805690  0.90243521  1
  N  N376  1  0.93903223  0.38638560  0.90101481  1
  N  N377  1  0.94023687  0.72542031  0.91217661  1
  N  N378  1  0.04765456  0.27865586  0.41425248  1
  N  N379  1  0.07302052  0.61065331  0.39914423  1
  N  N380  1  0.05463435  0.94300483  0.41339412  1
  N  N381  1  0.54958158  0.27789675  0.41359835  1
  N  N382  1  0.56900894  0.61076702  0.39647719  1
  N  N383  1  0.55818863  0.94477985  0.39803687  1
  N  N384  1  0.33030046  0.22159448  0.60297475  1
  N  N385  1  0.30213682  0.55501933  0.59039043  1
  N  N386  1  0.31982599  0.88385917  0.59573610  1
  N  N387  1  0.83167274  0.22163058  0.59916785  1
  N  N388  1  0.80646008  0.55613681  0.59206934  1
  N  N389  1  0.82176351  0.89291616  0.60357805  1
  N  N390  1  0.18819901  0.11025844  0.09223631  1
  N  N391  1  0.18050912  0.44403263  0.10756940  1
  N  N392  1  0.18114845  0.77795806  0.10211061  1
  N  N393  1  0.69483268  0.10983222  0.09089352  1
  N  N394  1  0.69453156  0.43956996  0.07938416  1
  N  N395  1  0.69687744  0.77499645  0.08972975  1
  N  N396  1  0.18416049  0.22491088  0.90868483  1
  N  N397  1  0.19988191  0.55978279  0.91425536  1
  N  N398  1  0.18770212  0.88602701  0.89851525  1
  N  N399  1  0.67773572  0.21873484  0.89797869  1
  N  N400  1  0.68813527  0.55247379  0.89859726  1
  N  N401  1  0.68899874  0.89268343  0.90587313  1
  N  N402  1  0.32508368  0.10907289  0.39325637  1
  N  N403  1  0.31204251  0.44358840  0.40741968  1
  N  N404  1  0.30999581  0.77372607  0.40514398  1
  N  N405  1  0.81461325  0.10956793  0.40899605  1
  N  N406  1  0.80695559  0.44235023  0.41494451  1
  N  N407  1  0.80260412  0.77564754  0.41271495  1
  N  N408  1  0.42339035  0.28079591  0.39932853  1
  N  N409  1  0.44154180  0.60767926  0.40579392  1
  N  N410  1  0.42792141  0.94771025  0.40175121  1
  N  N411  1  0.92180955  0.27775059  0.40036226  1
  N  N412  1  0.94657165  0.60244579  0.41657926  1
  N  N413  1  0.92919469  0.94345881  0.39654924  1
  N  N414  1  0.05466180  0.05960239  0.90705729  1
  N  N415  1  0.06551217  0.38602817  0.90496821  1
  N  N416  1  0.06916564  0.72195386  0.90222499  1
  N  N417  1  0.55784849  0.05942500  0.91374546  1
  N  N418  1  0.56962342  0.38917090  0.89730403  1
  N  N419  1  0.55797106  0.72153079  0.91117033  1
  N  N420  1  0.06935759  0.27505204  0.08970572  1
  N  N421  1  0.05348902  0.61194157  0.09170802  1
  N  N422  1  0.05353395  0.94450219  0.08474981  1
  N  N423  1  0.57389115  0.27992870  0.10170352  1
  N  N424  1  0.55892271  0.60574942  0.09301145  1
  N  N425  1  0.56394255  0.94743686  0.10786585  1
  N  N426  1  0.43022122  0.05794209  0.59803732  1
  N  N427  1  0.43533583  0.39418939  0.59352591  1
  N  N428  1  0.43536077  0.72029590  0.60144366  1
  N  N429  1  0.92627629  0.05837938  0.60112146  1
  N  N430  1  0.93917112  0.39270647  0.59148317  1
  N  N431  1  0.94815422  0.72318127  0.58779627  1
  N  N432  1  0.19800225  0.10675526  0.41010465  1
  N  N433  1  0.18139070  0.44294319  0.41287427  1
  N  N434  1  0.18199106  0.77647854  0.40283054  1
  N  N435  1  0.68779001  0.11142673  0.40223020  1
  N  N436  1  0.67916220  0.44586831  0.39639948  1
  N  N437  1  0.67842246  0.77783526  0.39252748  1
  N  N438  1  0.31194898  0.22135956  0.89985499  1
  N  N439  1  0.32594705  0.55454809  0.89409484  1
  N  N440  1  0.31802465  0.88945164  0.89876821  1
  N  N441  1  0.80271031  0.22635256  0.91355251  1
  N  N442  1  0.81762421  0.55708216  0.90660273  1
  N  N443  1  0.81780505  0.88740023  0.90529861  1
  N  N444  1  0.31573816  0.11253271  0.10191128  1
  N  N445  1  0.30722658  0.43857728  0.09039887  1
  N  N446  1  0.30752226  0.77189055  0.08505130  1
  N  N447  1  0.82049174  0.11593458  0.10188153  1
  N  N448  1  0.82043366  0.44551068  0.10399038  1
  N  N449  1  0.82430311  0.78082005  0.10908882  1
  N  N450  1  0.20336895  0.22760560  0.58600615  1
  N  N451  1  0.17486482  0.55120564  0.60128691  1
  N  N452  1  0.19203014  0.88848704  0.59632849  1
  N  N453  1  0.70193619  0.22345542  0.59267118  1
  N  N454  1  0.67932378  0.55423256  0.59571321  1
  N  N455  1  0.69422130  0.88913106  0.58814851  1
  Cl  Cl456  1  0.24052722  0.06040610  0.60949733  1
  Cl  Cl457  1  0.25238994  0.38443430  0.62510409  1
  Cl  Cl458  1  0.25364107  0.71791857  0.62126738  1
  Cl  Cl459  1  0.74059702  0.05208368  0.61446314  1
  Cl  Cl460  1  0.75133365  0.38634731  0.61254940  1
  Cl  Cl461  1  0.76380323  0.72956728  0.60266061  1
  Cl  Cl462  1  0.25702196  0.27909981  0.12165245  1
  Cl  Cl463  1  0.24037781  0.61088171  0.10226269  1
  Cl  Cl464  1  0.24318406  0.94132165  0.10874839  1
  Cl  Cl465  1  0.75515650  0.28590875  0.12648054  1
  Cl  Cl466  1  0.74097384  0.61006465  0.12285088  1
  Cl  Cl467  1  0.74878100  0.94372900  0.12112823  1
  Cl  Cl468  1  0.23827842  0.05735366  0.87741741  1
  Cl  Cl469  1  0.25182266  0.39119505  0.89478321  1
  Cl  Cl470  1  0.25061143  0.71713072  0.88584872  1
  Cl  Cl471  1  0.74423010  0.05307644  0.88221314  1
  Cl  Cl472  1  0.75372590  0.38584683  0.87878494  1
  Cl  Cl473  1  0.74325283  0.72641549  0.88287459  1
  Cl  Cl474  1  0.23240669  0.27809351  0.39814183  1
  Cl  Cl475  1  0.25783602  0.61448876  0.37427214  1
  Cl  Cl476  1  0.23822063  0.93169017  0.39836540  1
  Cl  Cl477  1  0.73317289  0.27668453  0.38993747  1
  Cl  Cl478  1  0.75815026  0.60979280  0.38914644  1
  Cl  Cl479  1  0.74121497  0.94263390  0.39127161  1
  Cl  Cl480  1  0.02046442  0.22660372  0.60471169  1
  Cl  Cl481  1  -0.00965361  0.55538459  0.62024032  1
  Cl  Cl482  1  0.01068635  0.89363233  0.60997826  1
  Cl  Cl483  1  0.51599293  0.22883327  0.60604220  1
  Cl  Cl484  1  0.49124475  0.55611514  0.60986133  1
  Cl  Cl485  1  0.50581568  0.89507445  0.61106465  1
  Cl  Cl486  1  0.00341119  0.11363552  0.12265773  1
  Cl  Cl487  1  0.00312157  0.44797306  0.12794375  1
  Cl  Cl488  1  0.00420273  0.78654431  0.13283352  1
  Cl  Cl489  1  0.50651240  0.11068659  0.11232122  1
  Cl  Cl490  1  0.49568222  0.44009237  0.09827444  1
  Cl  Cl491  1  0.50459261  0.77143523  0.10033996  1
  Cl  Cl492  1  -0.00731547  0.22226455  0.88357006  1
  Cl  Cl493  1  0.01491745  0.55969905  0.89073853  1
  Cl  Cl494  1  0.00289752  0.89596513  0.89042527  1
  Cl  Cl495  1  0.49576881  0.21810204  0.87508885  1
  Cl  Cl496  1  0.50601638  0.55039686  0.88011620  1
  Cl  Cl497  1  0.50321573  0.88812910  0.88080145  1
  Cl  Cl498  1  0.00984927  0.10825748  0.39706909  1
  Cl  Cl499  1  -0.00778513  0.44869210  0.39265523  1
  Cl  Cl500  1  -0.01152368  0.76821550  0.40013971  1
  Cl  Cl501  1  0.50737179  0.11598716  0.37986254  1
  Cl  Cl502  1  0.49367590  0.44706625  0.36890964  1
  Cl  Cl503  1  0.49281456  0.77695215  0.37305650  1
  Cl  Cl504  1  0.36728559  0.14541036  0.74132345  1
  Cl  Cl505  1  0.36399931  0.47960751  0.75792429  1
  Cl  Cl506  1  0.36191293  0.81283269  0.74786442  1
  Cl  Cl507  1  0.86576648  0.14506052  0.74485876  1
  Cl  Cl508  1  0.85853980  0.48413179  0.74650224  1
  Cl  Cl509  1  0.86415643  0.81501772  0.74505777  1
  Cl  Cl510  1  0.14597895  0.18415130  0.25299756  1
  Cl  Cl511  1  0.14063495  0.52157298  0.24783514  1
  Cl  Cl512  1  0.14177868  0.85314965  0.25237384  1
  Cl  Cl513  1  0.64013524  0.18528201  0.25067029  1
  Cl  Cl514  1  0.64098502  0.51877594  0.25619625  1
  Cl  Cl515  1  0.64222056  0.85251504  0.25313838  1
  Cl  Cl516  1  0.14329357  0.15295940  0.74527852  1
  Cl  Cl517  1  0.14374017  0.48319948  0.75007393  1
  Cl  Cl518  1  0.14019440  0.81408339  0.74612011  1
  Cl  Cl519  1  0.64713901  0.14884379  0.75160397  1
  Cl  Cl520  1  0.63859009  0.48048721  0.75189636  1
  Cl  Cl521  1  0.64137479  0.81644427  0.74641704  1
  Cl  Cl522  1  0.36782936  0.18966039  0.25916767  1
  Cl  Cl523  1  0.36070855  0.51962397  0.24416701  1
  Cl  Cl524  1  0.36136432  0.85254151  0.24685378  1
  Cl  Cl525  1  0.85997344  0.18532863  0.25679398  1
  Cl  Cl526  1  0.86198643  0.51764999  0.24237586  1
  Cl  Cl527  1  0.86295491  0.85409953  0.25081617  1
  Cl  Cl528  1  0.10961100  0.31723805  0.75339397  1
  Cl  Cl529  1  0.11121069  0.64826108  0.74610626  1
  Cl  Cl530  1  0.11043041  0.98276142  0.74760762  1
  Cl  Cl531  1  0.61463592  0.31440355  0.75037613  1
  Cl  Cl532  1  0.61139323  0.64842343  0.74765894  1
  Cl  Cl533  1  0.60515540  0.98529631  0.75152425  1
  Cl  Cl534  1  0.38656582  0.02158315  0.25412724  1
  Cl  Cl535  1  0.39011865  0.35425545  0.25150356  1
  Cl  Cl536  1  0.39155747  0.68765815  0.23678447  1
  Cl  Cl537  1  0.89354076  0.01979108  0.25114841  1
  Cl  Cl538  1  0.89254373  0.35007505  0.25306985  1
  Cl  Cl539  1  0.89234918  0.68597475  0.25096098  1
  Cl  Cl540  1  0.39436248  0.31142121  0.74875398  1
  Cl  Cl541  1  0.38934361  0.64693055  0.75709437  1
  Cl  Cl542  1  0.38237836  0.97813703  0.75240225  1
  Cl  Cl543  1  0.89014675  0.31436085  0.74590422  1
  Cl  Cl544  1  0.89146419  0.65054740  0.75202643  1
  Cl  Cl545  1  0.89211224  0.97839403  0.74546744  1
  Cl  Cl546  1  0.11268472  0.01891265  0.25487917  1
  Cl  Cl547  1  0.11116373  0.35203812  0.24853831  1
  Cl  Cl548  1  0.11327965  0.68714433  0.25981284  1
  Cl  Cl549  1  0.61010709  0.01655891  0.24959094  1
  Cl  Cl550  1  0.60864227  0.35092490  0.24796675  1
  Cl  Cl551  1  0.61134008  0.68545065  0.25369754  1
