# generated using pymatgen
data_H8PbC4(N3Cl2)2
_symmetry_space_group_name_H-M   'P 1'
_cell_length_a   16.62757797
_cell_length_b   22.51716561
_cell_length_c   21.59535150
_cell_angle_alpha   90.00027796
_cell_angle_beta   89.97726214
_cell_angle_gamma   90.00150799
_symmetry_Int_Tables_number   1
_chemical_formula_structural   H8PbC4(N3Cl2)2
_chemical_formula_sum   'H192 Pb24 C96 N144 Cl96'
_cell_volume   8085.42695381
_cell_formula_units_Z   24
loop_
 _symmetry_equiv_pos_site_id
 _symmetry_equiv_pos_as_xyz
  1  'x, y, z'
loop_
 _atom_site_type_symbol
 _atom_site_label
 _atom_site_symmetry_multiplicity
 _atom_site_fract_x
 _atom_site_fract_y
 _atom_site_fract_z
 _atom_site_occupancy
  H  H0  1  -0.00552723  0.03029786  0.67735598  1
  H  H1  1  0.01608739  0.36069676  0.67310814  1
  H  H2  1  -0.01517072  0.70060322  0.68086574  1
  H  H3  1  0.49801501  0.02415837  0.68045921  1
  H  H4  1  0.48543614  0.36412099  0.67982306  1
  H  H5  1  0.51943721  0.69708884  0.68077283  1
  H  H6  1  -0.00180566  0.30144034  0.17844472  1
  H  H7  1  -0.00719851  0.63364447  0.17448829  1
  H  H8  1  -0.00772210  0.96949861  0.18212457  1
  H  H9  1  0.49590999  0.30356398  0.17632622  1
  H  H10  1  0.49784681  0.63367683  0.17866175  1
  H  H11  1  0.50359159  0.97226412  0.17418760  1
  H  H12  1  -0.00243180  0.02914354  0.82015424  1
  H  H13  1  0.01195410  0.36174885  0.82308561  1
  H  H14  1  0.01707152  0.69386790  0.82627999  1
  H  H15  1  0.50037514  0.02800234  0.82114244  1
  H  H16  1  0.48674368  0.36062885  0.81937933  1
  H  H17  1  0.48071792  0.69153189  0.82197265  1
  H  H18  1  0.00718590  0.30685736  0.32192874  1
  H  H19  1  0.00383374  0.63634705  0.32021727  1
  H  H20  1  0.01110226  0.97212821  0.32208977  1
  H  H21  1  0.49545997  0.30404549  0.32246642  1
  H  H22  1  0.50194156  0.63531578  0.32131728  1
  H  H23  1  0.48218383  0.96712881  0.31860657  1
  H  H24  1  0.25522473  0.19600483  0.67711923  1
  H  H25  1  0.23582593  0.52852434  0.68041302  1
  H  H26  1  0.25299082  0.86252514  0.68143339  1
  H  H27  1  0.74712214  0.19532148  0.67685870  1
  H  H28  1  0.75045740  0.52804781  0.67593550  1
  H  H29  1  0.74331584  0.86357391  0.67731905  1
  H  H30  1  0.25354534  0.14004244  0.18074659  1
  H  H31  1  0.24237030  0.47143285  0.18049086  1
  H  H32  1  0.25958132  0.80771979  0.18154708  1
  H  H33  1  0.74057254  0.13670534  0.18100787  1
  H  H34  1  0.75301285  0.47323412  0.17611030  1
  H  H35  1  0.74875942  0.80682115  0.17496918  1
  H  H36  1  0.26085531  0.19501446  0.82656876  1
  H  H37  1  0.26110356  0.53439785  0.82744840  1
  H  H38  1  0.24201746  0.86609864  0.82031210  1
  H  H39  1  0.74901507  0.19343440  0.82367060  1
  H  H40  1  0.75466139  0.52939967  0.82108814  1
  H  H41  1  0.74196273  0.86212145  0.82319426  1
  H  H42  1  0.26783106  0.13669728  0.31855241  1
  H  H43  1  0.25726621  0.47230421  0.32371944  1
  H  H44  1  0.25517843  0.80373952  0.32140675  1
  H  H45  1  0.73763262  0.14070328  0.32378237  1
  H  H46  1  0.74082880  0.46826238  0.32780812  1
  H  H47  1  0.74630470  0.80239297  0.31482943  1
  H  H48  1  0.12145479  0.05200984  0.61175200  1
  H  H49  1  0.11660735  0.39524435  0.58712682  1
  H  H50  1  0.12954684  0.71573121  0.63452812  1
  H  H51  1  0.62200553  0.05580886  0.61461392  1
  H  H52  1  0.62652626  0.38033052  0.62561636  1
  H  H53  1  0.62223675  0.72217192  0.59396967  1
  H  H54  1  0.37746363  0.27701772  0.10313492  1
  H  H55  1  0.37637996  0.61122613  0.10674731  1
  H  H56  1  0.37063316  0.94783667  0.11343204  1
  H  H57  1  0.88504092  0.27533889  0.09823480  1
  H  H58  1  0.88438303  0.60692202  0.09407557  1
  H  H59  1  0.87020957  0.94524516  0.10952539  1
  H  H60  1  0.37677119  0.05670289  0.89029552  1
  H  H61  1  0.36912137  0.38839830  0.89444993  1
  H  H62  1  0.37885773  0.72097078  0.90902059  1
  H  H63  1  0.87694084  0.05333589  0.89288630  1
  H  H64  1  0.87076043  0.38252743  0.87426516  1
  H  H65  1  0.87093802  0.71339776  0.86831920  1
  H  H66  1  0.12802546  0.27891920  0.39648647  1
  H  H67  1  0.10972175  0.60677154  0.40293469  1
  H  H68  1  0.11292475  0.94297571  0.40655738  1
  H  H69  1  0.63170456  0.28054959  0.37837211  1
  H  H70  1  0.61853159  0.61035098  0.39720904  1
  H  H71  1  0.61299057  0.94624003  0.38557713  1
  H  H72  1  0.36432543  0.22600727  0.59432313  1
  H  H73  1  0.37710871  0.54847381  0.62839229  1
  H  H74  1  0.38431902  0.88580206  0.61818991  1
  H  H75  1  0.87013221  0.22132379  0.60646600  1
  H  H76  1  0.88187603  0.55339208  0.61416844  1
  H  H77  1  0.87804584  0.88550401  0.61688914  1
  H  H78  1  0.12335215  0.11431260  0.11402942  1
  H  H79  1  0.13479491  0.44487575  0.09736877  1
  H  H80  1  0.12933039  0.78024204  0.12081690  1
  H  H81  1  0.62235259  0.10997680  0.10443574  1
  H  H82  1  0.63090243  0.44607322  0.10608844  1
  H  H83  1  0.63077572  0.77751048  0.09967252  1
  H  H84  1  0.12194593  0.21597809  0.88083983  1
  H  H85  1  0.11908947  0.55014221  0.87458606  1
  H  H86  1  0.12979142  0.89017046  0.90054195  1
  H  H87  1  0.62146771  0.21965460  0.88905060  1
  H  H88  1  0.62208025  0.55248265  0.88476338  1
  H  H89  1  0.63058688  0.89200726  0.90215148  1
  H  H90  1  0.37211755  0.10919739  0.40383212  1
  H  H91  1  0.36966050  0.44383924  0.40322532  1
  H  H92  1  0.37156798  0.77842451  0.39683380  1
  H  H93  1  0.87590309  0.11495957  0.37794082  1
  H  H94  1  0.87521056  0.44324976  0.38580322  1
  H  H95  1  0.87258636  0.78277998  0.38325713  1
  H  H96  1  0.38492044  0.27605210  0.40386002  1
  H  H97  1  0.37075509  0.61556344  0.38238958  1
  H  H98  1  0.36495969  0.94273805  0.39712015  1
  H  H99  1  0.87984469  0.27976299  0.38965101  1
  H  H100  1  0.86426153  0.61324888  0.37406369  1
  H  H101  1  0.86928502  0.95620343  0.37100081  1
  H  H102  1  0.12637631  0.05518802  0.88587636  1
  H  H103  1  0.11350670  0.39366386  0.90864572  1
  H  H104  1  0.11054505  0.72710383  0.91588483  1
  H  H105  1  0.62581707  0.05224711  0.89117382  1
  H  H106  1  0.61773637  0.38398637  0.88476971  1
  H  H107  1  0.62258433  0.71566721  0.86913053  1
  H  H108  1  0.13268748  0.28044948  0.11860659  1
  H  H109  1  0.13057566  0.61643934  0.12048343  1
  H  H110  1  0.11912789  0.94558292  0.11346174  1
  H  H111  1  0.62558096  0.28222675  0.11381467  1
  H  H112  1  0.62538562  0.61327683  0.11315096  1
  H  H113  1  0.61853745  0.94138312  0.09897784  1
  H  H114  1  0.37310445  0.04981680  0.60959590  1
  H  H115  1  0.38162724  0.39340759  0.59537820  1
  H  H116  1  0.37767579  0.71728792  0.62888056  1
  H  H117  1  0.87263034  0.05620124  0.60550129  1
  H  H118  1  0.87414054  0.37983819  0.62463851  1
  H  H119  1  0.88665947  0.72450491  0.59274170  1
  H  H120  1  0.12705693  0.11749966  0.37204250  1
  H  H121  1  0.12275081  0.44421337  0.37948452  1
  H  H122  1  0.12325965  0.78213503  0.38210422  1
  H  H123  1  0.63075840  0.11021549  0.40752257  1
  H  H124  1  0.62876436  0.44408436  0.40865792  1
  H  H125  1  0.62297700  0.77838480  0.38430198  1
  H  H126  1  0.36711106  0.22654307  0.90744088  1
  H  H127  1  0.36180157  0.56031323  0.91367652  1
  H  H128  1  0.37745815  0.88694586  0.88076178  1
  H  H129  1  0.87055589  0.22038549  0.89600279  1
  H  H130  1  0.87039339  0.55860921  0.89613003  1
  H  H131  1  0.87768606  0.88364347  0.88224190  1
  H  H132  1  0.37136957  0.11196139  0.10507056  1
  H  H133  1  0.38089623  0.45059034  0.12378494  1
  H  H134  1  0.37768201  0.77756328  0.10625132  1
  H  H135  1  0.87033911  0.11415107  0.11338146  1
  H  H136  1  0.87998532  0.44640026  0.10818585  1
  H  H137  1  0.87806850  0.77777039  0.11056522  1
  H  H138  1  0.11797874  0.21804896  0.61989440  1
  H  H139  1  0.13428961  0.55859489  0.59368197  1
  H  H140  1  0.13522312  0.88585970  0.60780359  1
  H  H141  1  0.62136803  0.22184575  0.60813376  1
  H  H142  1  0.63323162  0.55649114  0.60094870  1
  H  H143  1  0.63144778  0.89288902  0.59722804  1
  H  H144  1  0.70882756  0.08598231  0.50702205  1
  H  H145  1  0.45892558  0.74119840  1.00739060  1
  H  H146  1  0.66897916  0.75210891  0.49585080  1
  H  H147  1  0.69311179  0.40589824  0.50443233  1
  H  H148  1  0.40553692  0.91814221  0.00553211  1
  H  H149  1  0.45573034  0.24764924  0.50462449  1
  H  H150  1  0.45869541  0.42273713  0.49378641  1
  H  H151  1  0.42579680  0.06543708  0.50225285  1
  H  H152  1  0.88015483  0.92699457  0.48526494  1
  H  H153  1  0.31615996  0.75099267  0.50528955  1
  H  H154  1  0.15088847  0.75223095  0.49570432  1
  H  H155  1  0.59281833  0.24961568  0.00124907  1
  H  H156  1  0.16450219  0.74299791  0.01111836  1
  H  H157  1  0.19527105  0.92168438  1.00476825  1
  H  H158  1  0.96728724  0.75168448  0.49005883  1
  H  H159  1  0.58675447  0.58265555  0.00073006  1
  H  H160  1  0.03884046  0.57914906  0.50678660  1
  H  H161  1  0.83925060  0.74951978  0.00351050  1
  H  H162  1  0.92777188  0.08592311  1.00068070  1
  H  H163  1  0.88296735  0.58896121  0.48527236  1
  H  H164  1  0.69328627  0.58495665  0.49745928  1
  H  H165  1  0.40196120  0.58766205  0.49697519  1
  H  H166  1  0.20607886  0.41792622  -0.00610740  1
  H  H167  1  0.42703586  0.41967322  1.00022408  1
  H  H168  1  0.03783385  0.91605781  0.51024438  1
  H  H169  1  0.02332519  0.74958384  1.01141533  1
  H  H170  1  0.70062815  0.91622477  0.49513170  1
  H  H171  1  0.28917538  0.25424010  0.49522441  1
  H  H172  1  0.60942519  0.74937847  0.98159631  1
  H  H173  1  0.92189104  0.91708689  0.00154477  1
  H  H174  1  0.54314250  0.74862114  0.49183399  1
  H  H175  1  0.83756638  0.42094469  0.00234404  1
  H  H176  1  0.21557824  0.58297153  0.49582535  1
  H  H177  1  0.84786309  0.41706976  0.49533139  1
  H  H178  1  0.03255064  0.42134687  1.00565807  1
  H  H179  1  0.42751354  0.09088568  0.99747466  1
  H  H180  1  0.08207531  0.08441555  0.49976158  1
  H  H181  1  0.30014406  0.41508819  0.50468537  1
  H  H182  1  0.19050798  0.91566224  0.49738697  1
  H  H183  1  0.11851517  0.58155209  -0.00264107  1
  H  H184  1  0.82979450  0.75909463  0.49619205  1
  H  H185  1  0.67950314  0.41513146  -0.00310323  1
  H  H186  1  0.14250763  0.24779065  0.98991851  1
  H  H187  1  0.29486341  0.08008668  0.50547791  1
  H  H188  1  0.31693316  0.75527578  0.00218283  1
  H  H189  1  0.81599037  0.24951401  0.99998467  1
  H  H190  1  0.08547106  0.08117728  0.99250955  1
  H  H191  1  0.57701363  0.08675662  0.50430041  1
  Pb  Pb192  1  0.24918976  0.04712875  0.74810027  1
  Pb  Pb193  1  0.24346734  0.38437861  0.74723067  1
  Pb  Pb194  1  0.25613482  0.71529222  0.76791110  1
  Pb  Pb195  1  0.75376906  0.04920330  0.74652483  1
  Pb  Pb196  1  0.74910263  0.37948552  0.74996014  1
  Pb  Pb197  1  0.74971443  0.71362738  0.73639549  1
  Pb  Pb198  1  0.25063938  0.28715069  0.25586414  1
  Pb  Pb199  1  0.24386076  0.61640253  0.26021255  1
  Pb  Pb200  1  0.24629245  0.95332622  0.25478504  1
  Pb  Pb201  1  0.75015886  0.28648024  0.24136051  1
  Pb  Pb202  1  0.74788887  0.61888614  0.25118980  1
  Pb  Pb203  1  0.74394130  0.95057966  0.24925326  1
  Pb  Pb204  1  -0.00145758  0.21340222  0.75349415  1
  Pb  Pb205  1  -0.00278081  0.54985780  0.74421963  1
  Pb  Pb206  1  0.00297506  0.87912922  0.75300984  1
  Pb  Pb207  1  0.49448394  0.21614227  0.74703199  1
  Pb  Pb208  1  0.50182782  0.54632722  0.75373605  1
  Pb  Pb209  1  0.50765891  0.88290559  0.75411795  1
  Pb  Pb210  1  -0.00209288  0.11963756  0.24341301  1
  Pb  Pb211  1  -0.00432123  0.45175312  0.24024731  1
  Pb  Pb212  1  -0.00135011  0.78608625  0.24522137  1
  Pb  Pb213  1  0.49934700  0.11911607  0.25575503  1
  Pb  Pb214  1  0.50226324  0.45271951  0.25647268  1
  Pb  Pb215  1  0.49378476  0.78240002  0.24717476  1
  C  C216  1  -0.00326305  0.04593052  0.62996668  1
  C  C217  1  0.00239965  0.37827598  0.62772355  1
  C  C218  1  0.00032738  0.71359837  0.63394920  1
  C  C219  1  0.49707032  0.04169575  0.63356419  1
  C  C220  1  0.49823795  0.37834249  0.63288192  1
  C  C221  1  0.50623616  0.71211773  0.63408107  1
  C  C222  1  0.00517425  0.28586388  0.13138810  1
  C  C223  1  0.00292523  0.61861176  0.12744348  1
  C  C224  1  -0.00601379  0.95382045  0.13466403  1
  C  C225  1  0.50029675  0.28760223  0.12912024  1
  C  C226  1  0.50044425  0.61903951  0.13095398  1
  C  C227  1  0.49707746  0.95489860  0.12765560  1
  C  C228  1  0.00082399  0.04515695  0.86762138  1
  C  C229  1  -0.00120366  0.37850692  0.86907371  1
  C  C230  1  -0.00022808  0.71010805  0.87174858  1
  C  C231  1  0.50102143  0.04527069  0.86795842  1
  C  C232  1  0.49138883  0.37718949  0.86644067  1
  C  C233  1  0.49394988  0.70817620  0.86824914  1
  C  C234  1  0.00528940  0.28932894  0.36865875  1
  C  C235  1  -0.00846100  0.62096600  0.36709095  1
  C  C236  1  -0.00285652  0.95722652  0.36872036  1
  C  C237  1  0.50376047  0.28797461  0.36926451  1
  C  C238  1  0.49623917  0.62100806  0.36898992  1
  C  C239  1  0.48671143  0.95302392  0.36656527  1
  C  C240  1  0.24627791  0.21266594  0.63048972  1
  C  C241  1  0.24895327  0.54405278  0.63399412  1
  C  C242  1  0.25728556  0.87813101  0.63415383  1
  C  C243  1  0.74585616  0.21273939  0.63024886  1
  C  C244  1  0.75487771  0.54545119  0.62916052  1
  C  C245  1  0.75063433  0.87977011  0.63029746  1
  C  C246  1  0.24924089  0.12315721  0.13375912  1
  C  C247  1  0.25305150  0.45631911  0.13347259  1
  C  C248  1  0.25599590  0.79025763  0.13468625  1
  C  C249  1  0.74458479  0.12099126  0.13361208  1
  C  C250  1  0.75526138  0.45631959  0.12893720  1
  C  C251  1  0.75300290  0.78843858  0.12863956  1
  C  C252  1  0.24938190  0.21180247  0.87277489  1
  C  C253  1  0.24664727  0.54855366  0.87411908  1
  C  C254  1  0.25009422  0.88109862  0.86773458  1
  C  C255  1  0.74743758  0.21037118  0.87058147  1
  C  C256  1  0.74866762  0.54618285  0.86771304  1
  C  C257  1  0.75049363  0.87897540  0.86959185  1
  C  C258  1  0.25541629  0.12147406  0.36525528  1
  C  C259  1  0.25018225  0.45456128  0.36995221  1
  C  C260  1  0.24978144  0.78795818  0.36882263  1
  C  C261  1  0.74742002  0.12339616  0.37000107  1
  C  C262  1  0.74836243  0.45186419  0.37486312  1
  C  C263  1  0.74740316  0.78761987  0.36270072  1
  C  C264  1  0.30707894  0.90487805  0.54389186  1
  C  C265  1  0.04043122  0.07392672  0.53711175  1
  C  C266  1  0.72799870  0.91271856  0.96304584  1
  C  C267  1  0.05641657  0.25974126  0.04214968  1
  C  C268  1  0.22596467  0.90539927  0.53835620  1
  C  C269  1  0.71722750  0.42672680  0.03617028  1
  C  C270  1  0.17951247  0.57235757  0.95883528  1
  C  C271  1  0.54815625  0.25947862  0.03742646  1
  C  C272  1  0.26828851  0.09242039  0.46117965  1
  C  C273  1  0.93049317  0.93444800  0.45396968  1
  C  C274  1  0.78187928  0.24508296  0.53897883  1
  C  C275  1  0.56260791  0.25592843  0.45538515  1
  C  C276  1  0.27985077  0.76136099  0.46472705  1
  C  C277  1  0.01021981  0.59172704  0.46328268  1
  C  C278  1  0.22749401  0.90953455  0.96278991  1
  C  C279  1  0.20622158  0.75701652  0.04711089  1
  C  C280  1  0.55997883  0.73928095  0.95013955  1
  C  C281  1  0.96008482  0.92716911  0.04114360  1
  C  C282  1  0.54475940  0.59248139  0.03795595  1
  C  C283  1  0.19803403  0.76237862  0.45970363  1
  C  C284  1  0.51761790  0.73894821  0.53726301  1
  C  C285  1  0.70787194  0.76288071  0.45703376  1
  C  C286  1  0.01053715  0.92915632  0.46653535  1
  C  C287  1  0.98156978  0.58955396  0.03194020  1
  C  C288  1  0.46666999  0.25796923  0.03530871  1
  C  C289  1  0.46256246  0.40700995  0.96002710  1
  C  C290  1  0.23570633  0.42883305  0.03750030  1
  C  C291  1  0.93871525  0.40666310  0.54416291  1
  C  C292  1  0.92576539  0.73693187  0.95228271  1
  C  C293  1  0.19337342  0.41944189  0.45566648  1
  C  C294  1  0.96481857  0.07439142  0.96097871  1
  C  C295  1  0.48574433  0.40839608  0.53730882  1
  C  C296  1  0.70073398  0.24114663  0.96147682  1
  C  C297  1  0.46319759  0.59174536  0.03712321  1
  C  C298  1  0.07122550  0.73625929  0.55093885  1
  C  C299  1  0.25923911  0.57593603  0.97125285  1
  C  C300  1  0.95897164  0.07499839  0.53685784  1
  C  C301  1  0.52738477  0.92133195  0.03369316  1
  C  C302  1  0.78981937  0.76549663  0.45699555  1
  C  C303  1  0.80596397  0.57533649  0.53967362  1
  C  C304  1  0.53893818  0.07356777  0.54286125  1
  C  C305  1  0.44636623  0.59657359  0.46093847  1
  C  C306  1  0.46547649  0.07734451  0.95900388  1
  C  C307  1  0.77665886  0.58021871  0.96020522  1
  C  C308  1  0.06228789  0.59297786  0.04002596  1
  C  C309  1  0.99251254  0.73974751  0.53490106  1
  C  C310  1  0.26961053  0.24536444  0.96851059  1
  C  C311  1  0.52771551  0.59515957  0.46450043  1
  N  N312  1  0.28576840  0.75649701  0.04310464  1
  N  N313  1  0.72872513  0.91102432  0.53747673  1
  N  N314  1  0.48438134  0.25582511  0.46306186  1
  N  N315  1  0.19037116  0.09495853  0.45070750  1
  N  N316  1  0.70437270  0.24522058  0.53818115  1
  N  N317  1  0.03908861  0.25733262  0.46159344  1
  N  N318  1  0.53304537  0.92818128  0.45858289  1
  N  N319  1  0.71857098  0.75833055  0.03520918  1
  N  N320  1  0.54473211  0.07575915  0.95984992  1
  N  N321  1  0.80928460  0.09252396  0.45411849  1
  N  N322  1  0.79696090  0.42706114  0.03826708  1
  N  N323  1  0.96300848  0.25696508  0.45934618  1
  N  N324  1  0.00224021  0.74170030  0.96695204  1
  N  N325  1  0.26357248  0.24533835  0.53794999  1
  N  N326  1  0.79673742  0.75768130  0.04003514  1
  N  N327  1  0.20384099  0.09369229  0.04279786  1
  N  N328  1  0.78002568  0.24144048  0.96253880  1
  N  N329  1  0.04449073  0.07514484  0.95738843  1
  N  N330  1  0.27163875  0.42133786  0.46293158  1
  N  N331  1  0.30647235  0.90789641  0.95678005  1
  N  N332  1  0.00963606  0.41342879  0.96156997  1
  N  N333  1  0.71343038  0.09081699  0.03943922  1
  N  N334  1  0.18631005  0.24330476  0.54528569  1
  N  N335  1  0.45669121  0.92715026  0.46222961  1
  N  N336  1  0.73219871  0.09119906  0.46302669  1
  N  N337  1  0.56375197  0.40322226  0.54694659  1
  N  N338  1  0.23816692  0.57580550  0.54029623  1
  N  N339  1  0.45925582  0.07065261  0.54170138  1
  N  N340  1  0.19190415  0.24076978  0.95842664  1
  N  N341  1  0.93279400  0.40920528  0.95159231  1
  N  N342  1  0.72708514  0.57655413  0.53630869  1
  N  N343  1  0.31470132  0.57160559  0.55057466  1
  N  N344  1  0.31408922  0.43055240  0.04596346  1
  N  N345  1  0.69923090  0.57771650  0.95776626  1
  N  N346  1  0.44868750  0.92471897  0.03940819  1
  N  N347  1  0.80609754  0.90766156  0.54306868  1
  N  N348  1  0.78981299  0.09237568  0.04230313  1
  N  N349  1  0.54172188  0.40513298  0.95722901  1
  N  N350  1  0.03952591  0.92680346  0.04195527  1
  N  N351  1  0.28054451  0.09317071  0.03953190  1
  N  N352  1  0.43997856  0.73847473  0.54913277  1
  N  N353  1  0.72444556  0.42837008  0.47052460  1
  N  N354  1  0.48190886  0.74043816  0.96305693  1
  N  N355  1  0.97934411  0.25744897  0.03437641  1
  N  N356  1  0.80169100  0.41903113  0.45996407  1
  N  N357  1  0.80530316  0.90985301  0.95819396  1
  N  N358  1  0.93195641  0.59525207  0.45284945  1
  N  N359  1  0.01429970  0.41308931  0.53128685  1
  N  N360  1  0.06271704  0.05550942  0.59626324  1
  N  N361  1  0.05425526  0.39462947  0.58468570  1
  N  N362  1  0.07564046  0.72071993  0.61071945  1
  N  N363  1  0.56228180  0.05765244  0.60022894  1
  N  N364  1  0.56947605  0.38474724  0.60651580  1
  N  N365  1  0.55998414  0.72321153  0.58913650  1
  N  N366  1  0.43804044  0.27480654  0.09048744  1
  N  N367  1  0.43660567  0.60765892  0.09320781  1
  N  N368  1  0.42939491  0.94617739  0.09710665  1
  N  N369  1  0.94741612  0.27403973  0.09145523  1
  N  N370  1  0.94579625  0.60514481  0.08495860  1
  N  N371  1  0.93078798  0.94334940  0.09776179  1
  N  N372  1  0.43700529  0.05890381  0.90293869  1
  N  N373  1  0.43010644  0.39014453  0.90457621  1
  N  N374  1  0.44134925  0.71744848  0.91336056  1
  N  N375  1  0.93753079  0.05661904  0.90499098  1
  N  N376  1  0.92689491  0.38944751  0.89316942  1
  N  N377  1  0.92411686  0.71902739  0.89266743  1
  N  N378  1  0.06694591  0.27746524  0.40547414  1
  N  N379  1  0.04744062  0.60747084  0.41008876  1
  N  N380  1  0.05090734  0.94352861  0.41287593  1
  N  N381  1  0.57487498  0.27527120  0.39726767  1
  N  N382  1  0.55743193  0.60983492  0.40899731  1
  N  N383  1  0.55283120  0.94456940  0.39941985  1
  N  N384  1  0.30187945  0.22514073  0.58867206  1
  N  N385  1  0.32092551  0.55392838  0.60936812  1
  N  N386  1  0.32569608  0.88866952  0.60169893  1
  N  N387  1  0.80998991  0.22558236  0.59428098  1
  N  N388  1  0.82369136  0.55722749  0.59775628  1
  N  N389  1  0.81948415  0.89034664  0.60120777  1
  N  N390  1  0.18351640  0.11208781  0.10131777  1
  N  N391  1  0.19684898  0.44417764  0.09082188  1
  N  N392  1  0.18759617  0.77650294  0.10433841  1
  N  N393  1  0.68394117  0.10878327  0.09574082  1
  N  N394  1  0.69126055  0.44393674  0.09271674  1
  N  N395  1  0.69198656  0.77632646  0.09070361  1
  N  N396  1  0.17902238  0.21991544  0.89947643  1
  N  N397  1  0.17315538  0.55576526  0.89783111  1
  N  N398  1  0.19161282  0.89304377  0.90871931  1
  N  N399  1  0.68052779  0.22281920  0.90426506  1
  N  N400  1  0.68162082  0.55612595  0.89879504  1
  N  N401  1  0.69210992  0.89385955  0.91030265  1
  N  N402  1  0.30980320  0.10865405  0.40916114  1
  N  N403  1  0.30784856  0.44472703  0.41090045  1
  N  N404  1  0.31069381  0.77701592  0.40784755  1
  N  N405  1  0.81813826  0.11101197  0.39576024  1
  N  N406  1  0.81709922  0.44168491  0.40373420  1
  N  N407  1  0.81306283  0.78042400  0.39801597  1
  N  N408  1  0.44701846  0.27735385  0.41072456  1
  N  N409  1  0.42794342  0.61256793  0.40025644  1
  N  N410  1  0.42657738  0.94229507  0.40536772  1
  N  N411  1  0.94042882  0.27679907  0.40184542  1
  N  N412  1  0.92076914  0.61498820  0.39415342  1
  N  N413  1  0.92361480  0.95130052  0.39333438  1
  N  N414  1  0.06644796  0.05544923  0.90037911  1
  N  N415  1  0.05115438  0.39191070  0.91295990  1
  N  N416  1  0.04874051  0.72212318  0.91823505  1
  N  N417  1  0.56508179  0.05580156  0.90277851  1
  N  N418  1  0.55777449  0.38681963  0.89872747  1
  N  N419  1  0.56728262  0.72129394  0.89093229  1
  N  N420  1  0.07478486  0.27656501  0.10121962  1
  N  N421  1  0.07434726  0.61068596  0.10009542  1
  N  N422  1  0.05870800  0.94332256  0.10058861  1
  N  N423  1  0.56773231  0.27791347  0.09726600  1
  N  N424  1  0.56671673  0.60955419  0.09747783  1
  N  N425  1  0.55752819  0.93962740  0.08833708  1
  N  N426  1  0.43390498  0.04746514  0.59692330  1
  N  N427  1  0.44399695  0.39286117  0.58944576  1
  N  N428  1  0.43473606  0.72184952  0.60929184  1
  N  N429  1  0.93284204  0.05814953  0.59278061  1
  N  N430  1  0.92899997  0.38627602  0.60326092  1
  N  N431  1  0.94882034  0.72504809  0.58815379  1
  N  N432  1  0.18420430  0.11287198  0.39095570  1
  N  N433  1  0.17984243  0.43948495  0.39796434  1
  N  N434  1  0.18116628  0.77874831  0.39973835  1
  N  N435  1  0.69269094  0.11192735  0.41290049  1
  N  N436  1  0.69040295  0.43991262  0.41514987  1
  N  N437  1  0.68286132  0.77639216  0.39807504  1
  N  N438  1  0.30556723  0.22757765  0.91545317  1
  N  N439  1  0.29971889  0.56139021  0.91982177  1
  N  N440  1  0.31880271  0.89048097  0.89693589  1
  N  N441  1  0.80944716  0.22115611  0.90696655  1
  N  N442  1  0.80924546  0.56116344  0.90633235  1
  N  N443  1  0.81922184  0.88871763  0.89828121  1
  N  N444  1  0.30977812  0.11136033  0.09566913  1
  N  N445  1  0.32304510  0.44779351  0.10584525  1
  N  N446  1  0.31628460  0.78076101  0.09598449  1
  N  N447  1  0.81030513  0.11087210  0.10073011  1
  N  N448  1  0.82005112  0.44704724  0.09485535  1
  N  N449  1  0.81860265  0.77694835  0.09637885  1
  N  N450  1  0.17601697  0.22391979  0.60337246  1
  N  N451  1  0.19663695  0.55622280  0.58963297  1
  N  N452  1  0.19574913  0.88876735  0.59596160  1
  N  N453  1  0.68169812  0.22489047  0.59649473  1
  N  N454  1  0.69489749  0.55667375  0.59104081  1
  N  N455  1  0.69330724  0.89103735  0.58937170  1
  Cl  Cl456  1  0.25236867  0.05632476  0.61212104  1
  Cl  Cl457  1  0.25509762  0.39504245  0.60277061  1
  Cl  Cl458  1  0.25442487  0.71593821  0.63589659  1
  Cl  Cl459  1  0.74455453  0.05960587  0.60725669  1
  Cl  Cl460  1  0.74948742  0.39017256  0.61468183  1
  Cl  Cl461  1  0.75278461  0.72316718  0.60093608  1
  Cl  Cl462  1  0.25571571  0.27881851  0.12329216  1
  Cl  Cl463  1  0.25622826  0.61932510  0.12994955  1
  Cl  Cl464  1  0.24532384  0.94366016  0.11998195  1
  Cl  Cl465  1  0.76124800  0.27829888  0.10457549  1
  Cl  Cl466  1  0.75882824  0.61173918  0.12089822  1
  Cl  Cl467  1  0.74371904  0.94160631  0.11722841  1
  Cl  Cl468  1  0.25027990  0.05738156  0.87894690  1
  Cl  Cl469  1  0.23700986  0.38923514  0.88643383  1
  Cl  Cl470  1  0.25120032  0.72838615  0.90575849  1
  Cl  Cl471  1  0.75167321  0.05022889  0.87709526  1
  Cl  Cl472  1  0.74274971  0.38474667  0.88425144  1
  Cl  Cl473  1  0.74699128  0.71720091  0.86834987  1
  Cl  Cl474  1  0.26141887  0.27640220  0.39760937  1
  Cl  Cl475  1  0.23099631  0.60104890  0.39994206  1
  Cl  Cl476  1  0.23780309  0.94219780  0.38955869  1
  Cl  Cl477  1  0.75781891  0.28473512  0.37290188  1
  Cl  Cl478  1  0.73747889  0.60337096  0.39134997  1
  Cl  Cl479  1  0.73464545  0.94084314  0.38818955  1
  Cl  Cl480  1  -0.00674566  0.21559217  0.62335484  1
  Cl  Cl481  1  0.01158251  0.55907382  0.60791127  1
  Cl  Cl482  1  0.00698389  0.88522715  0.61833089  1
  Cl  Cl483  1  0.48592495  0.22442050  0.60184920  1
  Cl  Cl484  1  0.51085629  0.55282304  0.62049084  1
  Cl  Cl485  1  0.51222846  0.88975730  0.62212716  1
  Cl  Cl486  1  -0.00156233  0.11020256  0.10741705  1
  Cl  Cl487  1  0.01000400  0.44035518  0.10055486  1
  Cl  Cl488  1  0.00348891  0.77123339  0.10610466  1
  Cl  Cl489  1  0.49558613  0.11051289  0.12129171  1
  Cl  Cl490  1  0.50795908  0.44588024  0.12453087  1
  Cl  Cl491  1  0.50118007  0.77227423  0.10346036  1
  Cl  Cl492  1  -0.00555345  0.21996964  0.88622298  1
  Cl  Cl493  1  -0.00950367  0.55181846  0.87453312  1
  Cl  Cl494  1  0.00592377  0.88325114  0.88544109  1
  Cl  Cl495  1  0.49397548  0.22314944  0.87958630  1
  Cl  Cl496  1  0.49033772  0.55697837  0.88819583  1
  Cl  Cl497  1  0.50490432  0.88858169  0.89022998  1
  Cl  Cl498  1  -0.00001189  0.11234818  0.37354824  1
  Cl  Cl499  1  -0.00299882  0.44908025  0.37053925  1
  Cl  Cl500  1  -0.00316396  0.77876071  0.37643301  1
  Cl  Cl501  1  0.50054577  0.10751849  0.39949824  1
  Cl  Cl502  1  0.49838095  0.44374106  0.39336382  1
  Cl  Cl503  1  0.49754955  0.77627356  0.38093862  1
  Cl  Cl504  1  0.35944569  0.14879134  0.74782228  1
  Cl  Cl505  1  0.36438440  0.47937289  0.74566226  1
  Cl  Cl506  1  0.36146963  0.81087871  0.75720375  1
  Cl  Cl507  1  0.86017680  0.14551110  0.75308991  1
  Cl  Cl508  1  0.86004044  0.48129407  0.74503866  1
  Cl  Cl509  1  0.86439940  0.81257129  0.74966301  1
  Cl  Cl510  1  0.13864792  0.18609229  0.25410305  1
  Cl  Cl511  1  0.14450993  0.51942200  0.25163634  1
  Cl  Cl512  1  0.14005056  0.84883943  0.24627186  1
  Cl  Cl513  1  0.63880841  0.18562351  0.25228504  1
  Cl  Cl514  1  0.64628403  0.51291848  0.25184764  1
  Cl  Cl515  1  0.64399477  0.84906100  0.24569881  1
  Cl  Cl516  1  0.13956917  0.14989062  0.75329679  1
  Cl  Cl517  1  0.14468734  0.48163952  0.75371852  1
  Cl  Cl518  1  0.14254316  0.81398356  0.74940647  1
  Cl  Cl519  1  0.64187689  0.14852429  0.74485765  1
  Cl  Cl520  1  0.64088386  0.48146945  0.75301006  1
  Cl  Cl521  1  0.64536299  0.81758366  0.74775309  1
  Cl  Cl522  1  0.36243264  0.18641458  0.25180462  1
  Cl  Cl523  1  0.36327891  0.52030991  0.25256192  1
  Cl  Cl524  1  0.36092174  0.85345550  0.25082765  1
  Cl  Cl525  1  0.86113613  0.18547022  0.24820114  1
  Cl  Cl526  1  0.86334555  0.52038332  0.25684344  1
  Cl  Cl527  1  0.86468175  0.85532318  0.24976001  1
  Cl  Cl528  1  0.10814580  0.31614486  0.74671336  1
  Cl  Cl529  1  0.10840573  0.64798661  0.75205727  1
  Cl  Cl530  1  0.10906412  0.98320609  0.75337242  1
  Cl  Cl531  1  0.61239951  0.31325948  0.74368472  1
  Cl  Cl532  1  0.61106498  0.64884392  0.75401147  1
  Cl  Cl533  1  0.60393545  0.98285201  0.75154103  1
  Cl  Cl534  1  0.38654580  0.01917330  0.24683380  1
  Cl  Cl535  1  0.39051041  0.35192782  0.24849139  1
  Cl  Cl536  1  0.39063095  0.68761423  0.25319629  1
  Cl  Cl537  1  0.88323972  0.02141786  0.25635840  1
  Cl  Cl538  1  0.89402782  0.35433310  0.24232746  1
  Cl  Cl539  1  0.88498357  0.68706870  0.25122951  1
  Cl  Cl540  1  0.39045330  0.31258532  0.74756569  1
  Cl  Cl541  1  0.38919265  0.64629107  0.74589783  1
  Cl  Cl542  1  0.38414338  0.97633426  0.75096628  1
  Cl  Cl543  1  0.88735608  0.31480664  0.75396524  1
  Cl  Cl544  1  0.88897799  0.64683396  0.74964878  1
  Cl  Cl545  1  0.88960473  0.97920967  0.74516488  1
  Cl  Cl546  1  0.10481210  0.01584682  0.24586550  1
  Cl  Cl547  1  0.11436930  0.35490330  0.24784174  1
  Cl  Cl548  1  0.10663568  0.68294992  0.24881783  1
  Cl  Cl549  1  0.60702071  0.01642742  0.25230949  1
  Cl  Cl550  1  0.61007430  0.34922235  0.25217770  1
  Cl  Cl551  1  0.60831957  0.68313502  0.25157703  1
