# generated using pymatgen
data_H8PbC4(N3Cl2)2
_symmetry_space_group_name_H-M   'P 1'
_cell_length_a   16.62132061
_cell_length_b   22.50287466
_cell_length_c   21.58891608
_cell_angle_alpha   89.99955462
_cell_angle_beta   89.99161077
_cell_angle_gamma   90.00056472
_symmetry_Int_Tables_number   1
_chemical_formula_structural   H8PbC4(N3Cl2)2
_chemical_formula_sum   'H192 Pb24 C96 N144 Cl96'
_cell_volume   8074.84810286
_cell_formula_units_Z   24
loop_
 _symmetry_equiv_pos_site_id
 _symmetry_equiv_pos_as_xyz
  1  'x, y, z'
loop_
 _atom_site_type_symbol
 _atom_site_label
 _atom_site_symmetry_multiplicity
 _atom_site_fract_x
 _atom_site_fract_y
 _atom_site_fract_z
 _atom_site_occupancy
  H  H0  1  -0.00426365  0.03165854  0.67873922  1
  H  H1  1  -0.00321454  0.36495316  0.67916373  1
  H  H2  1  -0.00105372  0.69868048  0.68017532  1
  H  H3  1  0.50234316  0.03114016  0.68177216  1
  H  H4  1  0.50087939  0.36493961  0.68039605  1
  H  H5  1  0.49447715  0.69859611  0.67818549  1
  H  H6  1  0.00041233  0.30074536  0.17854106  1
  H  H7  1  -0.00166349  0.63523647  0.17931255  1
  H  H8  1  -0.00625600  0.96824981  0.18193184  1
  H  H9  1  0.50610498  0.30296964  0.18133066  1
  H  H10  1  0.50334183  0.63504949  0.17855827  1
  H  H11  1  0.49095300  0.96875539  0.18248362  1
  H  H12  1  -0.00525069  0.03270533  0.82041202  1
  H  H13  1  0.00613514  0.36525268  0.81870995  1
  H  H14  1  -0.00070581  0.69735373  0.81898672  1
  H  H15  1  0.50587329  0.03281591  0.82149355  1
  H  H16  1  0.50074614  0.36343797  0.82169446  1
  H  H17  1  0.49381277  0.69916040  0.81740388  1
  H  H18  1  0.00453942  0.30171282  0.32049682  1
  H  H19  1  0.00643657  0.63411587  0.31848361  1
  H  H20  1  0.00229462  0.96635904  0.32389392  1
  H  H21  1  0.49644298  0.30134426  0.31938088  1
  H  H22  1  0.49245451  0.63522022  0.32228366  1
  H  H23  1  0.49768459  0.96626847  0.31852790  1
  H  H24  1  0.24202166  0.19828384  0.67971574  1
  H  H25  1  0.24672465  0.53342403  0.67997132  1
  H  H26  1  0.25023784  0.86615864  0.67983617  1
  H  H27  1  0.76209670  0.19994743  0.67762054  1
  H  H28  1  0.75563010  0.53238377  0.67718953  1
  H  H29  1  0.74792397  0.86523445  0.68028610  1
  H  H30  1  0.25077913  0.13538213  0.17802074  1
  H  H31  1  0.24755446  0.46798030  0.18155058  1
  H  H32  1  0.25516251  0.80086337  0.18303478  1
  H  H33  1  0.74936870  0.13626826  0.17957697  1
  H  H34  1  0.74794752  0.46816750  0.17697574  1
  H  H35  1  0.74151939  0.80117894  0.18148796  1
  H  H36  1  0.25126770  0.19790524  0.81911964  1
  H  H37  1  0.24568930  0.53247639  0.82114265  1
  H  H38  1  0.25192107  0.86548287  0.81649405  1
  H  H39  1  0.74318869  0.19740146  0.81989843  1
  H  H40  1  0.74195463  0.53084639  0.82051908  1
  H  H41  1  0.75517649  0.86370201  0.81975195  1
  H  H42  1  0.25953485  0.13345662  0.32110291  1
  H  H43  1  0.26061019  0.46689996  0.32138062  1
  H  H44  1  0.25108082  0.80282688  0.32140161  1
  H  H45  1  0.73802977  0.13521767  0.31802993  1
  H  H46  1  0.73612371  0.46793462  0.31768588  1
  H  H47  1  0.74735392  0.80387610  0.32209288  1
  H  H48  1  0.13081105  0.04984307  0.61876889  1
  H  H49  1  0.12939749  0.38594636  0.61568983  1
  H  H50  1  0.12348073  0.72148497  0.60848220  1
  H  H51  1  0.62776518  0.05349908  0.61151189  1
  H  H52  1  0.62521350  0.38781846  0.60980519  1
  H  H53  1  0.62351075  0.71866234  0.61410971  1
  H  H54  1  0.37574424  0.27941504  0.11514227  1
  H  H55  1  0.36873333  0.61534709  0.11757597  1
  H  H56  1  0.38421529  0.94555812  0.10013943  1
  H  H57  1  0.87501476  0.27942134  0.10793601  1
  H  H58  1  0.87137742  0.61087351  0.10965747  1
  H  H59  1  0.88338422  0.94293229  0.09887936  1
  H  H60  1  0.37174667  0.05307404  0.88177479  1
  H  H61  1  0.37021783  0.38686587  0.88558566  1
  H  H62  1  0.37863077  0.72198265  0.89568661  1
  H  H63  1  0.87647105  0.05560766  0.89708444  1
  H  H64  1  0.86928844  0.38517222  0.87801725  1
  H  H65  1  0.87539830  0.72107133  0.89105897  1
  H  H66  1  0.11835588  0.27565527  0.40092358  1
  H  H67  1  0.12091899  0.61098589  0.39643319  1
  H  H68  1  0.12773333  0.94653018  0.39176094  1
  H  H69  1  0.62369551  0.28018056  0.38600392  1
  H  H70  1  0.62687352  0.61541963  0.38196734  1
  H  H71  1  0.63001199  0.94802296  0.38163448  1
  H  H72  1  0.37926538  0.21862049  0.62320442  1
  H  H73  1  0.37881019  0.55412934  0.61701540  1
  H  H74  1  0.36743393  0.88579830  0.60426354  1
  H  H75  1  0.87269242  0.22289522  0.59747490  1
  H  H76  1  0.87346439  0.55740738  0.60231234  1
  H  H77  1  0.87281191  0.88767861  0.60803071  1
  H  H78  1  0.12835722  0.11186596  0.10604529  1
  H  H79  1  0.13231924  0.44539523  0.10417251  1
  H  H80  1  0.12353840  0.78126905  0.12048464  1
  H  H81  1  0.62495820  0.11184234  0.10763800  1
  H  H82  1  0.62880465  0.44299355  0.10410431  1
  H  H83  1  0.62524208  0.77726585  0.10222349  1
  H  H84  1  0.12490770  0.21982621  0.88638347  1
  H  H85  1  0.13200019  0.55778658  0.89993294  1
  H  H86  1  0.12149721  0.88566476  0.88009692  1
  H  H87  1  0.62769982  0.22229109  0.89954084  1
  H  H88  1  0.63467053  0.55746017  0.90549284  1
  H  H89  1  0.61871859  0.88435000  0.87649488  1
  H  H90  1  0.36591526  0.10761729  0.40483326  1
  H  H91  1  0.36383980  0.44281349  0.40638832  1
  H  H92  1  0.37177470  0.77806972  0.39552791  1
  H  H93  1  0.87483074  0.11585552  0.37772825  1
  H  H94  1  0.87348167  0.44895909  0.37647087  1
  H  H95  1  0.87514144  0.78137673  0.38958195  1
  H  H96  1  0.37458023  0.27880034  0.39079128  1
  H  H97  1  0.37991910  0.60933650  0.40352891  1
  H  H98  1  0.38097240  0.94453665  0.39368871  1
  H  H99  1  0.87046180  0.28152811  0.38336990  1
  H  H100  1  0.87248458  0.61637708  0.37848122  1
  H  H101  1  0.87888351  0.94588785  0.39296850  1
  H  H102  1  0.12488228  0.05507748  0.88709505  1
  H  H103  1  0.11647068  0.39089195  0.89938741  1
  H  H104  1  0.12371623  0.71909347  0.89026057  1
  H  H105  1  0.61890379  0.05642727  0.90247532  1
  H  H106  1  0.61867029  0.38998454  0.89812497  1
  H  H107  1  0.62725817  0.71910480  0.88159780  1
  H  H108  1  0.12435331  0.27734111  0.10855423  1
  H  H109  1  0.11965387  0.61170247  0.10604974  1
  H  H110  1  0.12968034  0.94919163  0.12154898  1
  H  H111  1  0.62376434  0.27911199  0.10273264  1
  H  H112  1  0.61606591  0.60667226  0.09980691  1
  H  H113  1  0.63056651  0.95100466  0.12806307  1
  H  H114  1  0.37754024  0.05519963  0.61133442  1
  H  H115  1  0.37661954  0.38665562  0.60947912  1
  H  H116  1  0.37473509  0.72105293  0.60385326  1
  H  H117  1  0.88249208  0.05594965  0.60091150  1
  H  H118  1  0.88067068  0.38843879  0.60184038  1
  H  H119  1  0.87440942  0.72105885  0.61005959  1
  H  H120  1  0.11955598  0.11412090  0.37553519  1
  H  H121  1  0.11894068  0.44981289  0.37166653  1
  H  H122  1  0.12332617  0.78149473  0.39085840  1
  H  H123  1  0.62784340  0.11031515  0.40015194  1
  H  H124  1  0.62661501  0.44293993  0.40054908  1
  H  H125  1  0.62604899  0.77843913  0.39397532  1
  H  H126  1  0.37441835  0.22029801  0.88960624  1
  H  H127  1  0.37943399  0.55229485  0.88378623  1
  H  H128  1  0.37036790  0.88779559  0.89082147  1
  H  H129  1  0.87541417  0.21857935  0.88440984  1
  H  H130  1  0.87973792  0.55167351  0.87661197  1
  H  H131  1  0.86567555  0.89153518  0.90115329  1
  H  H132  1  0.37770483  0.11155429  0.11043730  1
  H  H133  1  0.38098734  0.44886058  0.12137765  1
  H  H134  1  0.37247581  0.77914105  0.10735665  1
  H  H135  1  0.87345596  0.11304991  0.10643746  1
  H  H136  1  0.87738965  0.44533558  0.11092809  1
  H  H137  1  0.87310096  0.77961786  0.11567270  1
  H  H138  1  0.13218342  0.22490655  0.59728797  1
  H  H139  1  0.13014794  0.55702693  0.60207403  1
  H  H140  1  0.11828297  0.88654595  0.61660534  1
  H  H141  1  0.62627951  0.21780620  0.62075536  1
  H  H142  1  0.62491107  0.55397577  0.61313996  1
  H  H143  1  0.62379274  0.88727256  0.60688304  1
  H  H144  1  0.89881376  0.58784455  0.49201420  1
  H  H145  1  0.15469722  0.91310209  0.99267194  1
  H  H146  1  0.58863221  0.74961721  0.50118679  1
  H  H147  1  0.08290947  0.08100996  0.99304453  1
  H  H148  1  0.71021414  0.58231213  1.00491112  1
  H  H149  1  0.16383342  0.24901748  0.99757947  1
  H  H150  1  0.66125410  0.58381787  0.50605954  1
  H  H151  1  0.95524184  0.92101025  -0.00283379  1
  H  H152  1  0.20398240  0.25069232  0.49609308  1
  H  H153  1  0.69833127  0.41556355  0.50516831  1
  H  H154  1  0.57171597  0.39904322  0.50291429  1
  H  H155  1  0.32953327  0.24959248  0.99941698  1
  H  H156  1  0.43850342  0.91597372  0.50432969  1
  H  H157  1  0.40071427  0.58064075  0.01227970  1
  H  H158  1  0.09965497  0.41538587  0.50715821  1
  H  H159  1  0.83261935  0.75178683  0.49479479  1
  H  H160  1  0.29314282  0.08057762  0.50961219  1
  H  H161  1  0.79709832  0.91257451  1.00335441  1
  H  H162  1  0.42973573  0.42909401  0.51109268  1
  H  H163  1  0.19095207  0.41888378  -0.00445314  1
  H  H164  1  0.31687827  0.75318556  -0.00261884  1
  H  H165  1  0.42674251  0.07605050  0.50393144  1
  H  H166  1  0.04917413  0.24921240  0.50251709  1
  H  H167  1  0.28960780  0.41518312  0.51075427  1
  H  H168  1  0.13668525  0.08417957  0.48565449  1
  H  H169  1  0.69810883  0.08611851  0.50615634  1
  H  H170  1  0.93819947  0.41654005  0.49454590  1
  H  H171  1  0.04827856  0.41789082  1.00504335  1
  H  H172  1  0.94138519  0.08270981  0.49316756  1
  H  H173  1  0.31049404  0.91128037  0.49291121  1
  H  H174  1  0.33526780  0.08363172  0.00411793  1
  H  H175  1  0.45492214  0.91835793  -0.00697605  1
  H  H176  1  0.83677954  0.41554743  0.00460714  1
  H  H177  1  0.31671694  0.91359575  1.00120781  1
  H  H178  1  0.92224905  0.24897235  0.00380733  1
  H  H179  1  0.54817964  0.59212016  -0.00396381  1
  H  H180  1  0.58812073  0.25006047  0.49733945  1
  H  H181  1  0.44241135  0.74915954  1.00327044  1
  H  H182  1  0.19330875  0.58235642  0.49798160  1
  H  H183  1  0.92747297  0.74864845  0.99534372  1
  H  H184  1  0.15494299  0.75257339  0.00823467  1
  H  H185  1  0.64121786  0.91665233  0.99000186  1
  H  H186  1  0.91860839  0.58535602  0.00443405  1
  H  H187  1  0.58027648  0.07718365  0.49939378  1
  H  H188  1  0.41924763  0.25113170  0.50095488  1
  H  H189  1  0.17019343  0.75473494  0.49632052  1
  H  H190  1  0.35425678  0.42031164  0.00755431  1
  H  H191  1  0.06071205  0.58657521  0.50571237  1
  Pb  Pb192  1  0.24920928  0.04684387  0.75128543  1
  Pb  Pb193  1  0.25069042  0.37909724  0.75263090  1
  Pb  Pb194  1  0.24473144  0.71407686  0.75033244  1
  Pb  Pb195  1  0.74608409  0.04744369  0.74938859  1
  Pb  Pb196  1  0.74462288  0.38145030  0.74985704  1
  Pb  Pb197  1  0.74992327  0.71145261  0.74568792  1
  Pb  Pb198  1  0.24998048  0.28390806  0.25369128  1
  Pb  Pb199  1  0.25016037  0.62053942  0.25696129  1
  Pb  Pb200  1  0.25106341  0.95415233  0.24878677  1
  Pb  Pb201  1  0.74977068  0.28902865  0.24755081  1
  Pb  Pb202  1  0.74773149  0.62004436  0.24604531  1
  Pb  Pb203  1  0.75765900  0.95216715  0.24320872  1
  Pb  Pb204  1  -0.00487132  0.21512145  0.74557497  1
  Pb  Pb205  1  0.00131293  0.54509729  0.74880110  1
  Pb  Pb206  1  -0.00623621  0.88186558  0.75700068  1
  Pb  Pb207  1  0.50044101  0.21205719  0.75335297  1
  Pb  Pb208  1  0.49706343  0.54826567  0.75807638  1
  Pb  Pb209  1  0.49826855  0.87829530  0.74701799  1
  Pb  Pb210  1  -0.00056517  0.12155724  0.24308116  1
  Pb  Pb211  1  -0.00006347  0.45377635  0.24596994  1
  Pb  Pb212  1  0.00141805  0.78574127  0.24984233  1
  Pb  Pb213  1  0.50517584  0.11789549  0.25800164  1
  Pb  Pb214  1  0.49834355  0.45374931  0.26201557  1
  Pb  Pb215  1  0.50030462  0.78798769  0.24965037  1
  C  C216  1  0.00272915  0.04576876  0.63098546  1
  C  C217  1  0.00283905  0.38021335  0.63152434  1
  C  C218  1  -0.00076389  0.71379423  0.63270774  1
  C  C219  1  0.50211932  0.04601646  0.63379037  1
  C  C220  1  0.50088136  0.38011561  0.63248450  1
  C  C221  1  0.49819323  0.71309408  0.63041590  1
  C  C222  1  -0.00049243  0.28556422  0.13092680  1
  C  C223  1  -0.00407519  0.61993115  0.13176414  1
  C  C224  1  0.00204550  0.95442475  0.13420342  1
  C  C225  1  0.50195819  0.28756701  0.13386943  1
  C  C226  1  0.49595669  0.61955870  0.13114940  1
  C  C227  1  0.50181763  0.95487638  0.13512882  1
  C  C228  1  -0.00080908  0.04754777  0.86804607  1
  C  C229  1  -0.00307594  0.37990242  0.86607549  1
  C  C230  1  -0.00088639  0.71267013  0.86655839  1
  C  C231  1  0.49895940  0.04727832  0.86894906  1
  C  C232  1  0.49671098  0.37964129  0.86871200  1
  C  C233  1  0.50010085  0.71338191  0.86515219  1
  C  C234  1  -0.00188032  0.28661133  0.36798263  1
  C  C235  1  -0.00041000  0.62024952  0.36641914  1
  C  C236  1  0.00295664  0.95247131  0.37217688  1
  C  C237  1  0.49820385  0.28635514  0.36722631  1
  C  C238  1  0.49948083  0.62008430  0.36952031  1
  C  C239  1  0.50265372  0.95277823  0.36649747  1
  C  C240  1  0.25080852  0.21303595  0.63235123  1
  C  C241  1  0.25157282  0.54758395  0.63221742  1
  C  C242  1  0.24564029  0.87994703  0.63193720  1
  C  C243  1  0.75352480  0.21369372  0.63004513  1
  C  C244  1  0.75093014  0.54791339  0.62975405  1
  C  C245  1  0.74807916  0.87990315  0.63243915  1
  C  C246  1  0.25265767  0.11976948  0.13057551  1
  C  C247  1  0.25393840  0.45371612  0.13371804  1
  C  C248  1  0.25004908  0.78688033  0.13502900  1
  C  C249  1  0.74937176  0.12085282  0.13204645  1
  C  C250  1  0.75184604  0.45264461  0.12959914  1
  C  C251  1  0.74659002  0.78621992  0.13385036  1
  C  C252  1  0.25015643  0.21317259  0.86686818  1
  C  C253  1  0.25286993  0.54699029  0.86849007  1
  C  C254  1  0.24755072  0.87998990  0.86436960  1
  C  C255  1  0.74862354  0.21226677  0.86745808  1
  C  C256  1  0.75180321  0.54561028  0.86777249  1
  C  C257  1  0.74654476  0.87868398  0.86718658  1
  C  C258  1  0.24763195  0.11867607  0.36829682  1
  C  C259  1  0.24779515  0.45318668  0.36857247  1
  C  C260  1  0.24842313  0.78732970  0.36897370  1
  C  C261  1  0.74696928  0.12079258  0.36552860  1
  C  C262  1  0.74553042  0.45381537  0.36523988  1
  C  C263  1  0.74993827  0.78781304  0.36937088  1
  C  C264  1  0.71617336  0.42199724  0.03566836  1
  C  C265  1  0.19442731  0.90429946  0.54104343  1
  C  C266  1  0.44752670  0.07268038  0.95858313  1
  C  C267  1  0.54286890  0.26063257  0.46040425  1
  C  C268  1  0.47455244  0.73885551  0.96064920  1
  C  C269  1  0.55174393  0.59378300  0.45864902  1
  C  C270  1  0.94547563  0.59705483  0.45706962  1
  C  C271  1  0.56429153  0.93192403  0.04819794  1
  C  C272  1  0.28912583  0.23932377  0.96124114  1
  C  C273  1  0.01748462  0.40653965  0.96205981  1
  C  C274  1  0.05820894  0.06952178  0.54142486  1
  C  C275  1  0.96393712  0.92731831  0.46464963  1
  C  C276  1  0.71183115  0.75793222  0.46320599  1
  C  C277  1  0.47301395  0.92743301  0.46318021  1
  C  C278  1  0.28042808  0.90410196  0.96054979  1
  C  C279  1  0.54308495  0.07065637  0.54036175  1
  C  C280  1  0.04439119  0.92753752  0.46423717  1
  C  C281  1  0.46313868  0.73940063  0.53572812  1
  C  C282  1  0.72710392  0.42711501  0.46144872  1
  C  C283  1  0.22751261  0.57458984  0.96400085  1
  C  C284  1  0.20678847  0.23899387  0.96025201  1
  C  C285  1  0.30394872  0.57439183  0.54161430  1
  C  C286  1  0.96042013  0.74171814  0.54009226  1
  C  C287  1  0.31122436  0.24044679  0.54484850  1
  C  C288  1  0.28145019  0.76243587  0.03861543  1
  C  C289  1  0.72747742  0.09557759  0.46210274  1
  C  C290  1  0.26091477  0.42676974  0.46708045  1
  C  C291  1  0.04136971  0.25789572  0.03723548  1
  C  C292  1  0.18106240  0.42958789  0.45369259  1
  C  C293  1  0.55420354  0.92959418  0.45741136  1
  C  C294  1  0.19850652  0.90350096  0.95654619  1
  C  C295  1  0.46051145  0.26075521  0.46221791  1
  C  C296  1  0.78435841  0.57697470  0.53446874  1
  C  C297  1  0.48426173  0.92924148  0.03661485  1
  C  C298  1  0.02727769  0.59585433  0.46349507  1
  C  C299  1  0.21367515  0.09122055  0.03641096  1
  C  C300  1  0.30735419  0.42955230  0.04304986  1
  C  C301  1  0.77721194  0.23984450  0.53375123  1
  C  C302  1  0.69656510  0.23815297  0.54178610  1
  C  C303  1  0.97721433  0.07214306  0.53385803  1
  C  C304  1  0.22543109  0.42871943  0.03707568  1
  C  C305  1  0.45042180  0.40844919  0.95895350  1
  C  C306  1  0.68867476  0.90659355  0.95423870  1
  C  C307  1  0.54472809  0.73926388  0.53775236  1
  C  C308  1  0.27570902  0.90358347  0.53485238  1
  C  C309  1  0.97308922  0.40661315  0.53594814  1
  C  C310  1  0.19960555  0.76260045  0.04358722  1
  C  C311  1  0.26545941  0.09158121  0.46532181  1
  N  N312  1  0.78666824  0.90622589  0.53875773  1
  N  N313  1  0.44343808  0.59846799  0.04215812  1
  N  N314  1  0.30475773  0.57183215  0.95993846  1
  N  N315  1  0.79101946  0.75926997  0.46033858  1
  N  N316  1  0.18727659  0.09354869  0.45412204  1
  N  N317  1  0.78735659  0.09252514  0.03881652  1
  N  N318  1  0.54071122  0.41054223  0.54212137  1
  N  N319  1  0.05993555  0.93023439  0.04593162  1
  N  N320  1  0.80572284  0.42959970  0.45365056  1
  N  N321  1  0.53184522  0.25970705  0.03869946  1
  N  N322  1  0.47472826  0.59144057  0.46665732  1
  N  N323  1  0.80597426  0.09681707  0.45442519  1
  N  N324  1  0.71774185  0.75988580  0.03803974  1
  N  N325  1  0.94309644  0.26175356  0.45720902  1
  N  N326  1  0.45558660  0.25994195  0.04266260  1
  N  N327  1  0.96399580  0.73831652  0.95856367  1
  N  N328  1  0.05249035  0.40609092  0.54174820  1
  N  N329  1  0.71106229  0.09232352  0.03897280  1
  N  N330  1  0.28660461  0.76111504  0.46313808  1
  N  N331  1  0.46357955  0.07298385  0.54175389  1
  N  N332  1  0.70546473  0.57521702  0.53939918  1
  N  N333  1  0.20854485  0.76182862  0.45986443  1
  N  N334  1  0.03520695  0.59430586  0.03772163  1
  N  N335  1  0.46110372  0.40078398  0.53929338  1
  N  N336  1  0.95702927  0.59435294  0.04065814  1
  N  N337  1  0.52457417  0.07407843  0.96646483  1
  N  N338  1  0.96203735  0.25864876  0.03855641  1
  N  N339  1  0.79517817  0.42444237  0.03898817  1
  N  N340  1  0.96443659  0.07289090  0.96314218  1
  N  N341  1  0.29302143  0.09226084  0.03885757  1
  N  N342  1  0.04235727  0.07271712  0.95801206  1
  N  N343  1  0.79434351  0.76050744  0.04239468  1
  N  N344  1  0.52146277  0.58680741  0.03875028  1
  N  N345  1  0.76773953  0.90887048  0.96148447  1
  N  N346  1  0.04230994  0.73773628  0.95975967  1
  N  N347  1  0.79780760  0.23924163  0.95790842  1
  N  N348  1  0.55355694  0.73778601  0.95599103  1
  N  N349  1  0.81334532  0.57256212  0.95382372  1
  N  N350  1  0.52776537  0.41008896  0.96420714  1
  N  N351  1  0.98242215  0.92760332  0.03968823  1
  N  N352  1  0.71049307  0.90641583  0.53860576  1
  N  N353  1  0.03837781  0.74179521  0.53839268  1
  N  N354  1  0.22531930  0.57435047  0.53762953  1
  N  N355  1  0.72140381  0.24097073  0.96267358  1
  N  N356  1  0.93874094  0.40427551  0.95528836  1
  N  N357  1  0.23271986  0.24201928  0.53730405  1
  N  N358  1  0.73595254  0.57518991  0.96185778  1
  N  N359  1  0.02070111  0.25969103  0.46179163  1
  N  N360  1  0.07320060  0.05383631  0.60052961  1
  N  N361  1  0.07013562  0.39026629  0.60077207  1
  N  N362  1  0.06246068  0.72419549  0.59730993  1
  N  N363  1  0.56746476  0.05556855  0.59793248  1
  N  N364  1  0.56479906  0.38630016  0.59648096  1
  N  N365  1  0.56514204  0.72266942  0.59794477  1
  N  N366  1  0.43569085  0.27727562  0.10153988  1
  N  N367  1  0.42739770  0.60943397  0.10187672  1
  N  N368  1  0.44607432  0.94369148  0.09234702  1
  N  N369  1  0.93567757  0.27539935  0.09633143  1
  N  N370  1  0.93147420  0.61033493  0.09732480  1
  N  N371  1  0.94568470  0.94498377  0.09221829  1
  N  N372  1  0.42945710  0.05655672  0.89929269  1
  N  N373  1  0.42884640  0.39058106  0.90094030  1
  N  N374  1  0.43998628  0.72401736  0.90523597  1
  N  N375  1  0.93784175  0.05795972  0.90645917  1
  N  N376  1  0.92769157  0.38778381  0.89499209  1
  N  N377  1  0.93625599  0.72368572  0.90211532  1
  N  N378  1  0.05618530  0.27540202  0.40819708  1
  N  N379  1  0.05967391  0.61012107  0.40661370  1
  N  N380  1  0.06883290  0.94276333  0.40761786  1
  N  N381  1  0.56430216  0.27645875  0.40095350  1
  N  N382  1  0.56913005  0.61065562  0.39948633  1
  N  N383  1  0.57162293  0.94445599  0.39899498  1
  N  N384  1  0.32236453  0.22329765  0.60398420  1
  N  N385  1  0.32057136  0.55804456  0.60017128  1
  N  N386  1  0.30681831  0.88859304  0.59283553  1
  N  N387  1  0.81167460  0.22492860  0.58789280  1
  N  N388  1  0.81289775  0.56004400  0.59055323  1
  N  N389  1  0.81164376  0.89006974  0.59693597  1
  N  N390  1  0.18870568  0.10819940  0.09335744  1
  N  N391  1  0.19350319  0.44358448  0.09391542  1
  N  N392  1  0.18170134  0.77771570  0.10364373  1
  N  N393  1  0.68591059  0.11005849  0.09661284  1
  N  N394  1  0.68905517  0.43979483  0.09137633  1
  N  N395  1  0.68699117  0.77573900  0.09448500  1
  N  N396  1  0.18431995  0.22284658  0.90111391  1
  N  N397  1  0.19343433  0.55924624  0.90918555  1
  N  N398  1  0.17957882  0.88868839  0.89653174  1
  N  N399  1  0.68959062  0.22416940  0.90690014  1
  N  N400  1  0.69705648  0.55620111  0.91076439  1
  N  N401  1  0.67573787  0.88913517  0.89533709  1
  N  N402  1  0.30372249  0.10719224  0.41212933  1
  N  N403  1  0.30185317  0.44176984  0.41257041  1
  N  N404  1  0.31084700  0.77619282  0.40594325  1
  N  N405  1  0.81621131  0.11258649  0.39452084  1
  N  N406  1  0.81512040  0.44623831  0.39390283  1
  N  N407  1  0.81502849  0.77815468  0.40271865  1
  N  N408  1  0.43443051  0.27666958  0.40375503  1
  N  N409  1  0.44199676  0.60842816  0.40990729  1
  N  N410  1  0.44172121  0.94221491  0.40530168  1
  N  N411  1  0.92952823  0.27775584  0.39847490  1
  N  N412  1  0.93007404  0.61213276  0.39650181  1
  N  N413  1  0.93802598  0.94236654  0.40858408  1
  N  N414  1  0.06506294  0.05678964  0.90083874  1
  N  N415  1  0.05462289  0.39171904  0.90776217  1
  N  N416  1  0.06334629  0.72183547  0.90210708  1
  N  N417  1  0.55685143  0.05783445  0.90934630  1
  N  N418  1  0.55672445  0.39134946  0.90675241  1
  N  N419  1  0.56768233  0.72233348  0.89637122  1
  N  N420  1  0.06465780  0.27457409  0.09445071  1
  N  N421  1  0.05882079  0.60982326  0.09497004  1
  N  N422  1  0.07156153  0.94507747  0.10521707  1
  N  N423  1  0.56204636  0.27655213  0.09516758  1
  N  N424  1  0.55452363  0.60990571  0.09073553  1
  N  N425  1  0.57470618  0.94702386  0.10781167  1
  N  N426  1  0.43832967  0.05505168  0.59851418  1
  N  N427  1  0.43707953  0.39343064  0.59851231  1
  N  N428  1  0.43522846  0.72381925  0.59157319  1
  N  N429  1  0.94369922  0.05711212  0.59104103  1
  N  N430  1  0.94176133  0.39080174  0.59167017  1
  N  N431  1  0.93448624  0.72474526  0.59706441  1
  N  N432  1  0.17690759  0.11005946  0.39453985  1
  N  N433  1  0.17394938  0.44519519  0.39382025  1
  N  N434  1  0.18370397  0.77848739  0.40337378  1
  N  N435  1  0.68946684  0.10991562  0.40774847  1
  N  N436  1  0.68851238  0.44203474  0.40761004  1
  N  N437  1  0.68629427  0.77526386  0.40671022  1
  N  N438  1  0.31446700  0.22340421  0.90284842  1
  N  N439  1  0.32075914  0.55480740  0.89905656  1
  N  N440  1  0.30950777  0.88965232  0.90273516  1
  N  N441  1  0.81583058  0.22164229  0.89879165  1
  N  N442  1  0.82239198  0.55585960  0.89460540  1
  N  N443  1  0.80343773  0.88846132  0.90874867  1
  N  N444  1  0.31747922  0.11016678  0.09676770  1
  N  N445  1  0.32320992  0.44490073  0.10346554  1
  N  N446  1  0.31158343  0.77754036  0.09601346  1
  N  N447  1  0.81260650  0.10980312  0.09653690  1
  N  N448  1  0.81782393  0.44379107  0.09687312  1
  N  N449  1  0.81319149  0.77632305  0.10192590  1
  N  N450  1  0.19453033  0.22321382  0.59050164  1
  N  N451  1  0.19170422  0.55651020  0.59294572  1
  N  N452  1  0.17688041  0.89017512  0.59975321  1
  N  N453  1  0.68279321  0.22251967  0.60082424  1
  N  N454  1  0.68437434  0.55724995  0.59806015  1
  N  N455  1  0.68490470  0.88993998  0.59648164  1
  Cl  Cl456  1  0.25707461  0.05553017  0.61499406  1
  Cl  Cl457  1  0.25522816  0.38411631  0.61593435  1
  Cl  Cl458  1  0.24728343  0.71844654  0.61526483  1
  Cl  Cl459  1  0.75172283  0.05721051  0.61369983  1
  Cl  Cl460  1  0.74875549  0.38951367  0.61367831  1
  Cl  Cl461  1  0.75236587  0.71889730  0.60979585  1
  Cl  Cl462  1  0.24914596  0.27654101  0.12076156  1
  Cl  Cl463  1  0.24488738  0.61321154  0.12411024  1
  Cl  Cl464  1  0.25810615  0.94873538  0.11401689  1
  Cl  Cl465  1  0.75053587  0.28532954  0.11497901  1
  Cl  Cl466  1  0.74019323  0.60408554  0.10495745  1
  Cl  Cl467  1  0.76401531  0.93824280  0.10439392  1
  Cl  Cl468  1  0.24783746  0.05709927  0.88489118  1
  Cl  Cl469  1  0.24160921  0.38987644  0.88411045  1
  Cl  Cl470  1  0.25127463  0.71974061  0.88507312  1
  Cl  Cl471  1  0.74919572  0.04992337  0.88115976  1
  Cl  Cl472  1  0.74244714  0.39109492  0.88506026  1
  Cl  Cl473  1  0.75329331  0.71692378  0.87727414  1
  Cl  Cl474  1  0.23995004  0.27462544  0.39477259  1
  Cl  Cl475  1  0.24787892  0.60837167  0.39517325  1
  Cl  Cl476  1  0.25561253  0.94769876  0.38150343  1
  Cl  Cl477  1  0.74718617  0.28337423  0.37904800  1
  Cl  Cl478  1  0.74780776  0.61685052  0.37921151  1
  Cl  Cl479  1  0.75372331  0.94979414  0.37118436  1
  Cl  Cl480  1  0.00991785  0.22615637  0.60573359  1
  Cl  Cl481  1  0.00296157  0.55501148  0.61322579  1
  Cl  Cl482  1  -0.00574379  0.88345908  0.62574408  1
  Cl  Cl483  1  0.50085728  0.21900005  0.61850379  1
  Cl  Cl484  1  0.50277425  0.54858847  0.62627335  1
  Cl  Cl485  1  0.49722033  0.88657348  0.61352177  1
  Cl  Cl486  1  0.00375387  0.11486566  0.10933405  1
  Cl  Cl487  1  0.00616126  0.44438794  0.11099029  1
  Cl  Cl488  1  -0.00445957  0.77963217  0.11482817  1
  Cl  Cl489  1  0.49976719  0.11197110  0.12573964  1
  Cl  Cl490  1  0.50687030  0.45273233  0.13089999  1
  Cl  Cl491  1  0.49823381  0.77707247  0.11459563  1
  Cl  Cl492  1  -0.00078444  0.22043947  0.88113792  1
  Cl  Cl493  1  0.00688577  0.55474019  0.88234215  1
  Cl  Cl494  1  -0.01320045  0.89261704  0.89707914  1
  Cl  Cl495  1  0.50264690  0.21784921  0.88109780  1
  Cl  Cl496  1  0.51164028  0.56061013  0.89675491  1
  Cl  Cl497  1  0.49210800  0.88645274  0.88072232  1
  Cl  Cl498  1  -0.00175163  0.11549523  0.37653367  1
  Cl  Cl499  1  -0.00469487  0.44500933  0.37881255  1
  Cl  Cl500  1  -0.00000676  0.78172337  0.38211828  1
  Cl  Cl501  1  0.49343118  0.10572200  0.39664158  1
  Cl  Cl502  1  0.49736628  0.44101231  0.40089532  1
  Cl  Cl503  1  0.49904578  0.77950068  0.38325729  1
  Cl  Cl504  1  0.36377838  0.14475150  0.74678930  1
  Cl  Cl505  1  0.36438547  0.47879678  0.75011469  1
  Cl  Cl506  1  0.36261233  0.81142217  0.74865761  1
  Cl  Cl507  1  0.86293077  0.14606180  0.75056489  1
  Cl  Cl508  1  0.86432970  0.47877004  0.75336623  1
  Cl  Cl509  1  0.86101996  0.81244553  0.75168603  1
  Cl  Cl510  1  0.13819904  0.18913612  0.25160924  1
  Cl  Cl511  1  0.13560582  0.52063412  0.25584785  1
  Cl  Cl512  1  0.13706374  0.85470845  0.24625660  1
  Cl  Cl513  1  0.63840131  0.18830728  0.25115787  1
  Cl  Cl514  1  0.64019376  0.52153363  0.25036634  1
  Cl  Cl515  1  0.63719551  0.85638431  0.24947369  1
  Cl  Cl516  1  0.14257929  0.14450637  0.74974270  1
  Cl  Cl517  1  0.13985552  0.47901074  0.74724233  1
  Cl  Cl518  1  0.14031620  0.80986805  0.75214363  1
  Cl  Cl519  1  0.63785922  0.14478307  0.74410352  1
  Cl  Cl520  1  0.64267913  0.47711310  0.74667066  1
  Cl  Cl521  1  0.63668893  0.81124040  0.75245165  1
  Cl  Cl522  1  0.35747151  0.18904413  0.25457498  1
  Cl  Cl523  1  0.36235273  0.52049907  0.24947440  1
  Cl  Cl524  1  0.35970443  0.85214373  0.25110006  1
  Cl  Cl525  1  0.86366846  0.18902837  0.25099047  1
  Cl  Cl526  1  0.86342039  0.52181488  0.25062316  1
  Cl  Cl527  1  0.86059904  0.85554919  0.24846831  1
  Cl  Cl528  1  0.11464604  0.31176097  0.74690527  1
  Cl  Cl529  1  0.11184907  0.64601022  0.74988486  1
  Cl  Cl530  1  0.11517568  0.97722305  0.75021106  1
  Cl  Cl531  1  0.60907800  0.31391268  0.74704474  1
  Cl  Cl532  1  0.61453552  0.64513749  0.75031649  1
  Cl  Cl533  1  0.61115829  0.97875357  0.75057146  1
  Cl  Cl534  1  0.38700370  0.02185139  0.24996724  1
  Cl  Cl535  1  0.38812851  0.35573784  0.25167325  1
  Cl  Cl536  1  0.38642037  0.68707524  0.24681567  1
  Cl  Cl537  1  0.89115802  0.02078128  0.25022802  1
  Cl  Cl538  1  0.88748775  0.35500165  0.25092715  1
  Cl  Cl539  1  0.88613946  0.68774770  0.25043519  1
  Cl  Cl540  1  0.38704240  0.31079002  0.74926686  1
  Cl  Cl541  1  0.39304399  0.64305577  0.74950426  1
  Cl  Cl542  1  0.38711867  0.97893008  0.75100166  1
  Cl  Cl543  1  0.89441936  0.31194339  0.75156988  1
  Cl  Cl544  1  0.88690526  0.64376423  0.75072255  1
  Cl  Cl545  1  0.89500189  0.97865348  0.75300788  1
  Cl  Cl546  1  0.11412977  0.02232954  0.24878131  1
  Cl  Cl547  1  0.11081558  0.35517795  0.24976756  1
  Cl  Cl548  1  0.10942479  0.68756249  0.24888484  1
  Cl  Cl549  1  0.61090230  0.02267550  0.24971826  1
  Cl  Cl550  1  0.61241476  0.35538395  0.25411095  1
  Cl  Cl551  1  0.61160351  0.68678832  0.25091115  1
