# generated using pymatgen
data_H8PbC4(N3Cl2)2
_symmetry_space_group_name_H-M   'P 1'
_cell_length_a   16.62069414
_cell_length_b   22.50471038
_cell_length_c   21.58821447
_cell_angle_alpha   89.99922330
_cell_angle_beta   90.00812129
_cell_angle_gamma   90.00574413
_symmetry_Int_Tables_number   1
_chemical_formula_structural   H8PbC4(N3Cl2)2
_chemical_formula_sum   'H192 Pb24 C96 N144 Cl96'
_cell_volume   8074.93998272
_cell_formula_units_Z   24
loop_
 _symmetry_equiv_pos_site_id
 _symmetry_equiv_pos_as_xyz
  1  'x, y, z'
loop_
 _atom_site_type_symbol
 _atom_site_label
 _atom_site_symmetry_multiplicity
 _atom_site_fract_x
 _atom_site_fract_y
 _atom_site_fract_z
 _atom_site_occupancy
  H  H0  1  -0.00412485  0.03114864  0.67965811  1
  H  H1  1  0.01380968  0.36596884  0.68131909  1
  H  H2  1  -0.00828140  0.69989944  0.67884039  1
  H  H3  1  0.50217879  0.03232805  0.68107397  1
  H  H4  1  0.48718355  0.36484837  0.68220334  1
  H  H5  1  0.50062253  0.69917977  0.68129257  1
  H  H6  1  0.00142679  0.30296694  0.17853288  1
  H  H7  1  -0.00650508  0.63461694  0.17969191  1
  H  H8  1  0.00053820  0.96871353  0.18025346  1
  H  H9  1  0.49899696  0.30181868  0.17875886  1
  H  H10  1  0.50923675  0.63632618  0.17675447  1
  H  H11  1  0.49812381  0.96967901  0.18095458  1
  H  H12  1  -0.00625943  0.03104800  0.82000362  1
  H  H13  1  0.00245263  0.36354712  0.82407750  1
  H  H14  1  -0.00845579  0.69710829  0.82195069  1
  H  H15  1  0.50831327  0.03247194  0.82155709  1
  H  H16  1  0.49489674  0.36138149  0.82182422  1
  H  H17  1  0.51009784  0.69852634  0.82259111  1
  H  H18  1  -0.00430328  0.30064396  0.31900012  1
  H  H19  1  0.01273121  0.63395236  0.32249483  1
  H  H20  1  0.00272196  0.96870851  0.32216640  1
  H  H21  1  0.50282511  0.30137719  0.32200142  1
  H  H22  1  0.49199512  0.63339189  0.32088736  1
  H  H23  1  0.49794053  0.96856658  0.31894436  1
  H  H24  1  0.25100683  0.19824034  0.68081474  1
  H  H25  1  0.25469143  0.53281587  0.68045010  1
  H  H26  1  0.25763008  0.86404930  0.67858259  1
  H  H27  1  0.75738014  0.19771595  0.68065673  1
  H  H28  1  0.75016441  0.53139562  0.67691591  1
  H  H29  1  0.74319408  0.86661907  0.67824173  1
  H  H30  1  0.24838584  0.13723471  0.18125675  1
  H  H31  1  0.25930549  0.46826250  0.17701941  1
  H  H32  1  0.24403083  0.80135128  0.17878361  1
  H  H33  1  0.75168541  0.13459066  0.17946310  1
  H  H34  1  0.73754806  0.46846649  0.17571661  1
  H  H35  1  0.75867707  0.80350131  0.17898726  1
  H  H36  1  0.24959351  0.19595409  0.82010810  1
  H  H37  1  0.24878914  0.53273844  0.82097265  1
  H  H38  1  0.25162663  0.86491285  0.81793364  1
  H  H39  1  0.74900537  0.19804016  0.82017835  1
  H  H40  1  0.74789251  0.53000314  0.82078402  1
  H  H41  1  0.74913121  0.86499237  0.81964145  1
  H  H42  1  0.25607504  0.13386259  0.32124802  1
  H  H43  1  0.25193339  0.46909432  0.31784696  1
  H  H44  1  0.25278197  0.80259230  0.32317390  1
  H  H45  1  0.75168857  0.13467579  0.32046413  1
  H  H46  1  0.74948394  0.46944324  0.31783672  1
  H  H47  1  0.75672152  0.80379996  0.32099195  1
  H  H48  1  0.13212936  0.05266297  0.62046259  1
  H  H49  1  0.12149809  0.39326569  0.59705754  1
  H  H50  1  0.13356239  0.71503850  0.62719966  1
  H  H51  1  0.63312911  0.05094318  0.61616010  1
  H  H52  1  0.62503015  0.38507783  0.62453918  1
  H  H53  1  0.63339425  0.71926072  0.61749672  1
  H  H54  1  0.37576297  0.27816528  0.10763408  1
  H  H55  1  0.36786449  0.61934024  0.12390364  1
  H  H56  1  0.37506557  0.94540357  0.10773412  1
  H  H57  1  0.87464852  0.28034417  0.10951310  1
  H  H58  1  0.87670605  0.60842061  0.10191064  1
  H  H59  1  0.87141313  0.94687129  0.11283149  1
  H  H60  1  0.37958495  0.05240821  0.88542497  1
  H  H61  1  0.38106823  0.38980600  0.90118078  1
  H  H62  1  0.37673276  0.71888819  0.88428096  1
  H  H63  1  0.87984983  0.05757685  0.89906003  1
  H  H64  1  0.87879956  0.38767819  0.89389951  1
  H  H65  1  0.88344940  0.72496473  0.90461805  1
  H  H66  1  0.13086447  0.28054029  0.38031341  1
  H  H67  1  0.12577815  0.61047210  0.40285085  1
  H  H68  1  0.12213370  0.94247189  0.39522480  1
  H  H69  1  0.62841100  0.27754563  0.39177284  1
  H  H70  1  0.63417113  0.61745817  0.37146915  1
  H  H71  1  0.62469667  0.94755517  0.38897758  1
  H  H72  1  0.37038681  0.22135697  0.60608059  1
  H  H73  1  0.36955385  0.55844243  0.60136561  1
  H  H74  1  0.37347004  0.88907077  0.60052180  1
  H  H75  1  0.86607597  0.22407598  0.59888499  1
  H  H76  1  0.86854052  0.55662795  0.60229074  1
  H  H77  1  0.87923501  0.88415295  0.62120984  1
  H  H78  1  0.12340362  0.11326770  0.11039894  1
  H  H79  1  0.11829410  0.44973843  0.12613897  1
  H  H80  1  0.12697457  0.77692935  0.10449815  1
  H  H81  1  0.61810958  0.11663098  0.11752204  1
  H  H82  1  0.62719590  0.43877077  0.09609738  1
  H  H83  1  0.62214858  0.78274931  0.12170585  1
  H  H84  1  0.12534236  0.22195602  0.89170807  1
  H  H85  1  0.13237515  0.55473793  0.89645520  1
  H  H86  1  0.12715517  0.88669376  0.88959871  1
  H  H87  1  0.62532560  0.21929326  0.89413577  1
  H  H88  1  0.63401769  0.55768208  0.90081380  1
  H  H89  1  0.62993073  0.88893933  0.89549948  1
  H  H90  1  0.36357156  0.10924748  0.40495488  1
  H  H91  1  0.37636232  0.44316190  0.38835725  1
  H  H92  1  0.36631461  0.77569849  0.40062246  1
  H  H93  1  0.86617032  0.10842496  0.39979748  1
  H  H94  1  0.87411627  0.44764320  0.38780900  1
  H  H95  1  0.86697472  0.77619032  0.40253590  1
  H  H96  1  0.37942800  0.27774556  0.39223082  1
  H  H97  1  0.38898206  0.61051225  0.40648485  1
  H  H98  1  0.37530862  0.94551233  0.39277493  1
  H  H99  1  0.88228336  0.27715901  0.39781503  1
  H  H100  1  0.87804672  0.61341738  0.38264024  1
  H  H101  1  0.87324201  0.94663711  0.38796075  1
  H  H102  1  0.12841477  0.05166878  0.87932524  1
  H  H103  1  0.12764023  0.38901096  0.89336958  1
  H  H104  1  0.12962903  0.71720712  0.87711948  1
  H  H105  1  0.62841237  0.05498596  0.89590517  1
  H  H106  1  0.62832025  0.38584294  0.88354555  1
  H  H107  1  0.62449229  0.72638882  0.89917623  1
  H  H108  1  0.12378858  0.27791078  0.10704354  1
  H  H109  1  0.12431425  0.61395409  0.11634214  1
  H  H110  1  0.11983846  0.94465338  0.10486997  1
  H  H111  1  0.62501098  0.27959251  0.10875035  1
  H  H112  1  0.61221935  0.60397286  0.09233755  1
  H  H113  1  0.62437305  0.94870975  0.11078708  1
  H  H114  1  0.38412652  0.05415539  0.60684807  1
  H  H115  1  0.37840180  0.39028606  0.59933514  1
  H  H116  1  0.38377785  0.72147748  0.60569294  1
  H  H117  1  0.88418426  0.05506154  0.59929222  1
  H  H118  1  0.87599232  0.38469126  0.62332344  1
  H  H119  1  0.88793286  0.72520808  0.59490676  1
  H  H120  1  0.11728223  0.11367430  0.37570834  1
  H  H121  1  0.12651556  0.44851503  0.38725348  1
  H  H122  1  0.11884140  0.78052418  0.38378321  1
  H  H123  1  0.61882868  0.11436021  0.38429108  1
  H  H124  1  0.62467963  0.44670296  0.38593602  1
  H  H125  1  0.61993377  0.78323422  0.37763319  1
  H  H126  1  0.37427748  0.22016705  0.89219626  1
  H  H127  1  0.38107801  0.55295981  0.88333130  1
  H  H128  1  0.37665400  0.88692527  0.89036719  1
  H  H129  1  0.87405274  0.22184954  0.89188741  1
  H  H130  1  0.88155888  0.55157235  0.88290379  1
  H  H131  1  0.87847947  0.88643370  0.88473658  1
  H  H132  1  0.37219554  0.11378586  0.11129003  1
  H  H133  1  0.36269059  0.43865785  0.09160399  1
  H  H134  1  0.37553841  0.78115162  0.11569482  1
  H  H135  1  0.86670622  0.11341744  0.10264369  1
  H  H136  1  0.87378421  0.44816178  0.11732315  1
  H  H137  1  0.86961517  0.77367273  0.09854295  1
  H  H138  1  0.12136178  0.22097565  0.61353189  1
  H  H139  1  0.12183783  0.55308432  0.61598832  1
  H  H140  1  0.12535217  0.88624754  0.61408032  1
  H  H141  1  0.61942831  0.21601491  0.62213497  1
  H  H142  1  0.62001765  0.55490388  0.61232329  1
  H  H143  1  0.63278540  0.88997525  0.59915808  1
  H  H144  1  0.95651100  0.74791941  1.00613073  1
  H  H145  1  0.09996373  0.08308923  0.99132452  1
  H  H146  1  0.46286543  0.58474377  0.51093349  1
  H  H147  1  0.79838568  0.07890906  0.50118565  1
  H  H148  1  0.65428050  0.58519517  0.50453327  1
  H  H149  1  0.32552533  0.42283248  0.49588773  1
  H  H150  1  0.09959936  0.25270772  0.48791098  1
  H  H151  1  0.80733648  0.08727532  -0.00783843  1
  H  H152  1  0.16427308  0.91220356  0.50755257  1
  H  H153  1  0.84604862  0.41737062  0.00964698  1
  H  H154  1  0.66675187  0.41885796  0.49737825  1
  H  H155  1  0.29114271  0.08150346  0.50517003  1
  H  H156  1  0.38349727  0.58508217  0.01489692  1
  H  H157  1  0.91005860  0.58581246  0.49121582  1
  H  H158  1  0.08365956  0.41647621  0.99906011  1
  H  H159  1  0.41498758  0.08329632  0.99874019  1
  H  H160  1  0.79578048  0.25165290  0.49426991  1
  H  H161  1  0.18635287  0.58478849  1.00481458  1
  H  H162  1  0.17868372  0.74801696  -0.00441425  1
  H  H163  1  0.64626017  0.75347711  0.00869233  1
  H  H164  1  0.64037219  0.75208115  0.49004215  1
  H  H165  1  0.43898052  0.08203127  0.49595553  1
  H  H166  1  0.45046313  0.41642839  0.49449153  1
  H  H167  1  0.10595377  0.07939539  0.51072334  1
  H  H168  1  0.96134590  0.75201003  0.48978403  1
  H  H169  1  0.70286033  0.58193010  1.00308046  1
  H  H170  1  0.83052324  0.41801521  0.49764182  1
  H  H171  1  0.31623094  0.25015693  0.49876594  1
  H  H172  1  0.45013743  0.41381812  1.00372771  1
  H  H173  1  0.94419310  0.25180572  0.50586859  1
  H  H174  1  0.17703667  0.91488734  0.99838164  1
  H  H175  1  0.57732187  0.92086638  0.00148508  1
  H  H176  1  0.28525631  0.41410886  -0.00736953  1
  H  H177  1  0.14695042  0.74921598  0.49295971  1
  H  H178  1  0.43886717  0.74998760  0.49681803  1
  H  H179  1  0.91248513  0.91887415  0.00733896  1
  H  H180  1  0.90941046  0.91572531  0.49416126  1
  H  H181  1  0.53275919  0.58857262  -0.00772425  1
  H  H182  1  0.94440585  0.08390752  1.00161553  1
  H  H183  1  0.80135241  0.75332948  -0.00435316  1
  H  H184  1  0.40828461  0.74946850  0.99130203  1
  H  H185  1  0.58230548  0.24866719  0.49655899  1
  H  H186  1  0.04609755  0.42001355  0.49781501  1
  H  H187  1  0.94956468  0.08285619  0.49256138  1
  H  H188  1  0.57843842  0.91897076  0.49807421  1
  H  H189  1  0.17254170  0.42360824  0.49969241  1
  H  H190  1  0.79756375  0.75552221  0.50482959  1
  H  H191  1  0.30298957  0.58778132  0.50015471  1
  Pb  Pb192  1  0.25619783  0.04821591  0.74427875  1
  Pb  Pb193  1  0.25290354  0.38314701  0.74767355  1
  Pb  Pb194  1  0.25399877  0.71168542  0.74737992  1
  Pb  Pb195  1  0.75330625  0.04517353  0.74795906  1
  Pb  Pb196  1  0.75241872  0.37849843  0.75343279  1
  Pb  Pb197  1  0.75707963  0.71779253  0.75056403  1
  Pb  Pb198  1  0.24519602  0.28509293  0.24970656  1
  Pb  Pb199  1  0.24671468  0.62016024  0.26078599  1
  Pb  Pb200  1  0.24774729  0.95398019  0.25100877  1
  Pb  Pb201  1  0.74562286  0.28643037  0.25333850  1
  Pb  Pb202  1  0.74763376  0.61900944  0.24106630  1
  Pb  Pb203  1  0.74314770  0.95234473  0.24962731  1
  Pb  Pb204  1  0.00049065  0.21372000  0.74614829  1
  Pb  Pb205  1  0.00043623  0.54596370  0.74649319  1
  Pb  Pb206  1  0.00795527  0.88136931  0.75104629  1
  Pb  Pb207  1  0.50203416  0.21321815  0.74822180  1
  Pb  Pb208  1  0.50781999  0.54829361  0.75228260  1
  Pb  Pb209  1  0.50026011  0.87985930  0.74832370  1
  Pb  Pb210  1  -0.00819319  0.11805974  0.24451446  1
  Pb  Pb211  1  -0.00459092  0.45257952  0.25368556  1
  Pb  Pb212  1  -0.00289203  0.78691109  0.24566925  1
  Pb  Pb213  1  0.49487754  0.12139535  0.25386217  1
  Pb  Pb214  1  0.49335283  0.45063763  0.24385845  1
  Pb  Pb215  1  0.49561083  0.78635759  0.25019019  1
  C  C216  1  0.00487052  0.04631947  0.63228761  1
  C  C217  1  0.00429825  0.38051610  0.63393250  1
  C  C218  1  0.00451663  0.71338825  0.63154535  1
  C  C219  1  0.50625774  0.04608726  0.63315286  1
  C  C220  1  0.49714193  0.37964121  0.63493732  1
  C  C221  1  0.50554211  0.71323150  0.63346009  1
  C  C222  1  -0.00023377  0.28679993  0.13145208  1
  C  C223  1  -0.00225926  0.61941974  0.13234975  1
  C  C224  1  -0.00305378  0.95313062  0.13277027  1
  C  C225  1  0.50008750  0.28637654  0.13142109  1
  C  C226  1  0.49616041  0.62034022  0.13021608  1
  C  C227  1  0.49913183  0.95429139  0.13338209  1
  C  C228  1  0.00042335  0.04627438  0.86754523  1
  C  C229  1  0.00348186  0.37957504  0.87138756  1
  C  C230  1  0.00124676  0.71191680  0.86914057  1
  C  C231  1  0.50478846  0.04684006  0.86933010  1
  C  C232  1  0.50115798  0.37804924  0.86867878  1
  C  C233  1  0.50325308  0.71407949  0.86981648  1
  C  C234  1  0.00363733  0.28565397  0.36651891  1
  C  C235  1  0.00513557  0.61948524  0.36999942  1
  C  C236  1  -0.00108218  0.95253823  0.36936353  1
  C  C237  1  0.50403109  0.28598694  0.36948893  1
  C  C238  1  0.50505376  0.62036151  0.36818981  1
  C  C239  1  0.49922962  0.95368588  0.36673423  1
  C  C240  1  0.24717731  0.21375786  0.63326215  1
  C  C241  1  0.24883215  0.54796277  0.63295750  1
  C  C242  1  0.25181350  0.87957752  0.63124436  1
  C  C243  1  0.74723873  0.21245863  0.63340831  1
  C  C244  1  0.74565765  0.54764601  0.62979932  1
  C  C245  1  0.75204121  0.88029527  0.63068797  1
  C  C246  1  0.24763122  0.12156667  0.13404119  1
  C  C247  1  0.24692204  0.45308688  0.13025083  1
  C  C248  1  0.24856878  0.78673377  0.13112069  1
  C  C249  1  0.74569173  0.12136385  0.13149033  1
  C  C250  1  0.74653439  0.45290536  0.12872053  1
  C  C251  1  0.75031433  0.78775759  0.13173415  1
  C  C252  1  0.24971607  0.21243722  0.86732502  1
  C  C253  1  0.25379126  0.54682318  0.86884106  1
  C  C254  1  0.25187936  0.87971337  0.86576637  1
  C  C255  1  0.74948734  0.21278957  0.86797869  1
  C  C256  1  0.75401351  0.54570490  0.86801138  1
  C  C257  1  0.75239908  0.88022949  0.86702071  1
  C  C258  1  0.24574613  0.11928122  0.36853898  1
  C  C259  1  0.25213506  0.45421816  0.36580052  1
  C  C260  1  0.24536201  0.78673945  0.37020100  1
  C  C261  1  0.74561666  0.11938023  0.36790903  1
  C  C262  1  0.74950249  0.45437708  0.36566334  1
  C  C263  1  0.74810238  0.78866487  0.36840465  1
  C  C264  1  0.46302380  0.25711355  0.46297906  1
  C  C265  1  0.03304061  0.59165701  0.46675492  1
  C  C266  1  0.80934327  0.90400874  0.54203315  1
  C  C267  1  0.47466943  0.07161384  0.53685475  1
  C  C268  1  0.22451053  0.57295028  0.96544945  1
  C  C269  1  0.27327075  0.75541224  0.46547872  1
  C  C270  1  0.46414698  0.25670516  0.03939002  1
  C  C271  1  0.78985304  0.42872781  0.45975280  1
  C  C272  1  0.03463871  0.25643982  0.03935487  1
  C  C273  1  0.57182340  0.59857755  0.45368912  1
  C  C274  1  0.47581603  0.73921784  0.53682458  1
  C  C275  1  0.29921888  0.76138939  0.04040646  1
  C  C276  1  0.21554174  0.90496662  0.95905205  1
  C  C277  1  0.55694627  0.73765360  0.54277652  1
  C  C278  1  0.69280608  0.76100429  0.04419271  1
  C  C279  1  0.99045109  0.73995691  0.53322651  1
  C  C280  1  0.68947812  0.76167492  0.45549582  1
  C  C281  1  0.72876791  0.90637491  0.53466134  1
  C  C282  1  0.45857816  0.07311964  0.96202402  1
  C  C283  1  0.47917559  0.40627565  0.53862536  1
  C  C284  1  0.70762988  0.42867622  0.45936366  1
  C  C285  1  0.03407037  0.92237438  0.46393191  1
  C  C286  1  0.53281538  0.74426131  0.96543428  1
  C  C287  1  0.53772395  0.92976571  0.04041420  1
  C  C288  1  0.07045810  0.73584691  0.54572307  1
  C  C289  1  0.30596036  0.57065983  0.95981133  1
  C  C290  1  0.54023457  0.07362474  0.96394814  1
  C  C291  1  0.06278969  0.73929814  0.95596271  1
  C  C292  1  0.55592482  0.07026122  0.54199254  1
  C  C293  1  0.97630812  0.26054393  0.46283702  1
  C  C294  1  0.76586216  0.24004306  0.53750711  1
  C  C295  1  0.18075403  0.42706576  0.04521314  1
  C  C296  1  0.18419809  0.09284809  0.45522245  1
  C  C297  1  0.53827288  0.92880567  0.45948322  1
  C  C298  1  0.98020465  0.07286868  0.53595163  1
  C  C299  1  0.96225432  0.40811325  0.96486930  1
  C  C300  1  0.77343090  0.09681577  0.03415503  1
  C  C301  1  0.77956625  0.57691005  0.53473369  1
  C  C302  1  0.28590833  0.09285045  0.04155158  1
  C  C303  1  0.05514125  0.07360037  0.95591053  1
  C  C304  1  0.49200962  0.59540939  0.46710996  1
  C  C305  1  0.72158835  0.42020000  0.03322168  1
  C  C306  1  0.79766147  0.90770562  0.95808789  1
  C  C307  1  0.20981066  0.42888096  0.45861844  1
  C  C308  1  0.21766672  0.75925685  0.03514794  1
  C  C309  1  0.69231841  0.09804003  0.04125884  1
  C  C310  1  0.04480623  0.59271638  0.04192621  1
  C  C311  1  0.27881535  0.24004627  0.53907176  1
  N  N312  1  0.98435190  0.74132071  0.96409581  1
  N  N313  1  0.04153177  0.40823977  0.96335983  1
  N  N314  1  0.95717027  0.25726128  0.03878663  1
  N  N315  1  0.03261361  0.92639594  0.03831163  1
  N  N316  1  0.79979931  0.42502539  0.04103990  1
  N  N317  1  0.71237893  0.23822592  0.96236251  1
  N  N318  1  0.95493154  0.92478781  0.46010909  1
  N  N319  1  0.20794211  0.09275276  0.04017227  1
  N  N320  1  0.19936628  0.24014574  0.54091202  1
  N  N321  1  0.76856346  0.75848861  0.46286594  1
  N  N322  1  0.55759859  0.40540984  0.54714525  1
  N  N323  1  0.80886961  0.57251935  0.95662055  1
  N  N324  1  0.26243688  0.09139108  0.46414093  1
  N  N325  1  0.78843133  0.23898247  0.96169411  1
  N  N326  1  0.51001704  0.58588852  0.03693889  1
  N  N327  1  0.69173901  0.09348799  0.45722782  1
  N  N328  1  0.28796819  0.24166348  0.96016112  1
  N  N329  1  0.20588899  0.90531936  0.54219051  1
  N  N330  1  0.19563893  0.57117498  0.54260685  1
  N  N331  1  0.68725640  0.23733508  0.54506809  1
  N  N332  1  0.96764539  0.59104980  0.03613378  1
  N  N333  1  0.25847404  0.42341485  0.03460703  1
  N  N334  1  0.95457256  0.59373988  0.45911864  1
  N  N335  1  0.19484495  0.75815041  0.45867806  1
  N  N336  1  0.27337216  0.57271888  0.53870937  1
  N  N337  1  0.05538100  0.26066594  0.45532401  1
  N  N338  1  0.54157102  0.25709881  0.03843479  1
  N  N339  1  0.47801870  0.40846847  0.96142649  1
  N  N340  1  0.97588068  0.07616516  0.96149066  1
  N  N341  1  0.71989112  0.90855692  0.96282526  1
  N  N342  1  0.02034066  0.40740399  0.53901276  1
  N  N343  1  0.43354525  0.59995109  0.04492104  1
  N  N344  1  0.55575494  0.40731857  0.95667876  1
  N  N345  1  0.76938227  0.09178316  0.46146120  1
  N  N346  1  0.05907392  0.07243139  0.54449160  1
  N  N347  1  0.28369064  0.90625480  0.53595495  1
  N  N348  1  0.54214072  0.25806370  0.46155050  1
  N  N349  1  0.45906296  0.92809559  0.46127546  1
  N  N350  1  0.28940693  0.42535349  0.45761214  1
  N  N351  1  0.45854959  0.92831595  0.03905950  1
  N  N352  1  0.95415653  0.92704261  0.04262583  1
  N  N353  1  0.29473132  0.90517028  0.95966001  1
  N  N354  1  0.70063929  0.57574528  0.53944494  1
  N  N355  1  0.94313588  0.40426507  0.54685365  1
  N  N356  1  0.21180069  0.24209708  0.96006947  1
  N  N357  1  0.45415793  0.74095132  0.95915891  1
  N  N358  1  0.77196247  0.75657443  0.03750619  1
  N  N359  1  0.73119033  0.57443579  0.96119762  1
  N  N360  1  0.07385883  0.05558006  0.60362995  1
  N  N361  1  0.05942750  0.39236864  0.59156550  1
  N  N362  1  0.07828909  0.72010736  0.60562180  1
  N  N363  1  0.57463339  0.05498944  0.60009229  1
  N  N364  1  0.56692257  0.38886302  0.60718883  1
  N  N365  1  0.57471009  0.72213647  0.60138564  1
  N  N366  1  0.43577590  0.27436816  0.09531096  1
  N  N367  1  0.42447152  0.61208633  0.10500461  1
  N  N368  1  0.43617371  0.94358174  0.09726387  1
  N  N369  1  0.93524276  0.27633304  0.09745331  1
  N  N370  1  0.93792796  0.60798147  0.09378904  1
  N  N371  1  0.93145321  0.94328116  0.09963249  1
  N  N372  1  0.43795003  0.05633423  0.90199287  1
  N  N373  1  0.44298866  0.38868489  0.90903827  1
  N  N374  1  0.43558209  0.72209117  0.90046328  1
  N  N375  1  0.94204196  0.05719749  0.90757222  1
  N  N376  1  0.93870374  0.39078039  0.90780965  1
  N  N377  1  0.94543654  0.72204145  0.91139325  1
  N  N378  1  0.07195885  0.27574945  0.39592081  1
  N  N379  1  0.06471864  0.60770458  0.41165358  1
  N  N380  1  0.06140036  0.93943659  0.40745434  1
  N  N381  1  0.56814407  0.27638050  0.40410571  1
  N  N382  1  0.57892029  0.61333521  0.39354102  1
  N  N383  1  0.56456213  0.94413035  0.40175109  1
  N  N384  1  0.30929801  0.22424765  0.59525214  1
  N  N385  1  0.30764130  0.55986865  0.59354347  1
  N  N386  1  0.31195211  0.89079779  0.59197573  1
  N  N387  1  0.80410408  0.22488912  0.59127120  1
  N  N388  1  0.80762010  0.55970461  0.59089436  1
  N  N389  1  0.82266085  0.88843884  0.60143800  1
  N  N390  1  0.18412014  0.11101753  0.09912608  1
  N  N391  1  0.17355421  0.44453898  0.10470820  1
  N  N392  1  0.18736605  0.77531953  0.09303123  1
  N  N393  1  0.67616410  0.11265006  0.10002046  1
  N  N394  1  0.68820108  0.43775844  0.08716369  1
  N  N395  1  0.67949315  0.77837496  0.10311396  1
  N  N396  1  0.18642729  0.22434059  0.90249075  1
  N  N397  1  0.19325989  0.55769133  0.90745899  1
  N  N398  1  0.18751763  0.88969308  0.90172166  1
  N  N399  1  0.68645856  0.22156356  0.90444609  1
  N  N400  1  0.69594178  0.55617720  0.90840613  1
  N  N401  1  0.69165729  0.89123444  0.90466139  1
  N  N402  1  0.30110823  0.10907948  0.41092600  1
  N  N403  1  0.31552189  0.44439904  0.40123022  1
  N  N404  1  0.30498540  0.77332120  0.41083911  1
  N  N405  1  0.80413953  0.10767068  0.40761953  1
  N  N406  1  0.81435810  0.44472187  0.40111997  1
  N  N407  1  0.80474455  0.77811921  0.41004664  1
  N  N408  1  0.43932406  0.27431610  0.40594430  1
  N  N409  1  0.45119017  0.60933134  0.41242200  1
  N  N410  1  0.43643788  0.94351413  0.40314356  1
  N  N411  1  0.94375959  0.27554886  0.40757677  1
  N  N412  1  0.93673875  0.61115572  0.39959450  1
  N  N413  1  0.93302076  0.94344126  0.40210781  1
  N  N414  1  0.07053838  0.05603912  0.89732915  1
  N  N415  1  0.06739866  0.39007047  0.90580617  1
  N  N416  1  0.07315216  0.72213545  0.89681557  1
  N  N417  1  0.56796088  0.05777348  0.90800556  1
  N  N418  1  0.56957142  0.38988508  0.89828558  1
  N  N419  1  0.56364466  0.72758155  0.91002956  1
  N  N420  1  0.06359656  0.27417880  0.09512409  1
  N  N421  1  0.06586759  0.60966037  0.10004513  1
  N  N422  1  0.05844344  0.94212426  0.09491248  1
  N  N423  1  0.56429074  0.27576534  0.09700932  1
  N  N424  1  0.54977883  0.60796129  0.08657038  1
  N  N425  1  0.56431082  0.94514725  0.09810061  1
  N  N426  1  0.44471606  0.05641963  0.59494447  1
  N  N427  1  0.44040059  0.39080759  0.59222956  1
  N  N428  1  0.44486326  0.72360861  0.59470148  1
  N  N429  1  0.94616142  0.05711207  0.59049061  1
  N  N430  1  0.93388181  0.38822943  0.60585952  1
  N  N431  1  0.95014837  0.72556009  0.58801879  1
  N  N432  1  0.17346662  0.10949138  0.39571867  1
  N  N433  1  0.18636083  0.44493182  0.40119490  1
  N  N434  1  0.17724975  0.77754475  0.40001532  1
  N  N435  1  0.67740593  0.11036446  0.39883533  1
  N  N436  1  0.68409480  0.44446581  0.40059942  1
  N  N437  1  0.67693538  0.77867167  0.39633982  1
  N  N438  1  0.31316181  0.22336079  0.90271557  1
  N  N439  1  0.32315128  0.55531163  0.90081970  1
  N  N440  1  0.31568857  0.88942351  0.90133265  1
  N  N441  1  0.81317009  0.22363388  0.90311856  1
  N  N442  1  0.82262898  0.55623261  0.89795999  1
  N  N443  1  0.81962324  0.89071626  0.89998222  1
  N  N444  1  0.31215572  0.11007786  0.09820195  1
  N  N445  1  0.30025869  0.44149327  0.08655342  1
  N  N446  1  0.31708450  0.77776938  0.09866482  1
  N  N447  1  0.80581532  0.11142606  0.09176078  1
  N  N448  1  0.81565327  0.44588020  0.09974268  1
  N  N449  1  0.80738022  0.77661088  0.09062235  1
  N  N450  1  0.18135342  0.22393631  0.60045410  1
  N  N451  1  0.18085253  0.55554539  0.60127178  1
  N  N452  1  0.18500691  0.88869542  0.59954037  1
  N  N453  1  0.67751251  0.22016554  0.60506858  1
  N  N454  1  0.67939201  0.55796354  0.59794385  1
  N  N455  1  0.69394517  0.89195320  0.58875547  1
  Cl  Cl456  1  0.25923323  0.05692047  0.60486628  1
  Cl  Cl457  1  0.25028556  0.39490879  0.60369471  1
  Cl  Cl458  1  0.26070401  0.71913689  0.61452884  1
  Cl  Cl459  1  0.76346347  0.05465420  0.60929495  1
  Cl  Cl460  1  0.75209943  0.38738846  0.62101382  1
  Cl  Cl461  1  0.76330765  0.72373465  0.60989982  1
  Cl  Cl462  1  0.24935834  0.28550089  0.12144788  1
  Cl  Cl463  1  0.24602917  0.61592623  0.12837928  1
  Cl  Cl464  1  0.24447809  0.94612243  0.11761192  1
  Cl  Cl465  1  0.74993210  0.28504642  0.12256952  1
  Cl  Cl466  1  0.73463910  0.60530675  0.10202341  1
  Cl  Cl467  1  0.75006599  0.94875818  0.11764593  1
  Cl  Cl468  1  0.25211519  0.05052502  0.87184918  1
  Cl  Cl469  1  0.25789307  0.39412402  0.89287296  1
  Cl  Cl470  1  0.25349482  0.71890544  0.87927651  1
  Cl  Cl471  1  0.75771451  0.05378895  0.88220682  1
  Cl  Cl472  1  0.75571049  0.39074183  0.88785407  1
  Cl  Cl473  1  0.75680278  0.72801761  0.89511523  1
  Cl  Cl474  1  0.25562377  0.28127864  0.38542523  1
  Cl  Cl475  1  0.26097511  0.61181753  0.39742122  1
  Cl  Cl476  1  0.24611657  0.94683747  0.38567232  1
  Cl  Cl477  1  0.75675496  0.27542620  0.38949576  1
  Cl  Cl478  1  0.75814740  0.61419981  0.37431894  1
  Cl  Cl479  1  0.74976192  0.94750999  0.38287876  1
  Cl  Cl480  1  -0.00742410  0.22287576  0.60844809  1
  Cl  Cl481  1  -0.00726668  0.55523720  0.61013249  1
  Cl  Cl482  1  0.00522573  0.88860922  0.61644275  1
  Cl  Cl483  1  0.49361566  0.22018187  0.61287789  1
  Cl  Cl484  1  0.49167821  0.55563380  0.61720137  1
  Cl  Cl485  1  0.50153687  0.88786543  0.61546315  1
  Cl  Cl486  1  -0.00567321  0.10835937  0.10659242  1
  Cl  Cl487  1  -0.00460948  0.44450812  0.12019851  1
  Cl  Cl488  1  -0.00841775  0.77298743  0.10558608  1
  Cl  Cl489  1  0.49359265  0.11598092  0.12219695  1
  Cl  Cl490  1  0.48703311  0.43986022  0.10445798  1
  Cl  Cl491  1  0.49888729  0.77544636  0.11562580  1
  Cl  Cl492  1  0.00077094  0.21937851  0.87826347  1
  Cl  Cl493  1  0.00678924  0.54853088  0.87725896  1
  Cl  Cl494  1  0.00192467  0.88441173  0.88410718  1
  Cl  Cl495  1  0.49911179  0.21826036  0.88003416  1
  Cl  Cl496  1  0.51257688  0.56282712  0.89387003  1
  Cl  Cl497  1  0.50514391  0.88485436  0.88278846  1
  Cl  Cl498  1  -0.01240720  0.11023197  0.38661372  1
  Cl  Cl499  1  0.00391529  0.44626088  0.39200446  1
  Cl  Cl500  1  -0.01053104  0.77942431  0.38175052  1
  Cl  Cl501  1  0.48648398  0.11420087  0.38932838  1
  Cl  Cl502  1  0.49676891  0.44345368  0.37973678  1
  Cl  Cl503  1  0.48996879  0.77886129  0.38251649  1
  Cl  Cl504  1  0.35714119  0.14566036  0.74721253  1
  Cl  Cl505  1  0.35913987  0.47844558  0.75348524  1
  Cl  Cl506  1  0.36136531  0.81365108  0.74982847  1
  Cl  Cl507  1  0.86209601  0.14720067  0.74913001  1
  Cl  Cl508  1  0.86076265  0.48087393  0.74883573  1
  Cl  Cl509  1  0.86031951  0.81090762  0.74879811  1
  Cl  Cl510  1  0.13905369  0.18991209  0.25642428  1
  Cl  Cl511  1  0.14081169  0.52177885  0.24925615  1
  Cl  Cl512  1  0.13486663  0.85348822  0.25363294  1
  Cl  Cl513  1  0.63969232  0.18787328  0.25248958  1
  Cl  Cl514  1  0.64181130  0.52114915  0.24962880  1
  Cl  Cl515  1  0.64014401  0.85358813  0.24895705  1
  Cl  Cl516  1  0.13609042  0.14372801  0.74302145  1
  Cl  Cl517  1  0.14009448  0.47830693  0.74464638  1
  Cl  Cl518  1  0.14024747  0.81042259  0.74514468  1
  Cl  Cl519  1  0.63815699  0.14432145  0.74522419  1
  Cl  Cl520  1  0.63887781  0.47868082  0.74821867  1
  Cl  Cl521  1  0.64054933  0.80930991  0.74912341  1
  Cl  Cl522  1  0.35889577  0.18771761  0.25288306  1
  Cl  Cl523  1  0.36055866  0.52109053  0.24935835  1
  Cl  Cl524  1  0.35923208  0.85311609  0.24815510  1
  Cl  Cl525  1  0.86212445  0.18787522  0.25108882  1
  Cl  Cl526  1  0.86337970  0.52133939  0.24617239  1
  Cl  Cl527  1  0.86000263  0.85450154  0.24847573  1
  Cl  Cl528  1  0.11361193  0.31346391  0.74914019  1
  Cl  Cl529  1  0.11525643  0.64488949  0.74564797  1
  Cl  Cl530  1  0.10988092  0.97770646  0.74761936  1
  Cl  Cl531  1  0.61183897  0.31266868  0.74751975  1
  Cl  Cl532  1  0.61038408  0.64478490  0.75029314  1
  Cl  Cl533  1  0.61347026  0.97939470  0.74915612  1
  Cl  Cl534  1  0.38792088  0.01917158  0.25100708  1
  Cl  Cl535  1  0.39040981  0.35597315  0.25311902  1
  Cl  Cl536  1  0.38801980  0.68656560  0.24498384  1
  Cl  Cl537  1  0.89214883  0.02188969  0.25045300  1
  Cl  Cl538  1  0.89450667  0.35536046  0.25299412  1
  Cl  Cl539  1  0.88529149  0.68695924  0.24969631  1
  Cl  Cl540  1  0.38783525  0.31316153  0.74941816  1
  Cl  Cl541  1  0.38961717  0.64471468  0.75619463  1
  Cl  Cl542  1  0.38931997  0.97866813  0.75198262  1
  Cl  Cl543  1  0.89084035  0.31466358  0.74743074  1
  Cl  Cl544  1  0.89183758  0.64787487  0.75142420  1
  Cl  Cl545  1  0.89247371  0.97945304  0.74938942  1
  Cl  Cl546  1  0.11048699  0.02166382  0.25234608  1
  Cl  Cl547  1  0.11389927  0.35590275  0.25389523  1
  Cl  Cl548  1  0.10920829  0.68686364  0.25288690  1
  Cl  Cl549  1  0.61066341  0.02276438  0.25130465  1
  Cl  Cl550  1  0.61335931  0.35481828  0.25097888  1
  Cl  Cl551  1  0.61207350  0.68780704  0.25175347  1
