# generated using pymatgen
data_H8PbC4(N3Cl2)2
_symmetry_space_group_name_H-M   'P 1'
_cell_length_a   16.62898096
_cell_length_b   22.51205682
_cell_length_c   21.59195466
_cell_angle_alpha   90.00039456
_cell_angle_beta   90.02796237
_cell_angle_gamma   90.00445851
_symmetry_Int_Tables_number   1
_chemical_formula_structural   H8PbC4(N3Cl2)2
_chemical_formula_sum   'H192 Pb24 C96 N144 Cl96'
_cell_volume   8083.00260176
_cell_formula_units_Z   24
loop_
 _symmetry_equiv_pos_site_id
 _symmetry_equiv_pos_as_xyz
  1  'x, y, z'
loop_
 _atom_site_type_symbol
 _atom_site_label
 _atom_site_symmetry_multiplicity
 _atom_site_fract_x
 _atom_site_fract_y
 _atom_site_fract_z
 _atom_site_occupancy
  H  H0  1  0.00941088  0.03125331  0.67787137  1
  H  H1  1  0.00890072  0.36291078  0.68010167  1
  H  H2  1  0.01351510  0.69483893  0.67766182  1
  H  H3  1  0.49039207  0.03055701  0.68196755  1
  H  H4  1  0.48760106  0.36385473  0.67453801  1
  H  H5  1  0.48892953  0.69705189  0.68162959  1
  H  H6  1  0.00752362  0.30196440  0.18199497  1
  H  H7  1  0.00210844  0.63597136  0.17750310  1
  H  H8  1  0.00721619  0.97370524  0.17726381  1
  H  H9  1  0.49833606  0.30085319  0.18439235  1
  H  H10  1  0.50620325  0.63855239  0.17987022  1
  H  H11  1  0.50409102  0.97126932  0.17810308  1
  H  H12  1  0.01272777  0.03327924  0.82455539  1
  H  H13  1  0.00338972  0.36105114  0.82263790  1
  H  H14  1  -0.00547960  0.69854435  0.82036359  1
  H  H15  1  0.49151126  0.03270151  0.81980871  1
  H  H16  1  0.49851757  0.36418582  0.81770852  1
  H  H17  1  0.49684576  0.69799204  0.82256807  1
  H  H18  1  -0.01708659  0.29971669  0.32565248  1
  H  H19  1  -0.01240989  0.63472609  0.32222684  1
  H  H20  1  -0.01488169  0.97242564  0.32293177  1
  H  H21  1  0.51019785  0.30265432  0.32320476  1
  H  H22  1  0.50687452  0.63531745  0.32495321  1
  H  H23  1  0.50900095  0.96967769  0.31557036  1
  H  H24  1  0.25669151  0.19304458  0.67855723  1
  H  H25  1  0.25263835  0.52996515  0.67483903  1
  H  H26  1  0.26134717  0.86591394  0.67993814  1
  H  H27  1  0.74511874  0.19693304  0.67568492  1
  H  H28  1  0.75261634  0.52863222  0.68058491  1
  H  H29  1  0.74515541  0.86166603  0.67992277  1
  H  H30  1  0.25791226  0.13624686  0.17743687  1
  H  H31  1  0.25575667  0.46892924  0.18161049  1
  H  H32  1  0.25515268  0.80467732  0.18197132  1
  H  H33  1  0.73854501  0.13430272  0.17532286  1
  H  H34  1  0.74155681  0.46839407  0.17914905  1
  H  H35  1  0.75320527  0.80486846  0.17827713  1
  H  H36  1  0.26056173  0.20010270  0.81961498  1
  H  H37  1  0.24101552  0.52837264  0.82059876  1
  H  H38  1  0.25127271  0.86048832  0.81889447  1
  H  H39  1  0.73459011  0.19466924  0.82094496  1
  H  H40  1  0.74561485  0.53174809  0.81917394  1
  H  H41  1  0.74731382  0.86497355  0.82046273  1
  H  H42  1  0.24478514  0.13763904  0.32790371  1
  H  H43  1  0.24272569  0.47114502  0.31983817  1
  H  H44  1  0.25254190  0.80484560  0.31824566  1
  H  H45  1  0.75644407  0.13822135  0.32303400  1
  H  H46  1  0.75870697  0.46820111  0.32450211  1
  H  H47  1  0.75868371  0.80224838  0.32013086  1
  H  H48  1  0.13179408  0.05548419  0.60616173  1
  H  H49  1  0.12351599  0.38714859  0.60106072  1
  H  H50  1  0.11795028  0.72408412  0.59253849  1
  H  H51  1  0.62535512  0.05154810  0.61865788  1
  H  H52  1  0.62802262  0.38045527  0.62203782  1
  H  H53  1  0.62606104  0.71538463  0.62683108  1
  H  H54  1  0.37394559  0.27995730  0.11434017  1
  H  H55  1  0.37109096  0.61713236  0.12277815  1
  H  H56  1  0.36955654  0.94828097  0.11770046  1
  H  H57  1  0.87606681  0.27925483  0.11507652  1
  H  H58  1  0.86644365  0.61532667  0.11814132  1
  H  H59  1  0.86908279  0.94777637  0.12370791  1
  H  H60  1  0.37751132  0.05510237  0.89714435  1
  H  H61  1  0.37443193  0.38770984  0.88857177  1
  H  H62  1  0.38479957  0.72534181  0.90108519  1
  H  H63  1  0.87260162  0.05073890  0.87704881  1
  H  H64  1  0.87551615  0.38498189  0.88867627  1
  H  H65  1  0.89037615  0.72503082  0.90390762  1
  H  H66  1  0.12429958  0.28295881  0.37295988  1
  H  H67  1  0.12870154  0.61554790  0.37444613  1
  H  H68  1  0.12695996  0.95502030  0.37444483  1
  H  H69  1  0.63077239  0.27769971  0.39643341  1
  H  H70  1  0.62702302  0.61159206  0.39639321  1
  H  H71  1  0.63053760  0.94941850  0.38883122  1
  H  H72  1  0.37485272  0.22103370  0.60476964  1
  H  H73  1  0.37101997  0.55609400  0.60142117  1
  H  H74  1  0.36881100  0.89505469  0.59689355  1
  H  H75  1  0.87046023  0.21858908  0.60397331  1
  H  H76  1  0.86667387  0.55673029  0.60290739  1
  H  H77  1  0.86958795  0.88863188  0.61113660  1
  H  H78  1  0.12301368  0.11576249  0.11821928  1
  H  H79  1  0.12499421  0.44649924  0.11542665  1
  H  H80  1  0.12257640  0.78095779  0.11801151  1
  H  H81  1  0.63226985  0.10566305  0.09060533  1
  H  H82  1  0.62977939  0.44268467  0.09744856  1
  H  H83  1  0.61716989  0.78537827  0.11902233  1
  H  H84  1  0.12271656  0.21555725  0.87630673  1
  H  H85  1  0.13536815  0.55865895  0.90412334  1
  H  H86  1  0.13445116  0.88972954  0.89412149  1
  H  H87  1  0.62824586  0.22267077  0.90479337  1
  H  H88  1  0.63753062  0.55670368  0.90234193  1
  H  H89  1  0.63502141  0.89115408  0.89886948  1
  H  H90  1  0.36926227  0.11453074  0.39467769  1
  H  H91  1  0.37698100  0.45083541  0.38276869  1
  H  H92  1  0.37677304  0.77724396  0.38634744  1
  H  H93  1  0.86605994  0.11111953  0.40372694  1
  H  H94  1  0.86659441  0.43927291  0.40792919  1
  H  H95  1  0.87506210  0.77534549  0.39655398  1
  H  H96  1  0.38147642  0.28067879  0.38702726  1
  H  H97  1  0.37882111  0.61374875  0.38894052  1
  H  H98  1  0.38120843  0.94967394  0.38175638  1
  H  H99  1  0.88154567  0.27321064  0.41192387  1
  H  H100  1  0.88541343  0.60751413  0.40920722  1
  H  H101  1  0.88235959  0.93947394  0.40740902  1
  H  H102  1  0.11704771  0.06122653  0.91051625  1
  H  H103  1  0.12506426  0.38845764  0.89426158  1
  H  H104  1  0.13545996  0.71527306  0.87112903  1
  H  H105  1  0.62574501  0.05145349  0.88014130  1
  H  H106  1  0.62369869  0.38703093  0.88941829  1
  H  H107  1  0.63149261  0.71841947  0.88319554  1
  H  H108  1  0.12395958  0.27528493  0.10396258  1
  H  H109  1  0.11333230  0.60794910  0.09719160  1
  H  H110  1  0.11323665  0.94458089  0.09371320  1
  H  H111  1  0.62359247  0.28152148  0.11516325  1
  H  H112  1  0.61778816  0.60902294  0.09983530  1
  H  H113  1  0.61585925  0.94280426  0.09752410  1
  H  H114  1  0.37779002  0.05833033  0.60101649  1
  H  H115  1  0.38365288  0.39200102  0.58832425  1
  H  H116  1  0.37958076  0.71886242  0.59922109  1
  H  H117  1  0.88234390  0.05326445  0.61214447  1
  H  H118  1  0.87511188  0.38246779  0.61645330  1
  H  H119  1  0.87354364  0.71896538  0.62785562  1
  H  H120  1  0.12060650  0.11338788  0.39584328  1
  H  H121  1  0.12881489  0.44228032  0.39732773  1
  H  H122  1  0.12722687  0.77833576  0.38823178  1
  H  H123  1  0.61955842  0.11999684  0.37741858  1
  H  H124  1  0.62091841  0.44914552  0.38217563  1
  H  H125  1  0.62699038  0.77891491  0.38378564  1
  H  H126  1  0.36959351  0.22273107  0.90039011  1
  H  H127  1  0.38034269  0.55126253  0.87294801  1
  H  H128  1  0.38278142  0.88503541  0.88314649  1
  H  H129  1  0.87380481  0.21681633  0.87296460  1
  H  H130  1  0.88382081  0.55183717  0.87645642  1
  H  H131  1  0.88273823  0.88850971  0.87992793  1
  H  H132  1  0.37048968  0.10915791  0.09769092  1
  H  H133  1  0.37281482  0.44455397  0.10330530  1
  H  H134  1  0.37011340  0.77799877  0.10243903  1
  H  H135  1  0.87724860  0.11422845  0.11919674  1
  H  H136  1  0.87650093  0.44696412  0.12059249  1
  H  H137  1  0.86359015  0.77415713  0.09919017  1
  H  H138  1  0.12609159  0.21549063  0.61188525  1
  H  H139  1  0.12265612  0.55526935  0.61030295  1
  H  H140  1  0.12317764  0.88531263  0.62596413  1
  H  H141  1  0.62150858  0.22241928  0.60569542  1
  H  H142  1  0.61830213  0.55130502  0.61797924  1
  H  H143  1  0.62189451  0.88342493  0.60803093  1
  H  H144  1  0.19422033  0.41161106  0.50303959  1
  H  H145  1  0.41975118  0.25738077  0.00135925  1
  H  H146  1  0.89638315  0.58105861  0.01185078  1
  H  H147  1  0.96543184  0.58344075  0.50736015  1
  H  H148  1  0.91356850  0.41507093  0.99939800  1
  H  H149  1  0.85514444  0.25023659  0.98523658  1
  H  H150  1  0.69878143  0.92098750  1.00578543  1
  H  H151  1  0.32922197  0.74735160  0.49708854  1
  H  H152  1  0.68191533  0.88191087  0.50204048  1
  H  H153  1  0.55015490  0.58617005  -0.00251656  1
  H  H154  1  0.21204347  0.58223523  1.00491204  1
  H  H155  1  0.96096281  0.75021383  1.00879688  1
  H  H156  1  0.14215246  0.91767624  0.51244198  1
  H  H157  1  0.29654889  0.92395163  0.49779310  1
  H  H158  1  0.60577868  0.74097688  0.51173214  1
  H  H159  1  0.03913533  0.74998664  0.49368758  1
  H  H160  1  0.96182369  0.91469330  0.50651251  1
  H  H161  1  0.07364995  0.41107289  0.99950520  1
  H  H162  1  0.12109069  0.74549010  -0.01486791  1
  H  H163  1  0.79294374  0.75611393  -0.00412764  1
  H  H164  1  0.19561018  0.91872841  1.00113964  1
  H  H165  1  0.57999036  0.93804352  0.50226739  1
  H  H166  1  0.05881356  0.41315073  0.49433891  1
  H  H167  1  0.81176206  0.93758179  0.51794958  1
  H  H168  1  0.30197440  0.24850323  1.00889763  1
  H  H169  1  0.42433063  0.41604144  0.99755687  1
  H  H170  1  0.92240916  0.08897508  0.50152358  1
  H  H171  1  0.70867338  0.57881320  1.00780641  1
  H  H172  1  0.44669256  0.74008368  0.49140800  1
  H  H173  1  0.54495706  0.91787469  -0.00398015  1
  H  H174  1  0.42090681  0.92654805  0.49585685  1
  H  H175  1  0.85405833  0.08602242  0.00936001  1
  H  H176  1  0.80203192  0.58659101  0.49712900  1
  H  H177  1  0.41815873  0.24930948  0.49982126  1
  H  H178  1  0.64064304  0.08905236  0.49214308  1
  H  H179  1  0.04286017  0.59208094  -0.00594089  1
  H  H180  1  0.16211592  0.58342775  0.50331036  1
  H  H181  1  0.17755641  0.75855113  0.49550326  1
  H  H182  1  0.11443087  0.25130788  0.48830660  1
  H  H183  1  0.30231273  0.08320690  -0.00484451  1
  H  H184  1  0.03676927  0.92035696  -0.00594201  1
  H  H185  1  0.64605086  0.41760261  0.49060071  1
  H  H186  1  0.64534555  0.74927198  0.01382012  1
  H  H187  1  0.39510259  0.58621403  0.00954919  1
  H  H188  1  0.57898539  0.26049971  0.00117157  1
  H  H189  1  0.43843760  0.08237056  1.00670296  1
  H  H190  1  0.85311456  0.91411989  0.98865144  1
  H  H191  1  0.70306573  0.24196733  1.00606630  1
  Pb  Pb192  1  0.24771666  0.04864573  0.75676519  1
  Pb  Pb193  1  0.25052314  0.38045270  0.74361749  1
  Pb  Pb194  1  0.25861905  0.71591076  0.73956518  1
  Pb  Pb195  1  0.75343210  0.04906397  0.74762339  1
  Pb  Pb196  1  0.75320916  0.38024039  0.75142376  1
  Pb  Pb197  1  0.75304202  0.71308400  0.76292231  1
  Pb  Pb198  1  0.25028637  0.28498440  0.24959405  1
  Pb  Pb199  1  0.25290210  0.61712194  0.24438434  1
  Pb  Pb200  1  0.24717980  0.95469554  0.24882830  1
  Pb  Pb201  1  0.75332354  0.28339225  0.24982949  1
  Pb  Pb202  1  0.74937501  0.61974813  0.25376468  1
  Pb  Pb203  1  0.74957421  0.95078730  0.25638991  1
  Pb  Pb204  1  -0.00004919  0.21314690  0.74313017  1
  Pb  Pb205  1  0.00534381  0.54952945  0.74878640  1
  Pb  Pb206  1  0.00167436  0.87997657  0.75157818  1
  Pb  Pb207  1  0.49842274  0.21691498  0.75430537  1
  Pb  Pb208  1  0.50397488  0.54558545  0.75788391  1
  Pb  Pb209  1  0.50681015  0.88371886  0.75013499  1
  Pb  Pb210  1  -0.00204161  0.11983764  0.25782454  1
  Pb  Pb211  1  -0.00097523  0.45181837  0.25496141  1
  Pb  Pb212  1  0.00197010  0.78344823  0.25354991  1
  Pb  Pb213  1  0.49790644  0.11943942  0.24152447  1
  Pb  Pb214  1  0.50362556  0.45098473  0.24167268  1
  Pb  Pb215  1  0.49661548  0.78631305  0.24807229  1
  C  C216  1  0.00725020  0.04666877  0.63045448  1
  C  C217  1  0.00240737  0.37788913  0.63259922  1
  C  C218  1  0.00190923  0.71128852  0.63140641  1
  C  C219  1  0.49783342  0.04655640  0.63482894  1
  C  C220  1  0.49959992  0.37891119  0.62785151  1
  C  C221  1  0.49851030  0.71080120  0.63393498  1
  C  C222  1  0.00236808  0.28683121  0.13439526  1
  C  C223  1  -0.00626987  0.62036934  0.13019825  1
  C  C224  1  -0.00356246  0.95637870  0.13111673  1
  C  C225  1  0.49864294  0.28755839  0.13597975  1
  C  C226  1  0.49845988  0.62257304  0.13272796  1
  C  C227  1  0.49663465  0.95499147  0.13117691  1
  C  C228  1  0.00090565  0.04797160  0.87137232  1
  C  C229  1  0.00159940  0.37809752  0.86972991  1
  C  C230  1  0.00743600  0.71304417  0.86728908  1
  C  C231  1  0.49813049  0.04650177  0.86753217  1
  C  C232  1  0.49905301  0.37992489  0.86519239  1
  C  C233  1  0.50495530  0.71362370  0.86943421  1
  C  C234  1  -0.00267418  0.28545092  0.37230269  1
  C  C235  1  0.00053554  0.62004263  0.36908834  1
  C  C236  1  -0.00209194  0.95668894  0.36941557  1
  C  C237  1  0.50682475  0.28748653  0.37071535  1
  C  C238  1  0.50420159  0.62000476  0.37261601  1
  C  C239  1  0.50695992  0.95606596  0.36379366  1
  C  C240  1  0.25217306  0.20931544  0.63165917  1
  C  C241  1  0.24828905  0.54616518  0.62768845  1
  C  C242  1  0.25125062  0.88100877  0.63269504  1
  C  C243  1  0.74592968  0.21215980  0.62817462  1
  C  C244  1  0.74573856  0.54487831  0.63357632  1
  C  C245  1  0.74551129  0.87737062  0.63235767  1
  C  C246  1  0.25075860  0.12135141  0.13016126  1
  C  C247  1  0.25115462  0.45359825  0.13407266  1
  C  C248  1  0.24919432  0.78856902  0.13486683  1
  C  C249  1  0.74970996  0.11877338  0.12852527  1
  C  C250  1  0.74909470  0.45296088  0.13211589  1
  C  C251  1  0.74444788  0.78857778  0.13132407  1
  C  C252  1  0.25106035  0.21285192  0.86739669  1
  C  C253  1  0.25207785  0.54419099  0.86731136  1
  C  C254  1  0.25633860  0.87766558  0.86566094  1
  C  C255  1  0.74545240  0.21015927  0.86795641  1
  C  C256  1  0.75622381  0.54581777  0.86660449  1
  C  C257  1  0.75594579  0.88005474  0.86786884  1
  C  C258  1  0.24487754  0.12152709  0.37535118  1
  C  C259  1  0.24959082  0.45513797  0.36690488  1
  C  C260  1  0.25145154  0.78834328  0.36555189  1
  C  C261  1  0.74639765  0.12302363  0.37002537  1
  C  C262  1  0.74849164  0.45238904  0.37130098  1
  C  C263  1  0.75324131  0.78632863  0.36712205  1
  C  C264  1  0.45889461  0.59226238  0.46267727  1
  C  C265  1  0.06353918  0.26039218  0.45763602  1
  C  C266  1  0.28302477  0.57719529  0.53353592  1
  C  C267  1  0.93672499  0.74336633  0.54787622  1
  C  C268  1  0.28332501  0.24000032  0.53824706  1
  C  C269  1  0.07143607  0.73693889  0.95347528  1
  C  C270  1  0.31550314  0.57391521  0.95195298  1
  C  C271  1  0.55975771  0.40422592  0.54196523  1
  C  C272  1  0.06414501  0.92986735  0.45384340  1
  C  C273  1  0.46284847  0.40613832  0.95822324  1
  C  C274  1  0.46114487  0.26003248  0.46302232  1
  C  C275  1  0.18993268  0.90865639  0.54696515  1
  C  C276  1  0.45828535  0.26582706  0.04106380  1
  C  C277  1  0.19404019  0.09383259  0.04139956  1
  C  C278  1  0.96401885  0.07595799  0.53802057  1
  C  C279  1  0.54360600  0.93812510  0.46058652  1
  C  C280  1  0.22905665  0.90717836  0.95951092  1
  C  C281  1  0.55798784  0.73274888  0.54517377  1
  C  C282  1  0.48109526  0.74347766  0.96434627  1
  C  C283  1  0.47158604  0.07208340  0.96465028  1
  C  C284  1  0.46162041  0.93576751  0.45771155  1
  C  C285  1  0.53934427  0.59127797  0.46501415  1
  C  C286  1  0.29236666  0.75799166  0.45709452  1
  C  C287  1  0.68843275  0.09737512  0.45859263  1
  C  C288  1  0.80732081  0.24014075  0.95233545  1
  C  C289  1  0.20502099  0.09218034  0.46645803  1
  C  C290  1  0.28550713  0.09272529  0.46631700  1
  C  C291  1  0.54278340  0.25938188  0.46472909  1
  C  C292  1  0.19154037  0.23529789  0.95525496  1
  C  C293  1  0.44140457  0.59453577  0.04536793  1
  C  C294  1  0.04561542  0.07545150  0.53716181  1
  C  C295  1  0.78190696  0.75541694  0.46087985  1
  C  C296  1  0.72968449  0.90927275  0.96308337  1
  C  C297  1  0.95638552  0.40597811  0.96128679  1
  C  C298  1  0.73798793  0.56925542  0.96377638  1
  C  C299  1  0.99074290  0.73970149  0.96523982  1
  C  C300  1  0.22578428  0.42489869  0.46110507  1
  C  C301  1  0.54023312  0.26698873  0.04113148  1
  C  C302  1  0.27173906  0.23797682  0.96550645  1
  C  C303  1  0.02666654  0.40428024  0.53723428  1
  C  C304  1  0.76921929  0.09428804  0.46612057  1
  C  C305  1  0.98367943  0.25775630  0.46961739  1
  C  C306  1  0.80189953  0.42486839  0.04386806  1
  C  C307  1  0.47704032  0.73323933  0.53541190  1
  C  C308  1  0.70891295  0.24143204  0.53604649  1
  C  C309  1  0.77018283  0.57459055  0.53933832  1
  C  C310  1  0.55252390  0.07077524  0.95698669  1
  C  C311  1  0.94089523  0.07351895  0.95749697  1
  N  N312  1  0.06621497  0.59470338  0.45366210  1
  N  N313  1  0.72498373  0.42312150  0.03532467  1
  N  N314  1  0.93490820  0.92616979  0.04663777  1
  N  N315  1  0.69130011  0.57333453  0.54441907  1
  N  N316  1  0.54894631  0.07458375  0.54569822  1
  N  N317  1  0.20424207  0.42603230  0.04295268  1
  N  N318  1  0.72870252  0.24159525  0.96267957  1
  N  N319  1  0.47336464  0.07606842  0.53945513  1
  N  N320  1  0.20583251  0.23848594  0.54027150  1
  N  N321  1  0.95589066  0.26092460  0.04268007  1
  N  N322  1  0.94792154  0.40413920  0.54263852  1
  N  N323  1  0.51739919  0.92563313  0.03778376  1
  N  N324  1  0.01700751  0.07701481  0.96942812  1
  N  N325  1  0.78606412  0.24019091  0.53423989  1
  N  N326  1  0.77060180  0.42302083  0.46729674  1
  N  N327  1  0.21269802  0.75832746  0.45659853  1
  N  N328  1  0.01719784  0.58823024  0.03741900  1
  N  N329  1  0.54215240  0.40637655  0.95865449  1
  N  N330  1  0.03178641  0.25879165  0.03919458  1
  N  N331  1  0.03626650  0.40871130  0.96175140  1
  N  N332  1  0.26855328  0.91132921  0.53802813  1
  N  N333  1  0.30804067  0.90617448  0.95586158  1
  N  N334  1  0.20061675  0.76020507  0.04514204  1
  N  N335  1  0.52047602  0.59120417  0.03899677  1
  N  N336  1  0.81639505  0.56753924  0.95531298  1
  N  N337  1  0.30442971  0.42798113  0.45635946  1
  N  N338  1  0.76710141  0.75342014  0.03942152  1
  N  N339  1  0.48375201  0.40852683  0.53004401  1
  N  N340  1  0.80599738  0.09345699  0.04248171  1
  N  N341  1  0.23770772  0.57589643  0.96176575  1
  N  N342  1  0.68970037  0.76659794  0.04336616  1
  N  N343  1  0.43996833  0.92746459  0.04329195  1
  N  N344  1  0.55833438  0.73985558  0.95985603  1
  N  N345  1  0.01440356  0.74348542  0.53697839  1
  N  N346  1  0.98660356  0.92432866  0.46392754  1
  N  N347  1  0.27639908  0.75858300  0.04012208  1
  N  N348  1  0.93943154  0.59933577  0.04195527  1
  N  N349  1  0.28099747  0.42549954  0.03895476  1
  N  N350  1  0.27247321  0.09222355  0.03564220  1
  N  N351  1  0.69359325  0.42605065  0.45738531  1
  N  N352  1  0.80862230  0.90757079  0.95544743  1
  N  N353  1  0.72898454  0.09024694  0.03207906  1
  N  N354  1  0.98927560  0.59072488  0.46365033  1
  N  N355  1  0.78740449  0.90127083  0.53977101  1
  N  N356  1  0.20417835  0.57557139  0.53776461  1
  N  N357  1  0.70475501  0.90382653  0.53998592  1
  N  N358  1  0.70462269  0.75708440  0.45835276  1
  N  N359  1  0.01215652  0.92444491  0.03782743  1
  N  N360  1  0.07155341  0.05803523  0.59304086  1
  N  N361  1  0.06194948  0.38910057  0.59233705  1
  N  N362  1  0.05567239  0.72179152  0.58759895  1
  N  N363  1  0.56578588  0.05716500  0.60495058  1
  N  N364  1  0.57210351  0.38669515  0.60176322  1
  N  N365  1  0.56973214  0.71911384  0.60637237  1
  N  N366  1  0.43372771  0.27839434  0.10030990  1
  N  N367  1  0.42768632  0.61240816  0.10413394  1
  N  N368  1  0.42754886  0.94421740  0.10204945  1
  N  N369  1  0.93606865  0.27856743  0.10165026  1
  N  N370  1  0.92461988  0.60943884  0.10198815  1
  N  N371  1  0.92592367  0.94384806  0.10543987  1
  N  N372  1  0.43852370  0.05686681  0.90757033  1
  N  N373  1  0.43473526  0.39041714  0.90106913  1
  N  N374  1  0.44624183  0.72736094  0.91021879  1
  N  N375  1  0.92847376  0.05616445  0.89754797  1
  N  N376  1  0.93503902  0.38902980  0.90341932  1
  N  N377  1  0.95235790  0.72490282  0.91093799  1
  N  N378  1  0.07044963  0.27768603  0.39614927  1
  N  N379  1  0.07237093  0.61065373  0.39407964  1
  N  N380  1  0.07164461  0.94844182  0.39488780  1
  N  N381  1  0.57020746  0.27567164  0.40890146  1
  N  N382  1  0.56756525  0.60813811  0.41014337  1
  N  N383  1  0.57048910  0.95007532  0.40160875  1
  N  N384  1  0.31384773  0.22267037  0.59360972  1
  N  N385  1  0.31058200  0.55919618  0.58924263  1
  N  N386  1  0.30656811  0.89290245  0.59045447  1
  N  N387  1  0.80953720  0.22144044  0.59289378  1
  N  N388  1  0.80527350  0.55734090  0.59365916  1
  N  N389  1  0.80886972  0.89365062  0.59973828  1
  N  N390  1  0.18039216  0.11122876  0.10003715  1
  N  N391  1  0.18488689  0.44326901  0.10187332  1
  N  N392  1  0.18196308  0.77870349  0.10362259  1
  N  N393  1  0.69432897  0.10560479  0.08594407  1
  N  N394  1  0.69183454  0.44119984  0.09156495  1
  N  N395  1  0.67522081  0.77851544  0.10308295  1
  N  N396  1  0.17943964  0.22041743  0.89611633  1
  N  N397  1  0.19759014  0.55444373  0.91041755  1
  N  N398  1  0.19562064  0.89025650  0.90441633  1
  N  N399  1  0.69054371  0.21913207  0.91138811  1
  N  N400  1  0.69973303  0.55615881  0.90968874  1
  N  N401  1  0.69664951  0.89253738  0.90865632  1
  N  N402  1  0.31027650  0.11024135  0.41074979  1
  N  N403  1  0.31755207  0.44671919  0.39771462  1
  N  N404  1  0.31669419  0.77514699  0.40029390  1
  N  N405  1  0.80412134  0.10970732  0.41268057  1
  N  N406  1  0.80464467  0.43909950  0.41329227  1
  N  N407  1  0.81418078  0.77321790  0.40624971  1
  N  N408  1  0.44020817  0.27782072  0.40347123  1
  N  N409  1  0.43704301  0.60954907  0.40617534  1
  N  N410  1  0.44030213  0.94688223  0.39732588  1
  N  N411  1  0.94361495  0.27276634  0.41826740  1
  N  N412  1  0.94797207  0.60902838  0.41354379  1
  N  N413  1  0.94464564  0.94349468  0.41263859  1
  N  N414  1  0.05459821  0.06059146  0.91445530  1
  N  N415  1  0.06396818  0.38906008  0.90592573  1
  N  N416  1  0.08020140  0.72071097  0.89261621  1
  N  N417  1  0.56802647  0.05570427  0.89833102  1
  N  N418  1  0.56283588  0.39028448  0.90043496  1
  N  N419  1  0.57337579  0.72174617  0.89916621  1
  N  N420  1  0.06217874  0.27471988  0.09572047  1
  N  N421  1  0.05131109  0.61136661  0.08880583  1
  N  N422  1  0.05086628  0.94555984  0.08797832  1
  N  N423  1  0.56410556  0.28029588  0.10045146  1
  N  N424  1  0.55566274  0.61137499  0.09187516  1
  N  N425  1  0.55375310  0.94412284  0.09011415  1
  N  N426  1  0.44007374  0.05860290  0.59431746  1
  N  N427  1  0.44609553  0.39203110  0.58481702  1
  N  N428  1  0.44099874  0.71982255  0.59127549  1
  N  N429  1  0.94132404  0.05753429  0.59709546  1
  N  N430  1  0.93460058  0.38748447  0.60192132  1
  N  N431  1  0.92898780  0.72422339  0.60657208  1
  N  N432  1  0.17966322  0.10953011  0.41077697  1
  N  N433  1  0.19018911  0.44135557  0.40650030  1
  N  N434  1  0.18768120  0.78061366  0.40114930  1
  N  N435  1  0.67564128  0.11483261  0.39769295  1
  N  N436  1  0.67894742  0.44404192  0.39939676  1
  N  N437  1  0.68641944  0.77652584  0.39846032  1
  N  N438  1  0.30829251  0.22368001  0.90942806  1
  N  N439  1  0.32481669  0.55570272  0.89309360  1
  N  N440  1  0.32328102  0.88779573  0.89730955  1
  N  N441  1  0.81755120  0.22233246  0.89327943  1
  N  N442  1  0.82624514  0.55322820  0.89450364  1
  N  N443  1  0.82465805  0.88778767  0.89742483  1
  N  N444  1  0.30874266  0.11062385  0.08976484  1
  N  N445  1  0.31105255  0.44238696  0.09530780  1
  N  N446  1  0.30805471  0.77617107  0.09555195  1
  N  N447  1  0.81966589  0.11098288  0.10084175  1
  N  N448  1  0.81910368  0.44257156  0.10266528  1
  N  N449  1  0.80193958  0.77723323  0.09034512  1
  N  N450  1  0.18617009  0.21896663  0.59917608  1
  N  N451  1  0.18190405  0.55555991  0.59555170  1
  N  N452  1  0.17910543  0.89016655  0.60586369  1
  N  N453  1  0.68135887  0.22463373  0.59256468  1
  N  N454  1  0.67785504  0.55494648  0.60309791  1
  N  N455  1  0.68215723  0.88020342  0.59539521  1
  Cl  Cl456  1  0.25739352  0.05334734  0.62296449  1
  Cl  Cl457  1  0.25095157  0.38926837  0.60798944  1
  Cl  Cl458  1  0.24449260  0.72560434  0.59826558  1
  Cl  Cl459  1  0.75261962  0.04610097  0.61535424  1
  Cl  Cl460  1  0.75181214  0.38168365  0.62079772  1
  Cl  Cl461  1  0.75040778  0.71735771  0.63507082  1
  Cl  Cl462  1  0.24815479  0.27561200  0.11356081  1
  Cl  Cl463  1  0.23380051  0.60427839  0.10249916  1
  Cl  Cl464  1  0.23434965  0.94731835  0.11316955  1
  Cl  Cl465  1  0.74892968  0.27111155  0.10978893  1
  Cl  Cl466  1  0.73983229  0.61101502  0.11355846  1
  Cl  Cl467  1  0.73725778  0.94075101  0.11515026  1
  Cl  Cl468  1  0.24878615  0.05917915  0.89467630  1
  Cl  Cl469  1  0.24745077  0.38703845  0.87619602  1
  Cl  Cl470  1  0.26492427  0.71639868  0.87091072  1
  Cl  Cl471  1  0.74907877  0.04971333  0.87882507  1
  Cl  Cl472  1  0.75065323  0.38260530  0.88222763  1
  Cl  Cl473  1  0.76696089  0.72877678  0.90004937  1
  Cl  Cl474  1  0.25677768  0.27704098  0.37692129  1
  Cl  Cl475  1  0.25302716  0.61563268  0.37746162  1
  Cl  Cl476  1  0.25647386  0.94450736  0.38706560  1
  Cl  Cl477  1  0.75724542  0.27646856  0.38139816  1
  Cl  Cl478  1  0.76464027  0.60980385  0.38859305  1
  Cl  Cl479  1  0.75932600  0.93768536  0.39511598  1
  Cl  Cl480  1  -0.00329076  0.21922763  0.60970294  1
  Cl  Cl481  1  -0.00701504  0.56190972  0.60681574  1
  Cl  Cl482  1  -0.00918735  0.88943715  0.60744541  1
  Cl  Cl483  1  0.49645142  0.22284296  0.62073490  1
  Cl  Cl484  1  0.49347599  0.55142750  0.62751682  1
  Cl  Cl485  1  0.49560668  0.89459906  0.61336617  1
  Cl  Cl486  1  -0.00069598  0.11270530  0.12694824  1
  Cl  Cl487  1  0.00237741  0.44618779  0.11623715  1
  Cl  Cl488  1  -0.01145761  0.77676244  0.11829713  1
  Cl  Cl489  1  0.49915484  0.10767760  0.10513083  1
  Cl  Cl490  1  0.49834133  0.44651628  0.10713021  1
  Cl  Cl491  1  0.49261931  0.77940825  0.11259547  1
  Cl  Cl492  1  -0.00192748  0.21620703  0.87335284  1
  Cl  Cl493  1  0.01470127  0.56243189  0.89232659  1
  Cl  Cl494  1  0.01086905  0.89614620  0.89137398  1
  Cl  Cl495  1  0.50292421  0.22525074  0.89008909  1
  Cl  Cl496  1  0.51501490  0.56224538  0.89565685  1
  Cl  Cl497  1  0.51270675  0.89055362  0.88920212  1
  Cl  Cl498  1  -0.01160964  0.10957356  0.39100769  1
  Cl  Cl499  1  -0.00156208  0.44356272  0.38926165  1
  Cl  Cl500  1  0.00426792  0.77384716  0.39564475  1
  Cl  Cl501  1  0.49109970  0.11751822  0.36912495  1
  Cl  Cl502  1  0.50025011  0.45190190  0.37298577  1
  Cl  Cl503  1  0.49928336  0.77649951  0.38025733  1
  Cl  Cl504  1  0.36090648  0.14964987  0.75203455  1
  Cl  Cl505  1  0.36149182  0.48221879  0.75567979  1
  Cl  Cl506  1  0.35673112  0.81515128  0.74621364  1
  Cl  Cl507  1  0.86081423  0.14694371  0.75089148  1
  Cl  Cl508  1  0.86739737  0.48021656  0.75627849  1
  Cl  Cl509  1  0.86735223  0.81267712  0.75260423  1
  Cl  Cl510  1  0.13692108  0.18459375  0.24999749  1
  Cl  Cl511  1  0.13189924  0.52262871  0.24932268  1
  Cl  Cl512  1  0.13442654  0.85317905  0.25037478  1
  Cl  Cl513  1  0.63742956  0.18499411  0.24771896  1
  Cl  Cl514  1  0.64165739  0.51578493  0.25185704  1
  Cl  Cl515  1  0.63403079  0.85268445  0.25266606  1
  Cl  Cl516  1  0.13912241  0.14571857  0.74824177  1
  Cl  Cl517  1  0.13895595  0.48191603  0.74504490  1
  Cl  Cl518  1  0.13577780  0.81079835  0.74478761  1
  Cl  Cl519  1  0.64145705  0.14407117  0.74933664  1
  Cl  Cl520  1  0.64448292  0.48238335  0.74884078  1
  Cl  Cl521  1  0.64459803  0.81536648  0.75278014  1
  Cl  Cl522  1  0.35762917  0.18287943  0.24586464  1
  Cl  Cl523  1  0.35483313  0.52113749  0.24895975  1
  Cl  Cl524  1  0.35550657  0.85157260  0.24832153  1
  Cl  Cl525  1  0.85678239  0.18512975  0.24446626  1
  Cl  Cl526  1  0.86271553  0.51985851  0.24505828  1
  Cl  Cl527  1  0.85362051  0.85278484  0.24599345  1
  Cl  Cl528  1  0.10996948  0.31450211  0.75197845  1
  Cl  Cl529  1  0.11104772  0.64602984  0.74907275  1
  Cl  Cl530  1  0.11213920  0.98065735  0.74522266  1
  Cl  Cl531  1  0.61487694  0.31474022  0.74734781  1
  Cl  Cl532  1  0.61433845  0.64791580  0.75475974  1
  Cl  Cl533  1  0.61397029  0.97777489  0.75023280  1
  Cl  Cl534  1  0.38995804  0.01547046  0.24313538  1
  Cl  Cl535  1  0.38511685  0.35428010  0.24987380  1
  Cl  Cl536  1  0.38720557  0.68389113  0.24837090  1
  Cl  Cl537  1  0.88356431  0.01961635  0.24322460  1
  Cl  Cl538  1  0.88994318  0.34985600  0.24764359  1
  Cl  Cl539  1  0.88795957  0.68318597  0.24617245  1
  Cl  Cl540  1  0.39314146  0.31614614  0.74916344  1
  Cl  Cl541  1  0.39364717  0.64757407  0.75172354  1
  Cl  Cl542  1  0.39375623  0.98036612  0.75339910  1
  Cl  Cl543  1  0.89041476  0.31392715  0.74855445  1
  Cl  Cl544  1  0.89196206  0.64820047  0.75502914  1
  Cl  Cl545  1  0.88799688  0.97801889  0.75381276  1
  Cl  Cl546  1  0.10618638  0.01739588  0.25551763  1
  Cl  Cl547  1  0.11337281  0.35306759  0.25765895  1
  Cl  Cl548  1  0.10693936  0.68947997  0.25458181  1
  Cl  Cl549  1  0.61250340  0.02022357  0.24985796  1
  Cl  Cl550  1  0.60507369  0.35256252  0.24881378  1
  Cl  Cl551  1  0.60884345  0.68573977  0.24855739  1
