# generated using pymatgen
data_H8PbC4(N3Cl2)2
_symmetry_space_group_name_H-M   'P 1'
_cell_length_a   16.61911208
_cell_length_b   22.50605193
_cell_length_c   21.58915391
_cell_angle_alpha   90.00096568
_cell_angle_beta   90.00263167
_cell_angle_gamma   90.00551564
_symmetry_Int_Tables_number   1
_chemical_formula_structural   H8PbC4(N3Cl2)2
_chemical_formula_sum   'H192 Pb24 C96 N144 Cl96'
_cell_volume   8075.00413125
_cell_formula_units_Z   24
loop_
 _symmetry_equiv_pos_site_id
 _symmetry_equiv_pos_as_xyz
  1  'x, y, z'
loop_
 _atom_site_type_symbol
 _atom_site_label
 _atom_site_symmetry_multiplicity
 _atom_site_fract_x
 _atom_site_fract_y
 _atom_site_fract_z
 _atom_site_occupancy
  H  H0  1  -0.00853949  0.03134532  0.67703431  1
  H  H1  1  -0.00331845  0.36344899  0.68180666  1
  H  H2  1  0.00072751  0.69685224  0.67990670  1
  H  H3  1  0.50200193  0.03046384  0.68113360  1
  H  H4  1  0.50051568  0.36541598  0.67458054  1
  H  H5  1  0.50340226  0.69887232  0.68101769  1
  H  H6  1  0.00452664  0.30129466  0.17611899  1
  H  H7  1  0.00254345  0.63385255  0.18013378  1
  H  H8  1  -0.00362474  0.96692752  0.17813336  1
  H  H9  1  0.49838355  0.29928522  0.17683771  1
  H  H10  1  0.50415747  0.63423840  0.17888308  1
  H  H11  1  0.50185321  0.96917218  0.18087760  1
  H  H12  1  -0.00141855  0.03183697  0.82047974  1
  H  H13  1  -0.00074987  0.36342758  0.82356818  1
  H  H14  1  0.00684194  0.69877716  0.81869842  1
  H  H15  1  0.50148740  0.03152235  0.82014166  1
  H  H16  1  0.49292903  0.36325893  0.81785654  1
  H  H17  1  0.49032628  0.69745060  0.82294659  1
  H  H18  1  0.00012047  0.30209623  0.32059893  1
  H  H19  1  0.00062528  0.63552014  0.31964476  1
  H  H20  1  -0.00121004  0.96979387  0.32364477  1
  H  H21  1  0.50191089  0.30270539  0.32222471  1
  H  H22  1  0.50634998  0.63600189  0.32070868  1
  H  H23  1  0.50815417  0.96770414  0.32069322  1
  H  H24  1  0.25330818  0.19743851  0.67679927  1
  H  H25  1  0.24796332  0.53080923  0.68187387  1
  H  H26  1  0.24949372  0.86392803  0.67587395  1
  H  H27  1  0.75334781  0.19660765  0.67938008  1
  H  H28  1  0.74298479  0.52860335  0.67796384  1
  H  H29  1  0.74199119  0.86652659  0.68003211  1
  H  H30  1  0.25286670  0.13843420  0.17809781  1
  H  H31  1  0.25897251  0.46741952  0.17934613  1
  H  H32  1  0.24451608  0.80099107  0.18011131  1
  H  H33  1  0.74720722  0.13797467  0.18027494  1
  H  H34  1  0.73967913  0.46873463  0.18159859  1
  H  H35  1  0.75217291  0.80143105  0.17814966  1
  H  H36  1  0.25295013  0.19761764  0.82059334  1
  H  H37  1  0.24413418  0.53075557  0.82301824  1
  H  H38  1  0.26512220  0.86572097  0.82400351  1
  H  H39  1  0.74100470  0.19861136  0.82295384  1
  H  H40  1  0.75120872  0.53149965  0.82075004  1
  H  H41  1  0.73411778  0.86478930  0.82206804  1
  H  H42  1  0.24830859  0.13584027  0.32077403  1
  H  H43  1  0.25454029  0.46913640  0.32120078  1
  H  H44  1  0.25089469  0.80364948  0.32112400  1
  H  H45  1  0.75039704  0.13526006  0.32110920  1
  H  H46  1  0.73807945  0.46546426  0.32214315  1
  H  H47  1  0.74276438  0.80086960  0.31890983  1
  H  H48  1  0.12759859  0.05168281  0.61769468  1
  H  H49  1  0.12466284  0.38632243  0.61411515  1
  H  H50  1  0.11835508  0.72303418  0.60322138  1
  H  H51  1  0.62745415  0.05338470  0.60910500  1
  H  H52  1  0.62539985  0.38646678  0.60668790  1
  H  H53  1  0.61614008  0.72253326  0.60270492  1
  H  H54  1  0.37414703  0.27900810  0.10807825  1
  H  H55  1  0.36739860  0.61761930  0.12083859  1
  H  H56  1  0.37743302  0.94629926  0.11029118  1
  H  H57  1  0.87193574  0.27906871  0.11381078  1
  H  H58  1  0.86364505  0.61480176  0.12348663  1
  H  H59  1  0.88086176  0.94409806  0.10189424  1
  H  H60  1  0.37665112  0.05398028  0.88872522  1
  H  H61  1  0.38158378  0.38783206  0.89858209  1
  H  H62  1  0.37928447  0.72508037  0.90457616  1
  H  H63  1  0.87744261  0.05447089  0.89368364  1
  H  H64  1  0.87985069  0.38883799  0.89806380  1
  H  H65  1  0.87030268  0.71873317  0.87788354  1
  H  H66  1  0.12968422  0.27795790  0.38729579  1
  H  H67  1  0.11567354  0.61255826  0.39733983  1
  H  H68  1  0.11318122  0.94189042  0.40027109  1
  H  H69  1  0.62978516  0.28210110  0.38967934  1
  H  H70  1  0.61474146  0.60624989  0.40296193  1
  H  H71  1  0.61101349  0.94418147  0.40524979  1
  H  H72  1  0.37160277  0.22476719  0.60227207  1
  H  H73  1  0.38104442  0.54870425  0.62073915  1
  H  H74  1  0.38274312  0.88935269  0.61536355  1
  H  H75  1  0.86911080  0.22076298  0.60214035  1
  H  H76  1  0.88138752  0.55075313  0.62247166  1
  H  H77  1  0.88336671  0.88304022  0.62816100  1
  H  H78  1  0.12341126  0.11368629  0.11258047  1
  H  H79  1  0.12023680  0.44726952  0.12312767  1
  H  H80  1  0.13169083  0.77579090  0.09892917  1
  H  H81  1  0.62233579  0.11547780  0.11058886  1
  H  H82  1  0.62351584  0.44390273  0.10427746  1
  H  H83  1  0.62581718  0.77851015  0.10866877  1
  H  H84  1  0.12808852  0.22264089  0.89205729  1
  H  H85  1  0.13941034  0.56081432  0.90660315  1
  H  H86  1  0.12228326  0.88078661  0.87466322  1
  H  H87  1  0.63029248  0.22446039  0.90410203  1
  H  H88  1  0.63644760  0.55766226  0.89878688  1
  H  H89  1  0.63155388  0.89279135  0.90873494  1
  H  H90  1  0.36975125  0.11163614  0.39424130  1
  H  H91  1  0.37421394  0.44470373  0.39652541  1
  H  H92  1  0.38182431  0.77979673  0.38528472  1
  H  H93  1  0.87322828  0.11028522  0.39192232  1
  H  H94  1  0.87167913  0.44879468  0.38121828  1
  H  H95  1  0.88368355  0.78565383  0.37291795  1
  H  H96  1  0.38125967  0.27840803  0.39678995  1
  H  H97  1  0.36790774  0.61570882  0.37669748  1
  H  H98  1  0.36633729  0.94996082  0.37054024  1
  H  H99  1  0.88156195  0.27845716  0.39717148  1
  H  H100  1  0.86712906  0.61264070  0.38191889  1
  H  H101  1  0.86530030  0.94786749  0.38519631  1
  H  H102  1  0.12731551  0.05372021  0.88757404  1
  H  H103  1  0.12866466  0.38604506  0.88812897  1
  H  H104  1  0.11845914  0.72336993  0.89902918  1
  H  H105  1  0.62628132  0.05373550  0.88874594  1
  H  H106  1  0.62913268  0.38269577  0.87897127  1
  H  H107  1  0.62561030  0.71775671  0.88087645  1
  H  H108  1  0.12030046  0.27559712  0.09995784  1
  H  H109  1  0.11108271  0.60821791  0.09790992  1
  H  H110  1  0.12934570  0.94807765  0.11602049  1
  H  H111  1  0.62305119  0.27890917  0.10870794  1
  H  H112  1  0.61486342  0.61094656  0.09972207  1
  H  H113  1  0.62578812  0.94524223  0.11021744  1
  H  H114  1  0.37778966  0.05419629  0.61012580  1
  H  H115  1  0.37659779  0.38623803  0.60570311  1
  H  H116  1  0.36794410  0.71769266  0.62272219  1
  H  H117  1  0.88040169  0.05809930  0.59689691  1
  H  H118  1  0.87548435  0.38662289  0.60813753  1
  H  H119  1  0.87003685  0.72044752  0.61637143  1
  H  H120  1  0.12112507  0.11157889  0.38946218  1
  H  H121  1  0.12562233  0.44567558  0.38842223  1
  H  H122  1  0.13310051  0.77805467  0.39731434  1
  H  H123  1  0.62429186  0.11267176  0.39101048  1
  H  H124  1  0.62474638  0.44422778  0.39990598  1
  H  H125  1  0.63701738  0.77720518  0.40236212  1
  H  H126  1  0.37700250  0.22128761  0.89356675  1
  H  H127  1  0.38423101  0.54939448  0.87744883  1
  H  H128  1  0.36492229  0.89514289  0.91160651  1
  H  H129  1  0.87733974  0.21891315  0.88176482  1
  H  H130  1  0.88436055  0.55202234  0.88288164  1
  H  H131  1  0.87538455  0.88368793  0.87218297  1
  H  H132  1  0.37194530  0.11291593  0.10432037  1
  H  H133  1  0.36727954  0.44117322  0.09755408  1
  H  H134  1  0.37878702  0.78041114  0.11838041  1
  H  H135  1  0.87127700  0.11205707  0.10884580  1
  H  H136  1  0.87184333  0.44668995  0.11737563  1
  H  H137  1  0.87357494  0.77830510  0.10473820  1
  H  H138  1  0.12291963  0.21927125  0.61318222  1
  H  H139  1  0.13278188  0.55623038  0.60572698  1
  H  H140  1  0.13524194  0.88821374  0.59618775  1
  H  H141  1  0.62012244  0.22018141  0.61717953  1
  H  H142  1  0.63665631  0.55460109  0.59222425  1
  H  H143  1  0.63800167  0.89119892  0.59672510  1
  H  H144  1  0.93520281  0.41716466  1.00123169  1
  H  H145  1  0.36695159  0.58447750  0.98695181  1
  H  H146  1  0.16996646  0.41741185  0.49403165  1
  H  H147  1  0.67020258  0.74952539  0.00382571  1
  H  H148  1  0.58502290  0.08746024  0.99813075  1
  H  H149  1  0.53659375  0.91717006  0.51035121  1
  H  H150  1  0.89502931  0.91666177  0.49451093  1
  H  H151  1  0.71117231  0.91618058  1.00732457  1
  H  H152  1  0.54196840  0.57800488  0.50309292  1
  H  H153  1  0.71347145  0.57854143  0.49266697  1
  H  H154  1  0.71068208  0.91799699  0.49077632  1
  H  H155  1  0.41841212  0.08677833  0.99814633  1
  H  H156  1  0.68353769  0.41422720  -0.00144905  1
  H  H157  1  0.05354746  0.75156550  1.00536114  1
  H  H158  1  0.89855561  0.74850348  0.98484519  1
  H  H159  1  0.35472049  0.91504361  0.50442252  1
  H  H160  1  0.29811010  0.41233489  -0.00762337  1
  H  H161  1  0.08951657  0.25214870  0.49311129  1
  H  H162  1  0.65259200  0.24868450  0.51025765  1
  H  H163  1  0.28131268  0.90839931  1.01026150  1
  H  H164  1  0.93473608  0.91758520  -0.00695005  1
  H  H165  1  0.39135747  0.74603295  0.50920044  1
  H  H166  1  0.44928600  0.41201074  1.00508597  1
  H  H167  1  0.55063396  0.58390098  -0.00853288  1
  H  H168  1  0.08697291  0.08290268  0.99304592  1
  H  H169  1  0.19224596  0.58400552  0.49655468  1
  H  H170  1  0.92812336  0.08365208  1.00241916  1
  H  H171  1  0.81025754  0.25162902  0.49522922  1
  H  H172  1  0.42775629  0.08369175  0.50170150  1
  H  H173  1  0.55404982  0.75084245  0.49466655  1
  H  H174  1  0.57214155  0.93645391  0.00327975  1
  H  H175  1  0.92724049  0.41594161  0.50061762  1
  H  H176  1  0.21710449  0.57798570  1.00737761  1
  H  H177  1  0.04244627  0.58160351  -0.00755954  1
  H  H178  1  0.13402278  0.91513769  0.98392644  1
  H  H179  1  0.88554850  0.58699732  0.01340331  1
  H  H180  1  0.05442302  0.58742570  0.50675466  1
  H  H181  1  0.14220033  0.41853136  0.01422122  1
  H  H182  1  0.20226731  0.92546811  0.49882953  1
  H  H183  1  0.35349918  0.57830211  0.50774928  1
  H  H184  1  0.70823057  0.75228568  0.50868633  1
  H  H185  1  0.89975735  0.58542302  0.48923367  1
  H  H186  1  0.90726279  0.25022180  0.00609739  1
  H  H187  1  0.90397873  0.75220297  0.50568034  1
  H  H188  1  0.43082555  0.90426102  0.01231983  1
  H  H189  1  0.20149630  0.75207938  -0.00309839  1
  H  H190  1  0.31402523  0.25365536  0.49940515  1
  H  H191  1  0.16702128  0.08415496  0.49464284  1
  Pb  Pb192  1  0.24867353  0.04921230  0.74734444  1
  Pb  Pb193  1  0.25677602  0.38175278  0.75126636  1
  Pb  Pb194  1  0.25030687  0.71270209  0.75812017  1
  Pb  Pb195  1  0.75242908  0.04590920  0.74833726  1
  Pb  Pb196  1  0.75302069  0.37879875  0.75168051  1
  Pb  Pb197  1  0.75107352  0.71650077  0.74914105  1
  Pb  Pb198  1  0.24886166  0.28685062  0.25358356  1
  Pb  Pb199  1  0.24491989  0.62095728  0.24663659  1
  Pb  Pb200  1  0.24589913  0.95263331  0.25065396  1
  Pb  Pb201  1  0.74875139  0.28785594  0.25483274  1
  Pb  Pb202  1  0.74274054  0.61759551  0.25579060  1
  Pb  Pb203  1  0.74794671  0.95507823  0.24713983  1
  Pb  Pb204  1  0.00096307  0.21402510  0.74918147  1
  Pb  Pb205  1  0.00334655  0.54604892  0.75203814  1
  Pb  Pb206  1  0.00570001  0.88076599  0.74339595  1
  Pb  Pb207  1  0.50212440  0.21275537  0.75167071  1
  Pb  Pb208  1  0.50933025  0.54851888  0.74456725  1
  Pb  Pb209  1  0.49665336  0.88254478  0.75823966  1
  Pb  Pb210  1  -0.00166143  0.12058524  0.24613719  1
  Pb  Pb211  1  -0.00155755  0.45298814  0.24921084  1
  Pb  Pb212  1  -0.00396922  0.78584197  0.24384440  1
  Pb  Pb213  1  0.49803276  0.12146089  0.25044429  1
  Pb  Pb214  1  0.49405874  0.45206087  0.24619784  1
  Pb  Pb215  1  0.50000554  0.78703698  0.25361877  1
  C  C216  1  0.00019493  0.04689095  0.63016709  1
  C  C217  1  -0.00091395  0.37902891  0.63432340  1
  C  C218  1  -0.00360760  0.71306329  0.63278596  1
  C  C219  1  0.50257221  0.04596041  0.63358091  1
  C  C220  1  0.50081084  0.37982704  0.62664421  1
  C  C221  1  0.49540011  0.71324315  0.63334625  1
  C  C222  1  -0.00153772  0.28589117  0.12879322  1
  C  C223  1  -0.00833502  0.61930904  0.13279559  1
  C  C224  1  0.00188055  0.95325717  0.13015864  1
  C  C225  1  0.49852755  0.28537031  0.12869874  1
  C  C226  1  0.49553507  0.62094062  0.13103659  1
  C  C227  1  0.50170451  0.95383714  0.13308225  1
  C  C228  1  0.00152786  0.04769406  0.86803424  1
  C  C229  1  0.00229063  0.37965256  0.87081383  1
  C  C230  1  -0.00215486  0.71347410  0.86619040  1
  C  C231  1  0.50147197  0.04706622  0.86781577  1
  C  C232  1  0.50148285  0.37769427  0.86538005  1
  C  C233  1  0.49815130  0.71315000  0.86987229  1
  C  C234  1  0.00419664  0.28641786  0.36802863  1
  C  C235  1  -0.00619891  0.62057752  0.36726184  1
  C  C236  1  -0.00813398  0.95379326  0.37063757  1
  C  C237  1  0.50409055  0.28801244  0.36983563  1
  C  C238  1  0.49670482  0.62040847  0.36769562  1
  C  C239  1  0.49498074  0.95383467  0.36781680  1
  C  C240  1  0.24958608  0.21341994  0.62956770  1
  C  C241  1  0.25430357  0.54539332  0.63411375  1
  C  C242  1  0.25601395  0.87982723  0.62848451  1
  C  C243  1  0.74703196  0.21227468  0.63196493  1
  C  C244  1  0.75360937  0.54349312  0.63083063  1
  C  C245  1  0.75452895  0.87981037  0.63260015  1
  C  C246  1  0.24905017  0.12158402  0.13135389  1
  C  C247  1  0.24804506  0.45239496  0.13214095  1
  C  C248  1  0.25128047  0.78599335  0.13266608  1
  C  C249  1  0.74728470  0.12160716  0.13326948  1
  C  C250  1  0.74526194  0.45371252  0.13404651  1
  C  C251  1  0.75028919  0.78573993  0.13062904  1
  C  C252  1  0.25270942  0.21329577  0.86811911  1
  C  C253  1  0.25630797  0.54679897  0.86973940  1
  C  C254  1  0.25057354  0.88035131  0.87078747  1
  C  C255  1  0.74991653  0.21347193  0.87002250  1
  C  C256  1  0.75734868  0.54696061  0.86795437  1
  C  C257  1  0.74672077  0.87934201  0.86891467  1
  C  C258  1  0.24593262  0.11982748  0.36812796  1
  C  C259  1  0.25112969  0.45306329  0.36855663  1
  C  C260  1  0.25513781  0.78730174  0.36808230  1
  C  C261  1  0.74906394  0.11944828  0.36832597  1
  C  C262  1  0.74516203  0.45256910  0.37009506  1
  C  C263  1  0.75427912  0.78788113  0.36646605  1
  C  C264  1  0.51783857  0.59559584  0.03338125  1
  C  C265  1  0.78463340  0.08973035  0.46045744  1
  C  C266  1  0.54176200  0.40599627  0.53469963  1
  C  C267  1  0.73987612  0.90602307  0.53424122  1
  C  C268  1  0.02074835  0.92282817  0.46573540  1
  C  C269  1  0.19917947  0.24238117  0.53921240  1
  C  C270  1  0.02960300  0.25578438  0.03367921  1
  C  C271  1  0.05115804  0.40658884  0.96235581  1
  C  C272  1  0.30094257  0.75830513  0.45817265  1
  C  C273  1  0.02263495  0.74030656  0.96247218  1
  C  C274  1  0.73813290  0.76285668  0.46527500  1
  C  C275  1  0.26890923  0.42378226  0.03594890  1
  C  C276  1  0.05456056  0.93012686  0.03919479  1
  C  C277  1  0.96551560  0.07402270  0.96236924  1
  C  C278  1  0.81805685  0.76609633  0.45315445  1
  C  C279  1  0.30749709  0.56949550  0.54342043  1
  C  C280  1  0.48006499  0.40288724  0.96153767  1
  C  C281  1  0.81993619  0.90268162  0.54667362  1
  C  C282  1  0.80597020  0.57340283  0.95791677  1
  C  C283  1  0.71835827  0.42752531  0.46581763  1
  C  C284  1  0.95046747  0.74118787  0.54256768  1
  C  C285  1  0.55196764  0.74014014  0.95822401  1
  C  C286  1  0.79926327  0.42919625  0.45951914  1
  C  C287  1  0.46622379  0.07283065  0.54079615  1
  C  C288  1  0.42778933  0.92946811  0.45293183  1
  C  C289  1  0.96606871  0.40562498  0.54049557  1
  C  C290  1  0.54711303  0.26131864  0.46181075  1
  C  C291  1  0.46111146  0.40586375  0.53437878  1
  C  C292  1  0.28103147  0.09081524  0.03816070  1
  C  C293  1  0.22569860  0.57228941  0.53808720  1
  C  C294  1  0.97325678  0.92809901  0.03298585  1
  C  C295  1  0.01272765  0.59245720  0.03603284  1
  C  C296  1  0.54271342  0.07563189  0.96086736  1
  C  C297  1  0.97805005  0.07771850  0.53534481  1
  C  C298  1  0.43675016  0.59913888  0.04168848  1
  C  C299  1  0.52131793  0.73959950  0.53669962  1
  C  C300  1  0.43597372  0.59197769  0.45401382  1
  C  C301  1  0.50801606  0.92765143  0.46621154  1
  C  C302  1  0.43951044  0.73744803  0.54371988  1
  C  C303  1  0.71825256  0.42603914  0.03939043  1
  C  C304  1  0.45867019  0.26024090  0.03633355  1
  C  C305  1  0.70798969  0.09310571  0.04093272  1
  C  C306  1  0.53916169  0.26027532  0.03647347  1
  C  C307  1  0.46031236  0.07551413  0.96085972  1
  C  C308  1  0.72840210  0.24252670  0.96553924  1
  C  C309  1  0.81401129  0.90686475  0.95328901  1
  C  C310  1  0.02266088  0.59550056  0.46343677  1
  C  C311  1  0.77664350  0.24038129  0.53685241  1
  N  N312  1  0.80552979  0.24044366  0.95943761  1
  N  N313  1  0.04564099  0.40599005  0.54174240  1
  N  N314  1  0.26112564  0.91277080  0.96517113  1
  N  N315  1  0.04521797  0.07429652  0.95898153  1
  N  N316  1  0.20297123  0.09068987  0.04002512  1
  N  N317  1  0.70732944  0.09062068  0.46147794  1
  N  N318  1  0.78574078  0.09115597  0.03955141  1
  N  N319  1  0.31725787  0.56908742  0.95540439  1
  N  N320  1  0.19028393  0.42576026  0.04592575  1
  N  N321  1  0.27847974  0.24386584  0.53662608  1
  N  N322  1  0.72867773  0.57602631  0.96425647  1
  N  N323  1  0.96921178  0.25961269  0.46265713  1
  N  N324  1  0.24009595  0.58121862  0.96283095  1
  N  N325  1  0.54154459  0.92414186  0.04240381  1
  N  N326  1  0.30707561  0.76219863  0.04331589  1
  N  N327  1  0.46171255  0.93350451  0.03982991  1
  N  N328  1  0.05530709  0.07535503  0.54082818  1
  N  N329  1  0.55888755  0.40216199  0.95469811  1
  N  N330  1  0.18464894  0.90016277  0.95479624  1
  N  N331  1  0.28478849  0.09245004  0.46161848  1
  N  N332  1  0.46941184  0.25981845  0.46523974  1
  N  N333  1  0.21403303  0.24197316  0.96101600  1
  N  N334  1  0.73826411  0.57236242  0.53642681  1
  N  N335  1  0.79745894  0.42661035  0.04337224  1
  N  N336  1  0.02943188  0.74150395  0.53730065  1
  N  N337  1  0.30780678  0.91026637  0.54180493  1
  N  N338  1  0.23044369  0.90050350  0.53231203  1
  N  N339  1  0.94230726  0.92573373  0.45958117  1
  N  N340  1  0.22942937  0.76060377  0.03832737  1
  N  N341  1  0.93405001  0.59465642  0.04585250  1
  N  N342  1  0.22367436  0.75719248  0.46354835  1
  N  N343  1  0.78961772  0.75966177  0.03673187  1
  N  N344  1  0.95074817  0.25813679  0.03947289  1
  N  N345  1  0.97188433  0.40822093  0.96427423  1
  N  N346  1  0.81533676  0.57030594  0.54513967  1
  N  N347  1  0.69732822  0.24030680  0.54335537  1
  N  N348  1  0.71071088  0.75979568  0.03930335  1
  N  N349  1  0.28749773  0.42640897  0.46298752  1
  N  N350  1  0.20943064  0.42649260  0.45864445  1
  N  N351  1  0.20635651  0.09177249  0.45838390  1
  N  N352  1  0.54546515  0.07212719  0.53994050  1
  N  N353  1  0.51394947  0.58925630  0.46212168  1
  N  N354  1  0.04753090  0.25905452  0.45764479  1
  N  N355  1  0.94373025  0.73836753  0.95411424  1
  N  N356  1  0.73624948  0.90878226  0.96439724  1
  N  N357  1  0.47502910  0.74297326  0.96687250  1
  N  N358  1  0.29016689  0.24139400  0.96150759  1
  N  N359  1  0.94358125  0.59485159  0.45632165  1
  N  N360  1  0.06904480  0.05606507  0.60137742  1
  N  N361  1  0.06429195  0.38946816  0.60095741  1
  N  N362  1  0.05649916  0.72388627  0.59409109  1
  N  N363  1  0.56642643  0.05562344  0.59807312  1
  N  N364  1  0.56629859  0.39039681  0.59111464  1
  N  N365  1  0.55479529  0.72449959  0.59276513  1
  N  N366  1  0.43328247  0.27533797  0.09259868  1
  N  N367  1  0.42400195  0.61425479  0.10146879  1
  N  N368  1  0.43799419  0.94043968  0.09922192  1
  N  N369  1  0.93101949  0.27721396  0.09789701  1
  N  N370  1  0.92153077  0.61144511  0.10530758  1
  N  N371  1  0.94162317  0.94284857  0.09108003  1
  N  N372  1  0.43635498  0.05776270  0.90264716  1
  N  N373  1  0.44334566  0.38855650  0.90693477  1
  N  N374  1  0.44127656  0.72576290  0.91054373  1
  N  N375  1  0.93819106  0.05805508  0.90567831  1
  N  N376  1  0.94133108  0.39136436  0.90783911  1
  N  N377  1  0.92877760  0.72237802  0.89481493  1
  N  N378  1  0.06992605  0.27613151  0.40074861  1
  N  N379  1  0.05429700  0.61110170  0.40803888  1
  N  N380  1  0.05184181  0.94023659  0.41080522  1
  N  N381  1  0.57056723  0.27829555  0.40382708  1
  N  N382  1  0.55248864  0.60858736  0.40944452  1
  N  N383  1  0.54895946  0.94301603  0.41200078  1
  N  N384  1  0.31018703  0.22487270  0.59208567  1
  N  N385  1  0.32358836  0.55298988  0.60339062  1
  N  N386  1  0.32439935  0.88923244  0.59836624  1
  N  N387  1  0.80790126  0.22345831  0.59200662  1
  N  N388  1  0.82432456  0.55421125  0.60437532  1
  N  N389  1  0.82811771  0.88701102  0.60662241  1
  N  N390  1  0.18334986  0.10990871  0.09936045  1
  N  N391  1  0.17793312  0.44398381  0.10494298  1
  N  N392  1  0.19351057  0.77603629  0.09181940  1
  N  N393  1  0.68217667  0.11115202  0.09759817  1
  N  N394  1  0.68468765  0.44266134  0.09454736  1
  N  N395  1  0.68613820  0.77517935  0.09625554  1
  N  N396  1  0.18916138  0.22483221  0.90311974  1
  N  N397  1  0.20178349  0.55793191  0.91308075  1
  N  N398  1  0.17810479  0.88921114  0.89425978  1
  N  N399  1  0.69204237  0.22619273  0.91189927  1
  N  N400  1  0.69844494  0.55910451  0.90687505  1
  N  N401  1  0.69362856  0.88959718  0.91321616  1
  N  N402  1  0.30861707  0.10876047  0.40480562  1
  N  N403  1  0.31288386  0.44220752  0.40630226  1
  N  N404  1  0.32292403  0.77612828  0.40024711  1
  N  N405  1  0.81319713  0.10717596  0.40444924  1
  N  N406  1  0.81506915  0.44428613  0.40079905  1
  N  N407  1  0.82747336  0.78090796  0.39334888  1
  N  N408  1  0.44264793  0.27719388  0.40676186  1
  N  N409  1  0.42469348  0.61068511  0.39542269  1
  N  N410  1  0.42097300  0.94523499  0.39274909  1
  N  N411  1  0.94304106  0.27589251  0.40634294  1
  N  N412  1  0.92603772  0.61036196  0.39720745  1
  N  N413  1  0.92402539  0.94505686  0.40101728  1
  N  N414  1  0.06713838  0.05820595  0.90086871  1
  N  N415  1  0.07007847  0.38971193  0.90412291  1
  N  N416  1  0.05662996  0.72446956  0.90793188  1
  N  N417  1  0.56659736  0.05796216  0.90255451  1
  N  N418  1  0.57029764  0.38636223  0.89486388  1
  N  N419  1  0.56839373  0.72245158  0.89918730  1
  N  N420  1  0.05943042  0.27287650  0.08891872  1
  N  N421  1  0.04887165  0.60768969  0.08998361  1
  N  N422  1  0.07133550  0.94507961  0.09837110  1
  N  N423  1  0.56396260  0.27545096  0.09290364  1
  N  N424  1  0.55341111  0.60943064  0.09015674  1
  N  N425  1  0.56558495  0.94807605  0.09693791  1
  N  N426  1  0.43821566  0.05711605  0.59793509  1
  N  N427  1  0.43575428  0.39019340  0.59046277  1
  N  N428  1  0.42529876  0.72125923  0.60411755  1
  N  N429  1  0.94206865  0.06033643  0.58871297  1
  N  N430  1  0.93636577  0.38950426  0.59689935  1
  N  N431  1  0.92887319  0.72416579  0.60102382  1
  N  N432  1  0.18147378  0.10942285  0.40225893  1
  N  N433  1  0.18575936  0.44281067  0.40174884  1
  N  N434  1  0.19490876  0.77578945  0.40606205  1
  N  N435  1  0.68482859  0.10930449  0.40277273  1
  N  N436  1  0.68560738  0.44162546  0.41112865  1
  N  N437  1  0.69905208  0.77682500  0.40971323  1
  N  N438  1  0.31585977  0.22351944  0.90408835  1
  N  N439  1  0.32737506  0.55663002  0.89543713  1
  N  N440  1  0.30274470  0.89078694  0.91607033  1
  N  N441  1  0.81895392  0.22214550  0.89863611  1
  N  N442  1  0.82628674  0.55616429  0.89915807  1
  N  N443  1  0.82034805  0.88924286  0.89389293  1
  N  N444  1  0.31123055  0.10922612  0.09330331  1
  N  N445  1  0.30525176  0.44021398  0.08940163  1
  N  N446  1  0.32009464  0.77675237  0.10265755  1
  N  N447  1  0.81023445  0.10895318  0.09846647  1
  N  N448  1  0.81227457  0.44371006  0.10267515  1
  N  N449  1  0.81302618  0.77568440  0.09390359  1
  N  N450  1  0.18134523  0.22404908  0.59694272  1
  N  N451  1  0.19389068  0.55720993  0.59483019  1
  N  N452  1  0.19741926  0.89123711  0.58872820  1
  N  N453  1  0.67949662  0.22241214  0.60161247  1
  N  N454  1  0.69937681  0.55322325  0.58720259  1
  N  N455  1  0.69980917  0.89111969  0.58904316  1
  Cl  Cl456  1  0.25243736  0.05231368  0.61328975  1
  Cl  Cl457  1  0.24863501  0.38466447  0.61861808  1
  Cl  Cl458  1  0.24054326  0.72122558  0.62801995  1
  Cl  Cl459  1  0.75513585  0.05359411  0.61621927  1
  Cl  Cl460  1  0.75171374  0.38354974  0.61999704  1
  Cl  Cl461  1  0.74118868  0.71869398  0.61573886  1
  Cl  Cl462  1  0.24521979  0.28306582  0.12338946  1
  Cl  Cl463  1  0.23386710  0.60580154  0.10603555  1
  Cl  Cl464  1  0.25743715  0.94060967  0.10921463  1
  Cl  Cl465  1  0.74877655  0.27949693  0.12392881  1
  Cl  Cl466  1  0.73927687  0.61600695  0.12475759  1
  Cl  Cl467  1  0.74784140  0.93924218  0.10674851  1
  Cl  Cl468  1  0.25039384  0.04874946  0.87963093  1
  Cl  Cl469  1  0.25617270  0.39259960  0.88856380  1
  Cl  Cl470  1  0.24331797  0.72548712  0.89658347  1
  Cl  Cl471  1  0.75318134  0.04769406  0.88021293  1
  Cl  Cl472  1  0.75659025  0.38605819  0.88568417  1
  Cl  Cl473  1  0.74797073  0.72179036  0.88350821  1
  Cl  Cl474  1  0.25501486  0.27582372  0.39277128  1
  Cl  Cl475  1  0.23863315  0.61188527  0.37942166  1
  Cl  Cl476  1  0.23447187  0.94358754  0.38780439  1
  Cl  Cl477  1  0.75691111  0.27884833  0.39151377  1
  Cl  Cl478  1  0.73700711  0.60501773  0.39840172  1
  Cl  Cl479  1  0.73762532  0.94565476  0.38150160  1
  Cl  Cl480  1  -0.00297951  0.21889797  0.61695229  1
  Cl  Cl481  1  0.00902798  0.55703413  0.61697789  1
  Cl  Cl482  1  0.01399991  0.89086755  0.61018745  1
  Cl  Cl483  1  0.49573230  0.22263608  0.61868544  1
  Cl  Cl484  1  0.51767792  0.55695320  0.60287314  1
  Cl  Cl485  1  0.50975156  0.89038429  0.62284847  1
  Cl  Cl486  1  -0.00188549  0.11273989  0.10934691  1
  Cl  Cl487  1  -0.00398568  0.44476357  0.11191009  1
  Cl  Cl488  1  0.00431368  0.77565772  0.10650185  1
  Cl  Cl489  1  0.49742820  0.11340442  0.11553369  1
  Cl  Cl490  1  0.49234807  0.44249697  0.11087251  1
  Cl  Cl491  1  0.50373764  0.78407131  0.12147845  1
  Cl  Cl492  1  0.00425935  0.22178552  0.88517271  1
  Cl  Cl493  1  0.01676803  0.55578060  0.89024419  1
  Cl  Cl494  1  -0.00063607  0.88174274  0.87631995  1
  Cl  Cl495  1  0.50364854  0.22140489  0.88420510  1
  Cl  Cl496  1  0.51198852  0.55271385  0.87880359  1
  Cl  Cl497  1  0.49673415  0.89505917  0.90309430  1
  Cl  Cl498  1  -0.00128864  0.11284900  0.37838527  1
  Cl  Cl499  1  0.00267695  0.44816354  0.38135826  1
  Cl  Cl500  1  0.01095984  0.78462468  0.37483984  1
  Cl  Cl501  1  0.49412106  0.11349900  0.38339845  1
  Cl  Cl502  1  0.49705173  0.45045398  0.37934415  1
  Cl  Cl503  1  0.51037063  0.77650867  0.38783203  1
  Cl  Cl504  1  0.36382495  0.14520558  0.74999585  1
  Cl  Cl505  1  0.36000759  0.47958328  0.75180001  1
  Cl  Cl506  1  0.36073293  0.81459230  0.75087057  1
  Cl  Cl507  1  0.86236989  0.14718952  0.75469492  1
  Cl  Cl508  1  0.86543772  0.47969256  0.74701649  1
  Cl  Cl509  1  0.86547709  0.81024359  0.75003081  1
  Cl  Cl510  1  0.13552718  0.18782328  0.25132325  1
  Cl  Cl511  1  0.13542846  0.51943715  0.24517385  1
  Cl  Cl512  1  0.14467486  0.85410055  0.24493574  1
  Cl  Cl513  1  0.63899906  0.18617043  0.25467139  1
  Cl  Cl514  1  0.64415334  0.51965044  0.25299630  1
  Cl  Cl515  1  0.63870438  0.85268305  0.24406549  1
  Cl  Cl516  1  0.14096470  0.14412122  0.74708293  1
  Cl  Cl517  1  0.14163856  0.48079031  0.75230482  1
  Cl  Cl518  1  0.14060323  0.81437095  0.75619494  1
  Cl  Cl519  1  0.63910340  0.14496613  0.74774645  1
  Cl  Cl520  1  0.64428102  0.48142538  0.75195524  1
  Cl  Cl521  1  0.64488475  0.81306523  0.75090863  1
  Cl  Cl522  1  0.35712711  0.18569909  0.25262002  1
  Cl  Cl523  1  0.35633234  0.51984339  0.24823910  1
  Cl  Cl524  1  0.36407152  0.85597573  0.24909944  1
  Cl  Cl525  1  0.86253435  0.18827681  0.24974333  1
  Cl  Cl526  1  0.86597160  0.52425131  0.25069951  1
  Cl  Cl527  1  0.86074562  0.85439845  0.25019913  1
  Cl  Cl528  1  0.10898970  0.31259020  0.75057234  1
  Cl  Cl529  1  0.10989694  0.64901037  0.75301753  1
  Cl  Cl530  1  0.11172918  0.97967577  0.75025152  1
  Cl  Cl531  1  0.61338027  0.31390276  0.74932430  1
  Cl  Cl532  1  0.60822613  0.64696055  0.75097569  1
  Cl  Cl533  1  0.61357621  0.97992623  0.75434182  1
  Cl  Cl534  1  0.38673346  0.02011010  0.25295512  1
  Cl  Cl535  1  0.38817273  0.35405332  0.25136915  1
  Cl  Cl536  1  0.38507725  0.68726516  0.24684093  1
  Cl  Cl537  1  0.88937992  0.01855480  0.24772065  1
  Cl  Cl538  1  0.88764685  0.35376279  0.24873116  1
  Cl  Cl539  1  0.88877258  0.69043086  0.25231857  1
  Cl  Cl540  1  0.39042374  0.31371905  0.74778917  1
  Cl  Cl541  1  0.38799605  0.64417423  0.74911027  1
  Cl  Cl542  1  0.39244361  0.97595353  0.75164343  1
  Cl  Cl543  1  0.89006702  0.31182561  0.75407080  1
  Cl  Cl544  1  0.88817580  0.64452393  0.75303613  1
  Cl  Cl545  1  0.89014043  0.97724351  0.74784508  1
  Cl  Cl546  1  0.11096369  0.02000960  0.24587673  1
  Cl  Cl547  1  0.10976215  0.35353599  0.25001102  1
  Cl  Cl548  1  0.10665360  0.68475850  0.24516396  1
  Cl  Cl549  1  0.60719375  0.01870253  0.24739378  1
  Cl  Cl550  1  0.61068118  0.35406335  0.24810651  1
  Cl  Cl551  1  0.60718804  0.68420882  0.25120226  1
