# generated using pymatgen
data_H8PbC4(N3Cl2)2
_symmetry_space_group_name_H-M   'P 1'
_cell_length_a   16.63162134
_cell_length_b   22.52160333
_cell_length_c   21.59541076
_cell_angle_alpha   89.99735410
_cell_angle_beta   89.96808080
_cell_angle_gamma   90.01097586
_symmetry_Int_Tables_number   1
_chemical_formula_structural   H8PbC4(N3Cl2)2
_chemical_formula_sum   'H192 Pb24 C96 N144 Cl96'
_cell_volume   8089.00841254
_cell_formula_units_Z   24
loop_
 _symmetry_equiv_pos_site_id
 _symmetry_equiv_pos_as_xyz
  1  'x, y, z'
loop_
 _atom_site_type_symbol
 _atom_site_label
 _atom_site_symmetry_multiplicity
 _atom_site_fract_x
 _atom_site_fract_y
 _atom_site_fract_z
 _atom_site_occupancy
  H  H0  1  0.01884431  0.02505341  0.67399681  1
  H  H1  1  0.00684364  0.36274913  0.67802139  1
  H  H2  1  0.02453757  0.70526051  0.65737642  1
  H  H3  1  0.47898810  0.02845273  0.67518112  1
  H  H4  1  0.49055699  0.36622506  0.67680116  1
  H  H5  1  0.49384908  0.69460883  0.67579098  1
  H  H6  1  -0.01641887  0.30858560  0.17700073  1
  H  H7  1  -0.00841418  0.63639975  0.17193822  1
  H  H8  1  -0.00778066  0.97489333  0.18128016  1
  H  H9  1  0.51372873  0.30276608  0.17781346  1
  H  H10  1  0.50963467  0.63517613  0.18127767  1
  H  H11  1  0.50584063  0.96930718  0.17809071  1
  H  H12  1  -0.00961537  0.03024737  0.82250187  1
  H  H13  1  -0.00081430  0.36246637  0.82608381  1
  H  H14  1  -0.00390832  0.69102495  0.82643765  1
  H  H15  1  0.50020960  0.02734964  0.81970708  1
  H  H16  1  0.49633581  0.35707352  0.82276186  1
  H  H17  1  0.51093959  0.69667050  0.82523339  1
  H  H18  1  -0.02110592  0.30253861  0.32369841  1
  H  H19  1  -0.00818703  0.63538096  0.31611317  1
  H  H20  1  -0.01742023  0.97208793  0.32408994  1
  H  H21  1  0.50924056  0.30546885  0.32287358  1
  H  H22  1  0.49246653  0.63583150  0.32392080  1
  H  H23  1  0.51580712  0.96948585  0.32180248  1
  H  H24  1  0.24637654  0.19711187  0.67798187  1
  H  H25  1  0.23504709  0.52173668  0.67415118  1
  H  H26  1  0.25170913  0.86865080  0.67729467  1
  H  H27  1  0.74700179  0.18960002  0.67452577  1
  H  H28  1  0.77056831  0.53063501  0.68090640  1
  H  H29  1  0.75454157  0.86248872  0.67999714  1
  H  H30  1  0.24188580  0.14056852  0.18051444  1
  H  H31  1  0.26257174  0.47323103  0.17760326  1
  H  H32  1  0.24658863  0.80279109  0.17574144  1
  H  H33  1  0.75409776  0.14014176  0.18218130  1
  H  H34  1  0.72846163  0.46956672  0.17594332  1
  H  H35  1  0.74288150  0.80449793  0.17962631  1
  H  H36  1  0.25111292  0.19454741  0.81849658  1
  H  H37  1  0.24553288  0.53016965  0.82081190  1
  H  H38  1  0.23307856  0.85818854  0.82410415  1
  H  H39  1  0.74866425  0.19617684  0.82141119  1
  H  H40  1  0.74664796  0.52791888  0.82017918  1
  H  H41  1  0.76261001  0.86604928  0.82071865  1
  H  H42  1  0.24508857  0.14048586  0.31901215  1
  H  H43  1  0.24032005  0.47210873  0.32463512  1
  H  H44  1  0.22568324  0.80068570  0.34352670  1
  H  H45  1  0.75849037  0.13604484  0.32359944  1
  H  H46  1  0.76027608  0.46971454  0.32176248  1
  H  H47  1  0.74829087  0.80630261  0.32406234  1
  H  H48  1  0.11935365  0.05776440  0.58656893  1
  H  H49  1  0.14002820  0.38469392  0.61660230  1
  H  H50  1  0.16222437  0.72485292  0.60351574  1
  H  H51  1  0.62360793  0.04750565  0.63107006  1
  H  H52  1  0.62684375  0.38300802  0.62221728  1
  H  H53  1  0.63486287  0.71713336  0.62460975  1
  H  H54  1  0.38235638  0.28260458  0.11710663  1
  H  H55  1  0.36676918  0.62001461  0.13136064  1
  H  H56  1  0.37214528  0.94742183  0.11764453  1
  H  H57  1  0.88232946  0.27428438  0.09227206  1
  H  H58  1  0.87029828  0.60985964  0.10283699  1
  H  H59  1  0.86868983  0.94906768  0.10958032  1
  H  H60  1  0.37715621  0.05507480  0.88735189  1
  H  H61  1  0.38676775  0.38789531  0.90458130  1
  H  H62  1  0.36868233  0.71464521  0.87494925  1
  H  H63  1  0.88076050  0.05870232  0.90339567  1
  H  H64  1  0.87989814  0.38855670  0.90143000  1
  H  H65  1  0.86698466  0.71901539  0.89067014  1
  H  H66  1  0.11396930  0.28344209  0.38520624  1
  H  H67  1  0.12011630  0.61341322  0.38257575  1
  H  H68  1  0.12215098  0.95128799  0.37724632  1
  H  H69  1  0.61122066  0.27464455  0.40708968  1
  H  H70  1  0.62010535  0.61310003  0.38783495  1
  H  H71  1  0.62055644  0.93781816  0.40464452  1
  H  H72  1  0.37878980  0.22137332  0.61524030  1
  H  H73  1  0.37562468  0.54732918  0.62278673  1
  H  H74  1  0.37449814  0.88888068  0.60438924  1
  H  H75  1  0.88300121  0.21751003  0.61821644  1
  H  H76  1  0.87270478  0.56001368  0.59498908  1
  H  H77  1  0.87501177  0.88878258  0.60559519  1
  H  H78  1  0.12116954  0.11370074  0.10808240  1
  H  H79  1  0.11805957  0.45798291  0.13350351  1
  H  H80  1  0.13424638  0.77244500  0.09846456  1
  H  H81  1  0.62330364  0.11521318  0.11692580  1
  H  H82  1  0.61967892  0.44059082  0.09297352  1
  H  H83  1  0.63660053  0.77626306  0.09635279  1
  H  H84  1  0.12189130  0.21562403  0.88122723  1
  H  H85  1  0.13172054  0.55880171  0.89969283  1
  H  H86  1  0.13370337  0.89283623  0.91049606  1
  H  H87  1  0.61410983  0.21896743  0.88301508  1
  H  H88  1  0.63475868  0.55314882  0.90066377  1
  H  H89  1  0.62397796  0.88217774  0.87585040  1
  H  H90  1  0.37023629  0.11082222  0.38573120  1
  H  H91  1  0.36888894  0.44745919  0.39058499  1
  H  H92  1  0.33371673  0.76740640  0.42437737  1
  H  H93  1  0.87080724  0.10734725  0.40353849  1
  H  H94  1  0.86409544  0.43878404  0.40587232  1
  H  H95  1  0.85844278  0.77949094  0.40490382  1
  H  H96  1  0.36739659  0.29060777  0.37226465  1
  H  H97  1  0.37146249  0.61114083  0.39680705  1
  H  H98  1  0.37592255  0.95203888  0.37617450  1
  H  H99  1  0.86629505  0.27241667  0.40208339  1
  H  H100  1  0.87055759  0.61300431  0.39053556  1
  H  H101  1  0.87708429  0.94070676  0.40680001  1
  H  H102  1  0.12769665  0.05285341  0.87883320  1
  H  H103  1  0.12753250  0.38869474  0.89121040  1
  H  H104  1  0.11529260  0.72136775  0.89810587  1
  H  H105  1  0.62635103  0.04834016  0.88816844  1
  H  H106  1  0.63269708  0.38165185  0.88008901  1
  H  H107  1  0.61211130  0.72880190  0.91006766  1
  H  H108  1  0.12493592  0.28501323  0.12666487  1
  H  H109  1  0.11872538  0.61618196  0.10668949  1
  H  H110  1  0.11768976  0.94483903  0.11528554  1
  H  H111  1  0.63060858  0.27786604  0.10144011  1
  H  H112  1  0.61147182  0.60793452  0.09644259  1
  H  H113  1  0.61930031  0.94163946  0.09845718  1
  H  H114  1  0.38249743  0.06237644  0.58690074  1
  H  H115  1  0.38151609  0.39202051  0.59584333  1
  H  H116  1  0.39283079  0.72485456  0.58932789  1
  H  H117  1  0.87658873  0.04943087  0.62569656  1
  H  H118  1  0.89121451  0.38599361  0.60202734  1
  H  H119  1  0.91626469  0.73655397  0.57601260  1
  H  H120  1  0.12274323  0.11663154  0.39068082  1
  H  H121  1  0.12028311  0.44234454  0.39660121  1
  H  H122  1  0.08781942  0.78064986  0.39722619  1
  H  H123  1  0.62399511  0.11357966  0.38260361  1
  H  H124  1  0.61880567  0.45053177  0.37382247  1
  H  H125  1  0.61279824  0.78317830  0.38227634  1
  H  H126  1  0.36974972  0.22018569  0.89216867  1
  H  H127  1  0.37891535  0.55077844  0.88221962  1
  H  H128  1  0.37615969  0.88041020  0.86903596  1
  H  H129  1  0.86187922  0.22251175  0.90044604  1
  H  H130  1  0.88239216  0.55260039  0.87944274  1
  H  H131  1  0.87026067  0.88967352  0.90220622  1
  H  H132  1  0.36989638  0.11479182  0.11316212  1
  H  H133  1  0.35923293  0.44045095  0.09052698  1
  H  H134  1  0.38113792  0.77977818  0.11594753  1
  H  H135  1  0.87116798  0.11114327  0.10535350  1
  H  H136  1  0.86540265  0.45034640  0.11968667  1
  H  H137  1  0.88214657  0.78094518  0.12532733  1
  H  H138  1  0.13050588  0.22660344  0.60269343  1
  H  H139  1  0.13149448  0.55642701  0.58998602  1
  H  H140  1  0.12534813  0.88775470  0.61061145  1
  H  H141  1  0.63672621  0.22301993  0.59467687  1
  H  H142  1  0.62839355  0.54713785  0.62809296  1
  H  H143  1  0.62692924  0.88751641  0.61175119  1
  H  H144  1  0.64267119  0.74823618  0.48916074  1
  H  H145  1  0.17433580  0.08501868  0.00021951  1
  H  H146  1  0.71011210  0.74951973  -0.00711367  1
  H  H147  1  0.94984291  0.41384386  0.49232168  1
  H  H148  1  0.79609945  0.25142368  1.00604894  1
  H  H149  1  0.58189136  0.57906015  0.49996937  1
  H  H150  1  0.41330682  0.24906424  0.00419700  1
  H  H151  1  0.35220139  0.74940645  0.00687276  1
  H  H152  1  0.21543146  0.91590322  1.00737690  1
  H  H153  1  0.36735303  0.91537070  0.98300171  1
  H  H154  1  0.16451587  0.91368996  0.49779461  1
  H  H155  1  0.80116615  0.91613530  1.00986192  1
  H  H156  1  0.31391603  0.05686198  0.47611296  1
  H  H157  1  0.53555722  0.57963129  -0.00746337  1
  H  H158  1  0.98636770  0.75897326  0.47317730  1
  H  H159  1  0.26375446  0.74544824  0.52697489  1
  H  H160  1  0.58588907  0.08097280  0.99731311  1
  H  H161  1  0.07374787  0.91278363  0.00557436  1
  H  H162  1  0.37809163  0.26129408  0.48586572  1
  H  H163  1  0.70249964  0.58192273  1.00559387  1
  H  H164  1  0.60732036  0.41319673  0.50632007  1
  H  H165  1  0.79350359  0.58881748  0.49407184  1
  H  H166  1  0.92541604  0.58006830  0.49306006  1
  H  H167  1  0.53330927  0.75255738  1.00946568  1
  H  H168  1  0.18164832  0.10572138  0.49629933  1
  H  H169  1  0.90764889  0.74854572  0.99709319  1
  H  H170  1  0.39517021  0.91302663  0.48065116  1
  H  H171  1  0.27847470  0.40969752  -0.00869645  1
  H  H172  1  0.19192054  0.26139543  0.49748983  1
  H  H173  1  0.21314645  0.58431942  0.49302172  1
  H  H174  1  0.92282121  0.93319389  0.00218219  1
  H  H175  1  0.93823221  0.42559757  1.00150456  1
  H  H176  1  0.07933369  0.58131082  0.49316831  1
  H  H177  1  0.46062112  0.41656651  1.00407958  1
  H  H178  1  0.78773705  0.76101818  0.50830270  1
  H  H179  1  0.53668258  0.24876101  0.51051585  1
  H  H180  1  0.42201468  0.08722551  0.99725417  1
  H  H181  1  0.78659424  0.41279765  0.50556913  1
  H  H182  1  0.61807108  0.07993912  0.51655972  1
  H  H183  1  0.47177815  0.74840292  0.49017955  1
  H  H184  1  0.34876371  0.58319704  0.99387624  1
  H  H185  1  0.71011148  0.25122216  0.49442837  1
  H  H186  1  0.12156932  0.42426979  1.02124878  1
  H  H187  1  0.15544943  0.24520803  -0.00534941  1
  H  H188  1  0.46610329  0.08342301  0.49051596  1
  H  H189  1  0.96412313  0.24766416  -0.00527746  1
  H  H190  1  0.03418341  0.08441410  0.49112444  1
  H  H191  1  0.54457690  0.92166187  0.50383182  1
  Pb  Pb192  1  0.24901247  0.05210814  0.73717240  1
  Pb  Pb193  1  0.25568689  0.38107384  0.75318367  1
  Pb  Pb194  1  0.25612450  0.71618352  0.75128086  1
  Pb  Pb195  1  0.75530030  0.04651777  0.75860830  1
  Pb  Pb196  1  0.76150823  0.38412694  0.74452456  1
  Pb  Pb197  1  0.75573272  0.71528443  0.74761547  1
  Pb  Pb198  1  0.24674994  0.28740165  0.25058546  1
  Pb  Pb199  1  0.24461758  0.61904355  0.25876533  1
  Pb  Pb200  1  0.24647540  0.94989222  0.24394365  1
  Pb  Pb201  1  0.74597281  0.28484113  0.25352625  1
  Pb  Pb202  1  0.74237652  0.61624579  0.24707338  1
  Pb  Pb203  1  0.74644058  0.95146210  0.25363435  1
  Pb  Pb204  1  -0.00210056  0.21602663  0.75691949  1
  Pb  Pb205  1  0.00824340  0.55241878  0.73861187  1
  Pb  Pb206  1  0.00358670  0.88125869  0.75982156  1
  Pb  Pb207  1  0.50807423  0.21706253  0.74809995  1
  Pb  Pb208  1  0.50451738  0.54795434  0.75453891  1
  Pb  Pb209  1  0.50338584  0.88307626  0.73867256  1
  Pb  Pb210  1  -0.00192350  0.11841605  0.25457295  1
  Pb  Pb211  1  -0.00536272  0.45166502  0.25573472  1
  Pb  Pb212  1  -0.00485634  0.78443182  0.24641501  1
  Pb  Pb213  1  0.49532214  0.11868924  0.25256657  1
  Pb  Pb214  1  0.49173635  0.45086907  0.23666627  1
  Pb  Pb215  1  0.49544567  0.78423924  0.24906722  1
  C  C216  1  0.00558237  0.04284660  0.62849821  1
  C  C217  1  0.01256719  0.37744058  0.63049631  1
  C  C218  1  0.03387271  0.72054064  0.61012456  1
  C  C219  1  0.49493681  0.04463197  0.62928724  1
  C  C220  1  0.50051666  0.38020720  0.62941567  1
  C  C221  1  0.50731494  0.71023917  0.62936929  1
  C  C222  1  -0.00317711  0.29058602  0.13157853  1
  C  C223  1  -0.00637782  0.62053514  0.12439484  1
  C  C224  1  -0.00769482  0.95814309  0.13408594  1
  C  C225  1  0.50820255  0.28802481  0.13030746  1
  C  C226  1  0.49594963  0.62105777  0.13439549  1
  C  C227  1  0.49926846  0.95370059  0.13098030  1
  C  C228  1  0.00005219  0.04700762  0.86880511  1
  C  C229  1  0.00193987  0.37958316  0.87295922  1
  C  C230  1  -0.00773711  0.70893663  0.87283155  1
  C  C231  1  0.50135420  0.04390274  0.86697034  1
  C  C232  1  0.50491228  0.37447553  0.86906342  1
  C  C233  1  0.49744205  0.71194140  0.87177017  1
  C  C234  1  -0.01340121  0.28665961  0.37055805  1
  C  C235  1  -0.00604329  0.62050970  0.36400229  1
  C  C236  1  -0.00562889  0.95488729  0.36979686  1
  C  C237  1  0.49532035  0.29020483  0.36934896  1
  C  C238  1  0.49523111  0.62009524  0.37121662  1
  C  C239  1  0.50385522  0.95304639  0.36830388  1
  C  C240  1  0.25209529  0.21440508  0.63128928  1
  C  C241  1  0.24685013  0.54096616  0.62902702  1
  C  C242  1  0.24990167  0.88190594  0.62909211  1
  C  C243  1  0.75524502  0.20887070  0.62895627  1
  C  C244  1  0.75688231  0.54555290  0.63423239  1
  C  C245  1  0.75198916  0.87876775  0.63277598  1
  C  C246  1  0.24448668  0.12329055  0.13364274  1
  C  C247  1  0.24593125  0.45747437  0.13181945  1
  C  C248  1  0.25469090  0.78634261  0.12904488  1
  C  C249  1  0.74955091  0.12303351  0.13531867  1
  C  C250  1  0.73755681  0.45404257  0.12908946  1
  C  C251  1  0.75430549  0.78780379  0.13327567  1
  C  C252  1  0.24679254  0.20934389  0.86612398  1
  C  C253  1  0.25211552  0.54639063  0.86778282  1
  C  C254  1  0.24766998  0.87608131  0.86959367  1
  C  C255  1  0.74131999  0.21146386  0.86870165  1
  C  C256  1  0.75484358  0.54408731  0.86705938  1
  C  C257  1  0.75238594  0.87955924  0.86819323  1
  C  C258  1  0.24612471  0.12338548  0.36606130  1
  C  C259  1  0.24334261  0.45456927  0.37115500  1
  C  C260  1  0.21616994  0.78429148  0.39039742  1
  C  C261  1  0.75127670  0.11970009  0.37026769  1
  C  C262  1  0.74810193  0.45394032  0.36827747  1
  C  C263  1  0.73939438  0.78984832  0.37086776  1
  C  C264  1  0.98415212  0.40346979  0.53383637  1
  C  C265  1  0.55883460  0.40510729  0.54049103  1
  C  C266  1  0.50875749  0.26157295  0.46686407  1
  C  C267  1  0.42887768  0.26782461  0.45461559  1
  C  C268  1  0.54000085  0.59043801  0.46312972  1
  C  C269  1  0.43043790  0.73828518  0.95602076  1
  C  C270  1  0.79330160  0.42655350  0.04205916  1
  C  C271  1  0.76469194  0.24009152  0.96344507  1
  C  C272  1  0.56612138  0.07265978  0.54840481  1
  C  C273  1  0.17427281  0.43167733  0.05020993  1
  C  C274  1  0.46190644  0.07429301  0.95970733  1
  C  C275  1  0.96304668  0.25362145  0.46405030  1
  C  C276  1  0.97855160  0.92092419  0.46403861  1
  C  C277  1  0.45848648  0.59023385  0.46426622  1
  C  C278  1  0.53958781  0.25902507  0.03574172  1
  C  C279  1  0.15566756  0.75744639  0.47711421  1
  C  C280  1  0.28078835  0.23635598  0.96080106  1
  C  C281  1  0.09446694  0.74644661  0.52314004  1
  C  C282  1  0.97990611  0.08115485  0.96237130  1
  C  C283  1  0.30151474  0.57359105  0.95714570  1
  C  C284  1  0.06527317  0.40251057  0.54052905  1
  C  C285  1  0.95722045  0.59042469  0.03297418  1
  C  C286  1  0.68359023  0.42534223  0.45265908  1
  C  C287  1  0.19935947  0.23544511  0.95846612  1
  C  C288  1  0.42859967  0.59725374  0.04996737  1
  C  C289  1  0.21110470  0.41979628  0.46224803  1
  C  C290  1  0.44872562  0.92749798  0.04152690  1
  C  C291  1  0.25340902  0.42474283  0.03534232  1
  C  C292  1  0.76782319  0.57558609  0.53845322  1
  C  C293  1  0.77159566  0.90540540  0.96631664  1
  C  C294  1  0.54396904  0.07125854  0.95991185  1
  C  C295  1  0.20752293  0.90450739  0.53433989  1
  C  C296  1  0.28921261  0.90382276  0.53392713  1
  C  C297  1  0.03530664  0.92660792  0.04355938  1
  C  C298  1  0.69151703  0.90295862  0.95529816  1
  C  C299  1  0.31644579  0.90704766  0.95055411  1
  C  C300  1  0.03969501  0.59439905  0.45556281  1
  C  C301  1  0.69978671  0.09144216  0.45861781  1
  C  C302  1  0.03732372  0.59285399  0.03405657  1
  C  C303  1  0.21183770  0.09504107  0.04027748  1
  C  C304  1  0.02798039  0.74234505  0.96574823  1
  C  C305  1  0.73849821  0.76015447  0.03706935  1
  C  C306  1  0.22518007  0.24763520  0.53858680  1
  C  C307  1  0.47810790  0.40828165  0.53326700  1
  C  C308  1  0.73324622  0.57222120  0.96221392  1
  C  C309  1  0.45821829  0.25998449  0.03954336  1
  C  C310  1  0.50801852  0.59263517  0.03628753  1
  C  C311  1  0.22757056  0.75285831  0.03447611  1
  N  N312  1  0.29119228  0.09464908  0.04187869  1
  N  N313  1  0.23470509  0.57765056  0.53752022  1
  N  N314  1  0.28854954  0.09383031  0.45639087  1
  N  N315  1  0.23853640  0.91142538  0.96314581  1
  N  N316  1  0.44285962  0.93057857  0.45378946  1
  N  N317  1  0.71686933  0.42269018  0.03247406  1
  N  N318  1  0.76256239  0.75821386  0.46387862  1
  N  N319  1  0.05707715  0.07853104  0.95623722  1
  N  N320  1  0.78553004  0.90861752  0.53921482  1
  N  N321  1  0.76118301  0.42139926  0.46266197  1
  N  N322  1  0.70910200  0.90834357  0.54134567  1
  N  N323  1  0.01392227  0.07770455  0.53602926  1
  N  N324  1  0.98642898  0.25545883  0.03910917  1
  N  N325  1  0.96027361  0.59668244  0.45807510  1
  N  N326  1  0.22293321  0.57658611  0.96325559  1
  N  N327  1  0.48865534  0.07810322  0.53484990  1
  N  N328  1  0.69012335  0.57123462  0.54941315  1
  N  N329  1  0.81658608  0.76111728  0.04692547  1
  N  N330  1  0.81186879  0.57335491  0.95489745  1
  N  N331  1  0.68478873  0.76695948  0.45832711  1
  N  N332  1  0.05523109  0.92355785  0.45556120  1
  N  N333  1  0.30397646  0.24589607  0.54305144  1
  N  N334  1  0.23529291  0.75014789  0.48401403  1
  N  N335  1  0.04945117  0.41481107  0.96026963  1
  N  N336  1  0.48657407  0.40784146  0.96120180  1
  N  N337  1  0.95572693  0.92910767  0.04196501  1
  N  N338  1  0.52007927  0.91613591  0.46038848  1
  N  N339  1  0.81349080  0.24173334  0.54393408  1
  N  N340  1  0.68579174  0.23964162  0.95765511  1
  N  N341  1  0.97188987  0.41181175  0.96409611  1
  N  N342  1  0.57221162  0.73483769  0.54471924  1
  N  N343  1  0.49577764  0.73962630  0.53480211  1
  N  N344  1  1.01482591  0.75233696  0.51579295  1
  N  N345  1  0.50799993  0.74365210  0.96666761  1
  N  N346  1  0.70286830  0.09226174  0.04534241  1
  N  N347  1  0.06297803  0.25938192  0.04954011  1
  N  N348  1  0.56389729  0.40575185  0.95425324  1
  N  N349  1  0.28835755  0.42180397  0.46187371  1
  N  N350  1  0.73604617  0.24388510  0.53747615  1
  N  N351  1  0.20657791  0.09030404  0.45586572  1
  N  N352  1  0.77890974  0.09088734  0.04163646  1
  N  N353  1  0.77655696  0.08883038  0.46658371  1
  N  N354  1  0.04002617  0.25755858  0.46014305  1
  N  N355  1  0.94922957  0.74061614  0.96216998  1
  N  N356  1  0.30573587  0.75708807  0.04103268  1
  N  N357  1  0.31153306  0.57500889  0.54748774  1
  N  N358  1  0.52561989  0.92481277  0.03412342  1
  N  N359  1  0.93764898  0.07539497  0.54792679  1
  N  N360  1  0.05712193  0.05575692  0.58378718  1
  N  N361  1  0.08182695  0.38712944  0.59901222  1
  N  N362  1  0.10592035  0.72795403  0.58279255  1
  N  N363  1  0.56980005  0.05376845  0.60760954  1
  N  N364  1  0.57140338  0.38759006  0.60170790  1
  N  N365  1  0.57934314  0.71908290  0.60439186  1
  N  N366  1  0.44007010  0.27820461  0.09953466  1
  N  N367  1  0.42155492  0.61396984  0.10934452  1
  N  N368  1  0.42978252  0.94433487  0.10040151  1
  N  N369  1  0.94464554  0.27702057  0.08762612  1
  N  N370  1  0.92956209  0.60716075  0.08807410  1
  N  N371  1  0.92947945  0.95217724  0.09702468  1
  N  N372  1  0.43690981  0.05738462  0.90156341  1
  N  N373  1  0.44893532  0.38677468  0.91074566  1
  N  N374  1  0.42356518  0.72008448  0.89660616  1
  N  N375  1  0.94261412  0.06196441  0.91036747  1
  N  N376  1  0.94127631  0.39180461  0.91048849  1
  N  N377  1  0.92636343  0.71901042  0.90520498  1
  N  N378  1  0.05477337  0.27872239  0.40063036  1
  N  N379  1  0.06093543  0.61041933  0.39761954  1
  N  N380  1  0.06502964  0.94471843  0.39536245  1
  N  N381  1  0.54903176  0.27544429  0.41300024  1
  N  N382  1  0.56164298  0.60909090  0.40390605  1
  N  N383  1  0.55846506  0.94065922  0.41104659  1
  N  N384  1  0.31952662  0.22519329  0.60082603  1
  N  N385  1  0.31836957  0.55399401  0.60504681  1
  N  N386  1  0.31429416  0.89066745  0.59150820  1
  N  N387  1  0.82488001  0.22176149  0.60170242  1
  N  N388  1  0.81038621  0.56001450  0.59016532  1
  N  N389  1  0.81353403  0.89063640  0.59578551  1
  N  N390  1  0.18179356  0.11174208  0.09651332  1
  N  N391  1  0.17119606  0.45184978  0.10973694  1
  N  N392  1  0.19556962  0.77120164  0.08865558  1
  N  N393  1  0.68316121  0.11195620  0.10347358  1
  N  N394  1  0.68167262  0.44029819  0.08800469  1
  N  N395  1  0.69888455  0.77613265  0.08981200  1
  N  N396  1  0.17948840  0.21852737  0.89837635  1
  N  N397  1  0.19375796  0.55933681  0.90733191  1
  N  N398  1  0.19613663  0.88880438  0.91444617  1
  N  N399  1  0.67313612  0.22159979  0.89871205  1
  N  N400  1  0.69655101  0.55496558  0.90855923  1
  N  N401  1  0.68030933  0.88759368  0.89618166  1
  N  N402  1  0.30986633  0.10506921  0.39699709  1
  N  N403  1  0.30877998  0.44388068  0.40394355  1
  N  N404  1  0.27205972  0.77114764  0.43187187  1
  N  N405  1  0.80879900  0.10703639  0.41015492  1
  N  N406  1  0.80189683  0.44142220  0.41122123  1
  N  N407  1  0.79630415  0.78163107  0.41289135  1
  N  N408  1  0.42196375  0.28505809  0.39427722  1
  N  N409  1  0.43175876  0.60808359  0.40886366  1
  N  N410  1  0.43276797  0.94316380  0.39377290  1
  N  N411  1  0.92747913  0.27117492  0.41047643  1
  N  N412  1  0.93207505  0.61079984  0.40100666  1
  N  N413  1  0.93890037  0.93956777  0.41282930  1
  N  N414  1  0.06950571  0.05701644  0.89636306  1
  N  N415  1  0.06811238  0.39295653  0.90444200  1
  N  N416  1  0.05485937  0.72333711  0.91028174  1
  N  N417  1  0.56689773  0.05252150  0.90192032  1
  N  N418  1  0.57478420  0.38645768  0.89641877  1
  N  N419  1  0.55005526  0.72459574  0.91550094  1
  N  N420  1  0.06879359  0.27930596  0.10764147  1
  N  N421  1  0.06030560  0.61077921  0.08992096  1
  N  N422  1  0.05796589  0.94294706  0.10098986  1
  N  N423  1  0.56980468  0.27585245  0.09038809  1
  N  N424  1  0.54919810  0.60798662  0.09027342  1
  N  N425  1  0.55733295  0.94190086  0.09122610  1
  N  N426  1  0.44459023  0.05702536  0.58358596  1
  N  N427  1  0.44309581  0.39301197  0.58658583  1
  N  N428  1  0.45506892  0.72134769  0.58479537  1
  N  N429  1  0.93297471  0.05515155  0.60602517  1
  N  N430  1  0.95230121  0.38790113  0.59111241  1
  N  N431  1  0.97798371  0.73243573  0.56831735  1
  N  N432  1  0.18326261  0.11820092  0.40324557  1
  N  N433  1  0.18056013  0.43968864  0.40770280  1
  N  N434  1  0.14417685  0.77674616  0.41774175  1
  N  N435  1  0.68137907  0.10961258  0.40011839  1
  N  N436  1  0.67484812  0.44435842  0.39394419  1
  N  N437  1  0.67021387  0.77673754  0.39810682  1
  N  N438  1  0.30909253  0.22083294  0.90502927  1
  N  N439  1  0.32083490  0.55563195  0.89853949  1
  N  N440  1  0.32185920  0.88726953  0.89168330  1
  N  N441  1  0.80022868  0.22293635  0.90936370  1
  N  N442  1  0.82353128  0.55558734  0.89572099  1
  N  N443  1  0.80894397  0.89044354  0.91065938  1
  N  N444  1  0.30961925  0.11241389  0.10025035  1
  N  N445  1  0.29685120  0.44125525  0.08671143  1
  N  N446  1  0.32308964  0.77854723  0.09918778  1
  N  N447  1  0.80941038  0.11005836  0.09707206  1
  N  N448  1  0.80860303  0.44527231  0.10061746  1
  N  N449  1  0.82479884  0.77804263  0.10706212  1
  N  N450  1  0.19186157  0.22835027  0.59255358  1
  N  N451  1  0.19361184  0.55457769  0.58560771  1
  N  N452  1  0.18430697  0.89056268  0.59480689  1
  N  N453  1  0.69888215  0.22198111  0.58789394  1
  N  N454  1  0.68513794  0.55257350  0.60897899  1
  N  N455  1  0.68701378  0.88992716  0.59939180  1
  Cl  Cl456  1  0.24942642  0.06257329  0.59426030  1
  Cl  Cl457  1  0.26220422  0.39014433  0.62213796  1
  Cl  Cl458  1  0.28204954  0.72600909  0.61491697  1
  Cl  Cl459  1  0.75083814  0.05287210  0.62825432  1
  Cl  Cl460  1  0.76779769  0.39208100  0.60374211  1
  Cl  Cl461  1  0.78820076  0.73338496  0.60231049  1
  Cl  Cl462  1  0.25396530  0.28062306  0.12360155  1
  Cl  Cl463  1  0.23919545  0.62231895  0.13142554  1
  Cl  Cl464  1  0.24076320  0.93681216  0.10620186  1
  Cl  Cl465  1  0.76153940  0.27552171  0.11609869  1
  Cl  Cl466  1  0.73599381  0.60899015  0.11269514  1
  Cl  Cl467  1  0.74579948  0.93985926  0.11706347  1
  Cl  Cl468  1  0.25262912  0.05222205  0.86970915  1
  Cl  Cl469  1  0.26314536  0.38790939  0.88856651  1
  Cl  Cl470  1  0.23954829  0.72492810  0.88126596  1
  Cl  Cl471  1  0.75686288  0.04903005  0.88896898  1
  Cl  Cl472  1  0.76170013  0.38314481  0.87641242  1
  Cl  Cl473  1  0.73575804  0.72650069  0.88596023  1
  Cl  Cl474  1  0.23634939  0.28026903  0.38508900  1
  Cl  Cl475  1  0.24301943  0.60951196  0.39693668  1
  Cl  Cl476  1  0.25239239  0.95292881  0.37632908  1
  Cl  Cl477  1  0.73486746  0.27358084  0.39666599  1
  Cl  Cl478  1  0.75107145  0.61374849  0.38413968  1
  Cl  Cl479  1  0.74654410  0.93985848  0.38495978  1
  Cl  Cl480  1  0.00989456  0.22136331  0.62566937  1
  Cl  Cl481  1  0.00142710  0.56153364  0.59610084  1
  Cl  Cl482  1  -0.00343464  0.88440495  0.62681716  1
  Cl  Cl483  1  0.51446717  0.22070817  0.61279988  1
  Cl  Cl484  1  0.50011073  0.54920526  0.62425359  1
  Cl  Cl485  1  0.49984042  0.89117555  0.60157615  1
  Cl  Cl486  1  -0.00545816  0.11183982  0.12166784  1
  Cl  Cl487  1  -0.01323368  0.44296770  0.12052132  1
  Cl  Cl488  1  0.01138092  0.77726488  0.11542416  1
  Cl  Cl489  1  0.49656285  0.11377327  0.12023253  1
  Cl  Cl490  1  0.48390262  0.43985259  0.09809047  1
  Cl  Cl491  1  0.51331206  0.77246522  0.10786852  1
  Cl  Cl492  1  -0.01636980  0.22917036  0.89862813  1
  Cl  Cl493  1  0.00999920  0.55516389  0.87112970  1
  Cl  Cl494  1  0.00534877  0.89425313  0.90069252  1
  Cl  Cl495  1  0.48995968  0.22480742  0.87972955  1
  Cl  Cl496  1  0.50957071  0.55435437  0.88963057  1
  Cl  Cl497  1  0.50139528  0.87509428  0.86548805  1
  Cl  Cl498  1  0.00085281  0.10559553  0.39546385  1
  Cl  Cl499  1  -0.01149290  0.44474110  0.39057099  1
  Cl  Cl500  1  -0.03052465  0.77742015  0.38356345  1
  Cl  Cl501  1  0.49246921  0.10299645  0.39237088  1
  Cl  Cl502  1  0.49206993  0.45100470  0.36777894  1
  Cl  Cl503  1  0.46269685  0.77120520  0.40057117  1
  Cl  Cl504  1  0.36080687  0.15102153  0.74072890  1
  Cl  Cl505  1  0.36179928  0.48589172  0.75254520  1
  Cl  Cl506  1  0.35585703  0.81559666  0.75071538  1
  Cl  Cl507  1  0.85934918  0.15178329  0.74712079  1
  Cl  Cl508  1  0.86116032  0.48234094  0.75406606  1
  Cl  Cl509  1  0.86386422  0.81625880  0.75952145  1
  Cl  Cl510  1  0.13652417  0.18570757  0.25138066  1
  Cl  Cl511  1  0.13489064  0.51827462  0.25205583  1
  Cl  Cl512  1  0.14820741  0.84648168  0.25684212  1
  Cl  Cl513  1  0.63453251  0.18391900  0.25480482  1
  Cl  Cl514  1  0.63977770  0.51874311  0.25278922  1
  Cl  Cl515  1  0.63221611  0.85085111  0.26062433  1
  Cl  Cl516  1  0.14329667  0.14638347  0.75221280  1
  Cl  Cl517  1  0.14098297  0.48079761  0.74861431  1
  Cl  Cl518  1  0.13973495  0.81386545  0.73982805  1
  Cl  Cl519  1  0.63807739  0.14394515  0.75725159  1
  Cl  Cl520  1  0.63974237  0.47850477  0.74425379  1
  Cl  Cl521  1  0.63738889  0.81199191  0.73728792  1
  Cl  Cl522  1  0.35866505  0.18630612  0.25731456  1
  Cl  Cl523  1  0.35587976  0.51890098  0.24593176  1
  Cl  Cl524  1  0.36967333  0.85608505  0.24316425  1
  Cl  Cl525  1  0.85858223  0.18455909  0.25740264  1
  Cl  Cl526  1  0.85853685  0.51834103  0.25097370  1
  Cl  Cl527  1  0.85657125  0.84925891  0.24475616  1
  Cl  Cl528  1  0.11505156  0.31421947  0.76202458  1
  Cl  Cl529  1  0.10415052  0.65182069  0.73878917  1
  Cl  Cl530  1  0.11564269  0.98150504  0.75067673  1
  Cl  Cl531  1  0.61539179  0.31215174  0.75052611  1
  Cl  Cl532  1  0.61922195  0.64646577  0.73891946  1
  Cl  Cl533  1  0.61336968  0.97746718  0.74532418  1
  Cl  Cl534  1  0.38180133  0.02013503  0.24804809  1
  Cl  Cl535  1  0.38940006  0.35071242  0.24974758  1
  Cl  Cl536  1  0.38359681  0.68638792  0.24738409  1
  Cl  Cl537  1  0.88894051  0.01598645  0.25302605  1
  Cl  Cl538  1  0.88486901  0.35008442  0.25230824  1
  Cl  Cl539  1  0.89196422  0.68558703  0.24262488  1
  Cl  Cl540  1  0.39518140  0.31681755  0.74499919  1
  Cl  Cl541  1  0.39559957  0.65142720  0.75562158  1
  Cl  Cl542  1  0.39413334  0.98157134  0.74848282  1
  Cl  Cl543  1  0.89909173  0.31848645  0.74662700  1
  Cl  Cl544  1  0.88600529  0.64642346  0.74845338  1
  Cl  Cl545  1  0.89534130  0.98390936  0.74931838  1
  Cl  Cl546  1  0.11200350  0.01855856  0.25618863  1
  Cl  Cl547  1  0.10883151  0.35256920  0.24677190  1
  Cl  Cl548  1  0.10945121  0.68644210  0.26375846  1
  Cl  Cl549  1  0.60455065  0.01687554  0.25039283  1
  Cl  Cl550  1  0.60922671  0.35325121  0.25031307  1
  Cl  Cl551  1  0.60565706  0.68313823  0.25997458  1
