# generated using pymatgen
data_H8PbC4(N3Cl2)2
_symmetry_space_group_name_H-M   'P 1'
_cell_length_a   16.62461240
_cell_length_b   22.51130333
_cell_length_c   21.59214901
_cell_angle_alpha   90.00104157
_cell_angle_beta   90.00139871
_cell_angle_gamma   89.99960354
_symmetry_Int_Tables_number   1
_chemical_formula_structural   H8PbC4(N3Cl2)2
_chemical_formula_sum   'H192 Pb24 C96 N144 Cl96'
_cell_volume   8080.68238804
_cell_formula_units_Z   24
loop_
 _symmetry_equiv_pos_site_id
 _symmetry_equiv_pos_as_xyz
  1  'x, y, z'
loop_
 _atom_site_type_symbol
 _atom_site_label
 _atom_site_symmetry_multiplicity
 _atom_site_fract_x
 _atom_site_fract_y
 _atom_site_fract_z
 _atom_site_occupancy
  H  H0  1  0.00241308  0.03208260  0.68147309  1
  H  H1  1  -0.00510260  0.36210113  0.68122118  1
  H  H2  1  0.00092316  0.69557527  0.67725396  1
  H  H3  1  0.50436984  0.03110801  0.68106508  1
  H  H4  1  0.51071076  0.36067233  0.67720838  1
  H  H5  1  0.49384658  0.69651278  0.67914863  1
  H  H6  1  -0.00642578  0.30426303  0.17612277  1
  H  H7  1  0.01010576  0.63743367  0.17787914  1
  H  H8  1  -0.00009014  0.96986890  0.18087138  1
  H  H9  1  0.49454527  0.30323655  0.18043465  1
  H  H10  1  0.50137088  0.63700545  0.18226948  1
  H  H11  1  0.50438659  0.96914317  0.17830531  1
  H  H12  1  0.00036040  0.02911670  0.82456907  1
  H  H13  1  0.00451781  0.36329079  0.82190563  1
  H  H14  1  -0.00747171  0.69821092  0.81921689  1
  H  H15  1  0.49123809  0.03196303  0.81981732  1
  H  H16  1  0.50174374  0.36214490  0.82482648  1
  H  H17  1  0.51005229  0.69597630  0.82129035  1
  H  H18  1  -0.00686341  0.30058284  0.31861592  1
  H  H19  1  0.00000815  0.63892319  0.32292889  1
  H  H20  1  -0.00236484  0.96838622  0.31539096  1
  H  H21  1  0.49469744  0.30334166  0.32159842  1
  H  H22  1  0.50411032  0.64125149  0.32080774  1
  H  H23  1  0.49981056  0.97057849  0.31737274  1
  H  H24  1  0.25301518  0.19721989  0.67751766  1
  H  H25  1  0.25167334  0.52781804  0.68150864  1
  H  H26  1  0.23645027  0.86197240  0.67946564  1
  H  H27  1  0.75342302  0.19595141  0.67902249  1
  H  H28  1  0.74312436  0.53341425  0.67923578  1
  H  H29  1  0.76273302  0.86448597  0.68216619  1
  H  H30  1  0.26008774  0.13672916  0.17600112  1
  H  H31  1  0.24293205  0.46835042  0.17766425  1
  H  H32  1  0.24429498  0.80262708  0.18145599  1
  H  H33  1  0.74066894  0.13664510  0.18016692  1
  H  H34  1  0.75232254  0.46986106  0.17941544  1
  H  H35  1  0.74212957  0.80402961  0.17822204  1
  H  H36  1  0.26012587  0.19745275  0.82538205  1
  H  H37  1  0.24553197  0.52973533  0.81748064  1
  H  H38  1  0.24161722  0.86386276  0.82250089  1
  H  H39  1  0.74281510  0.19653682  0.82093946  1
  H  H40  1  0.75622106  0.52897856  0.81877638  1
  H  H41  1  0.75078762  0.86381945  0.82292901  1
  H  H42  1  0.24915051  0.14011776  0.32325317  1
  H  H43  1  0.24421394  0.46645666  0.31870673  1
  H  H44  1  0.24082599  0.80192214  0.31887298  1
  H  H45  1  0.74912137  0.13743766  0.32189515  1
  H  H46  1  0.75997015  0.46463867  0.31620481  1
  H  H47  1  0.76342477  0.79961312  0.32460660  1
  H  H48  1  0.11654790  0.05768190  0.60292306  1
  H  H49  1  0.12107820  0.38735879  0.61491342  1
  H  H50  1  0.12649693  0.72033145  0.60778107  1
  H  H51  1  0.61702664  0.05704547  0.60177406  1
  H  H52  1  0.61590440  0.39123948  0.59233761  1
  H  H53  1  0.62707045  0.71913661  0.61670442  1
  H  H54  1  0.38093773  0.27555460  0.10053134  1
  H  H55  1  0.37304653  0.61273506  0.11382061  1
  H  H56  1  0.36738708  0.95013651  0.12113019  1
  H  H57  1  0.88200091  0.27509304  0.09654570  1
  H  H58  1  0.87079605  0.61617285  0.12553184  1
  H  H59  1  0.86916719  0.94487789  0.11518024  1
  H  H60  1  0.37760488  0.05826997  0.89817443  1
  H  H61  1  0.36911548  0.38326345  0.88749410  1
  H  H62  1  0.36932727  0.71538044  0.87206752  1
  H  H63  1  0.87875078  0.05149665  0.89735734  1
  H  H64  1  0.87069959  0.38603912  0.88223168  1
  H  H65  1  0.86964267  0.72349701  0.89097889  1
  H  H66  1  0.12802952  0.28080662  0.38229761  1
  H  H67  1  0.11869245  0.61042903  0.39600738  1
  H  H68  1  0.12306092  0.94748844  0.38392872  1
  H  H69  1  0.62883044  0.28003455  0.38099343  1
  H  H70  1  0.61751627  0.61156589  0.39928376  1
  H  H71  1  0.62427926  0.94544045  0.38896193  1
  H  H72  1  0.37151759  0.22204162  0.60191764  1
  H  H73  1  0.37707222  0.55394266  0.61108635  1
  H  H74  1  0.37488814  0.88316461  0.62653264  1
  H  H75  1  0.87046851  0.22241821  0.60202720  1
  H  H76  1  0.88241542  0.55226487  0.62345218  1
  H  H77  1  0.87141728  0.88570563  0.59921638  1
  H  H78  1  0.12308160  0.11585483  0.11840023  1
  H  H79  1  0.13463075  0.44173926  0.09431206  1
  H  H80  1  0.13121849  0.77705700  0.10431844  1
  H  H81  1  0.62173784  0.10999236  0.10565252  1
  H  H82  1  0.63036654  0.44505495  0.10842570  1
  H  H83  1  0.63812052  0.77398505  0.09324251  1
  H  H84  1  0.12270802  0.21905968  0.88173081  1
  H  H85  1  0.13077112  0.55255739  0.89517282  1
  H  H86  1  0.13196281  0.89108015  0.90310588  1
  H  H87  1  0.61943805  0.22060836  0.89377229  1
  H  H88  1  0.63067237  0.55274653  0.88875372  1
  H  H89  1  0.62984697  0.89047282  0.89446772  1
  H  H90  1  0.38114347  0.11457235  0.38371459  1
  H  H91  1  0.38010366  0.44710879  0.37680379  1
  H  H92  1  0.36971972  0.77912542  0.38460456  1
  H  H93  1  0.88169766  0.11381090  0.38315662  1
  H  H94  1  0.88006936  0.44804618  0.39196511  1
  H  H95  1  0.86646091  0.77337562  0.41008849  1
  H  H96  1  0.38152778  0.27659178  0.40125469  1
  H  H97  1  0.36969522  0.61410483  0.37773659  1
  H  H98  1  0.37576075  0.94525301  0.39000575  1
  H  H99  1  0.88061830  0.27549733  0.39980993  1
  H  H100  1  0.87032390  0.61597882  0.38908429  1
  H  H101  1  0.87348610  0.94741527  0.38508716  1
  H  H102  1  0.12685062  0.05697093  0.89044867  1
  H  H103  1  0.11833050  0.38907139  0.90138400  1
  H  H104  1  0.11842769  0.72164207  0.88910978  1
  H  H105  1  0.62536600  0.05025732  0.88256937  1
  H  H106  1  0.61693494  0.39073751  0.89943303  1
  H  H107  1  0.61386894  0.72789452  0.90640483  1
  H  H108  1  0.12932318  0.28213439  0.11847050  1
  H  H109  1  0.11596054  0.60673472  0.09464689  1
  H  H110  1  0.11714312  0.94376556  0.10361976  1
  H  H111  1  0.62852575  0.28053812  0.11671195  1
  H  H112  1  0.62205440  0.61165921  0.10984678  1
  H  H113  1  0.61492469  0.94332720  0.09901161  1
  H  H114  1  0.36935947  0.05288099  0.61935854  1
  H  H115  1  0.37151355  0.38356118  0.62339988  1
  H  H116  1  0.37894730  0.72403176  0.60232075  1
  H  H117  1  0.86843194  0.05306173  0.61813476  1
  H  H118  1  0.87223635  0.38707203  0.60775300  1
  H  H119  1  0.87766517  0.72210557  0.60741452  1
  H  H120  1  0.13316286  0.11070750  0.39906468  1
  H  H121  1  0.13288168  0.44529314  0.39844751  1
  H  H122  1  0.12068547  0.77662095  0.39482985  1
  H  H123  1  0.63340111  0.11053309  0.39900634  1
  H  H124  1  0.63070439  0.44383341  0.38347123  1
  H  H125  1  0.62254601  0.78391267  0.37408837  1
  H  H126  1  0.36877875  0.22416913  0.90682479  1
  H  H127  1  0.37913955  0.54917656  0.87729334  1
  H  H128  1  0.37893362  0.88488713  0.87985055  1
  H  H129  1  0.86822754  0.22210376  0.89031275  1
  H  H130  1  0.87963133  0.55457379  0.89015370  1
  H  H131  1  0.87894193  0.88820121  0.88941002  1
  H  H132  1  0.36962552  0.10814801  0.09535727  1
  H  H133  1  0.38058558  0.44746844  0.12209709  1
  H  H134  1  0.37947907  0.78290179  0.12162143  1
  H  H135  1  0.87077688  0.11460918  0.11406912  1
  H  H136  1  0.87988567  0.44678074  0.11387778  1
  H  H137  1  0.88289084  0.78239164  0.12742211  1
  H  H138  1  0.12282147  0.22074873  0.61129394  1
  H  H139  1  0.12808489  0.55402203  0.61169168  1
  H  H140  1  0.12921097  0.88897449  0.59546642  1
  H  H141  1  0.62203008  0.21903870  0.61587101  1
  H  H142  1  0.63530028  0.56028852  0.59719486  1
  H  H143  1  0.62508882  0.88107125  0.62749465  1
  H  H144  1  0.55120890  0.58904509  0.50242618  1
  H  H145  1  0.07820212  0.41411476  0.50232435  1
  H  H146  1  0.17695483  0.58435896  0.50308117  1
  H  H147  1  0.35811809  0.91702999  0.98825690  1
  H  H148  1  0.35057943  0.57895012  0.99036508  1
  H  H149  1  0.67191376  0.25008030  0.99642458  1
  H  H150  1  0.39790680  0.58164304  0.48920674  1
  H  H151  1  0.85898738  0.58401762  0.51575166  1
  H  H152  1  0.08494222  0.07668510  0.99671968  1
  H  H153  1  0.70470166  0.58986195  0.49273912  1
  H  H154  1  0.05176642  0.08509750  0.49623532  1
  H  H155  1  0.82437516  0.43443227  0.50449659  1
  H  H156  1  0.14652054  0.24895413  0.99090778  1
  H  H157  1  0.93283727  0.09391935  0.99409677  1
  H  H158  1  0.67823306  0.08005154  -0.00079869  1
  H  H159  1  0.65735040  0.24834237  0.50465094  1
  H  H160  1  0.53804805  0.75067619  1.00529587  1
  H  H161  1  0.07893507  0.92329306  0.49722407  1
  H  H162  1  0.53630885  0.41546357  0.49340864  1
  H  H163  1  0.80325314  0.90631797  0.49143525  1
  H  H164  1  0.19269698  0.74771901  -0.00409419  1
  H  H165  1  0.38290347  0.74829241  0.98609797  1
  H  H166  1  0.83575263  0.91775464  0.99511910  1
  H  H167  1  0.56862385  0.57896940  0.00268868  1
  H  H168  1  0.19989563  0.91950582  1.00890819  1
  H  H169  1  0.91953794  0.92406435  0.49819542  1
  H  H170  1  0.32823888  0.75038804  0.49531008  1
  H  H171  1  0.92918020  0.39240142  0.49960471  1
  H  H172  1  0.84362871  0.41825358  0.00206463  1
  H  H173  1  0.64369541  0.90914365  0.51328271  1
  H  H174  1  0.55051790  0.08478635  0.49559518  1
  H  H175  1  0.19024323  0.57862404  1.00406764  1
  H  H176  1  0.20321647  0.90744236  0.49412898  1
  H  H177  1  0.40093219  0.41455106  0.99463338  1
  H  H178  1  0.16604339  0.25016765  0.50597456  1
  H  H179  1  0.94837799  0.24902192  -0.00501781  1
  H  H180  1  0.67533700  0.40962187  0.48779991  1
  H  H181  1  0.35580860  0.91580147  0.51399187  1
  H  H182  1  0.19720517  0.08318102  0.50278948  1
  H  H183  1  0.19741429  0.41990024  0.50769336  1
  H  H184  1  0.83184722  0.58186042  0.99903896  1
  H  H185  1  0.63477818  0.75501811  0.48968731  1
  H  H186  1  0.04027080  0.58081198  -0.00507071  1
  H  H187  1  0.69738204  0.08320615  0.50241090  1
  H  H188  1  0.71548892  0.74904051  -0.00579480  1
  H  H189  1  0.55200760  0.91777214  -0.00841991  1
  H  H190  1  0.67749968  0.41719931  -0.00136023  1
  H  H191  1  0.91740492  0.75038080  0.99984917  1
  Pb  Pb192  1  0.24764809  0.04797819  0.74747429  1
  Pb  Pb193  1  0.24970515  0.37860157  0.75399079  1
  Pb  Pb194  1  0.24934559  0.71250700  0.74482413  1
  Pb  Pb195  1  0.74910823  0.04583148  0.74690217  1
  Pb  Pb196  1  0.74675264  0.37959573  0.74366079  1
  Pb  Pb197  1  0.75379472  0.71549489  0.75885164  1
  Pb  Pb198  1  0.25193089  0.28708139  0.24946919  1
  Pb  Pb199  1  0.24889764  0.61992577  0.24656139  1
  Pb  Pb200  1  0.25056869  0.95364066  0.25334949  1
  Pb  Pb201  1  0.75360638  0.28609628  0.24779588  1
  Pb  Pb202  1  0.75196060  0.61912288  0.25389511  1
  Pb  Pb203  1  0.74835870  0.95309478  0.24631389  1
  Pb  Pb204  1  -0.00280970  0.21359509  0.75221891  1
  Pb  Pb205  1  0.00176240  0.54512791  0.75762144  1
  Pb  Pb206  1  0.00360280  0.88094615  0.74459674  1
  Pb  Pb207  1  0.49812257  0.21198603  0.75270198  1
  Pb  Pb208  1  0.50504247  0.54927560  0.74367834  1
  Pb  Pb209  1  0.49974078  0.87990897  0.75222706  1
  Pb  Pb210  1  0.00148966  0.12043537  0.24825206  1
  Pb  Pb211  1  0.00541311  0.45290535  0.25402527  1
  Pb  Pb212  1  0.00018631  0.78632612  0.25619452  1
  Pb  Pb213  1  0.50118631  0.12108022  0.24896993  1
  Pb  Pb214  1  0.50293535  0.45292424  0.25073585  1
  Pb  Pb215  1  0.50239494  0.78634110  0.24161843  1
  C  C216  1  -0.00461953  0.04705992  0.63399220  1
  C  C217  1  -0.00491574  0.37771862  0.63358917  1
  C  C218  1  0.00191643  0.71241741  0.63042375  1
  C  C219  1  0.49648899  0.04612478  0.63371595  1
  C  C220  1  0.49967133  0.37747332  0.63087629  1
  C  C221  1  0.50028940  0.71257011  0.63232954  1
  C  C222  1  0.00136806  0.28795435  0.12918713  1
  C  C223  1  -0.00083557  0.62121024  0.13132580  1
  C  C224  1  -0.00461818  0.95392758  0.13354926  1
  C  C225  1  0.50149672  0.28752247  0.13317669  1
  C  C226  1  0.49846660  0.62068514  0.13498043  1
  C  C227  1  0.49580101  0.95440158  0.13094845  1
  C  C228  1  0.00201650  0.04567605  0.87182375  1
  C  C229  1  -0.00201444  0.37948045  0.86872610  1
  C  C230  1  -0.00650259  0.71411943  0.86661053  1
  C  C231  1  0.49845062  0.04653536  0.86717328  1
  C  C232  1  0.49551864  0.37854088  0.87179614  1
  C  C233  1  0.49783737  0.71127841  0.86821144  1
  C  C234  1  0.00063456  0.28621816  0.36629448  1
  C  C235  1  -0.00405719  0.62228872  0.36971927  1
  C  C236  1  -0.00183277  0.95391410  0.36338948  1
  C  C237  1  0.50151980  0.28722030  0.36844244  1
  C  C238  1  0.49736013  0.62356191  0.36742296  1
  C  C239  1  0.49984497  0.95420935  0.36470769  1
  C  C240  1  0.24863957  0.21291748  0.63018772  1
  C  C241  1  0.25254348  0.54510303  0.63459275  1
  C  C242  1  0.24661271  0.87719316  0.63229479  1
  C  C243  1  0.74871849  0.21263511  0.63206260  1
  C  C244  1  0.75439053  0.54846909  0.63210137  1
  C  C245  1  0.75262966  0.87780554  0.63437738  1
  C  C246  1  0.25048236  0.12058596  0.12947090  1
  C  C247  1  0.25261390  0.45279248  0.13086757  1
  C  C248  1  0.25144788  0.78787967  0.13398344  1
  C  C249  1  0.74452953  0.12074698  0.13286760  1
  C  C250  1  0.75424918  0.45362657  0.13204347  1
  C  C251  1  0.75421832  0.78830806  0.13163442  1
  C  C252  1  0.24992696  0.21317938  0.87216734  1
  C  C253  1  0.25213369  0.54400853  0.86525684  1
  C  C254  1  0.25151044  0.88030898  0.86934996  1
  C  C255  1  0.74320912  0.21283865  0.86817796  1
  C  C256  1  0.75550641  0.54568264  0.86588953  1
  C  C257  1  0.75360419  0.88036085  0.86996982  1
  C  C258  1  0.25426740  0.12314191  0.36999452  1
  C  C259  1  0.25240566  0.45335293  0.36653100  1
  C  C260  1  0.24347336  0.78621476  0.36625344  1
  C  C261  1  0.75454461  0.12163790  0.36905017  1
  C  C262  1  0.75635723  0.45115257  0.36446353  1
  C  C263  1  0.74969707  0.78565718  0.37147500  1
  C  C264  1  0.73375182  0.57781543  0.53617965  1
  C  C265  1  0.79956611  0.42748783  0.03931974  1
  C  C266  1  0.95801640  0.74059873  0.96018427  1
  C  C267  1  0.30554486  0.56886650  0.95537964  1
  C  C268  1  0.22639991  0.75997663  0.03713621  1
  C  C269  1  0.71729330  0.42726411  0.03740053  1
  C  C270  1  0.43726668  0.93093644  0.04246670  1
  C  C271  1  0.03988839  0.93165033  0.45780223  1
  C  C272  1  0.52616877  0.41034517  0.96658050  1
  C  C273  1  0.22968808  0.90912179  0.96534672  1
  C  C274  1  0.76528058  0.75860722  0.46893614  1
  C  C275  1  0.30882135  0.42590355  0.04360513  1
  C  C276  1  0.79143433  0.43402321  0.46108886  1
  C  C277  1  0.28643820  0.76032233  0.45764859  1
  C  C278  1  0.43316312  0.73910314  0.95232611  1
  C  C279  1  0.93509754  0.59212674  0.04612589  1
  C  C280  1  0.70236498  0.23946169  0.54174165  1
  C  C281  1  0.27257203  0.24406882  0.96848835  1
  C  C282  1  0.44262930  0.59190213  0.45399803  1
  C  C283  1  0.22915659  0.42944180  0.46469884  1
  C  C284  1  0.77315814  0.89998747  0.53561864  1
  C  C285  1  0.71450742  0.09199749  0.03927632  1
  C  C286  1  0.95790900  0.93155638  0.45817659  1
  C  C287  1  0.51804413  0.92815264  0.03338646  1
  C  C288  1  0.51929516  0.07336224  0.53831722  1
  C  C289  1  0.47331337  0.07526977  0.96208496  1
  C  C290  1  0.01977494  0.07395529  0.53875163  1
  C  C291  1  0.69221594  0.90015477  0.54593600  1
  C  C292  1  0.02762736  0.59134361  0.46309010  1
  C  C293  1  0.27083393  0.08837503  0.03497422  1
  C  C294  1  0.94773598  0.40862755  0.95747491  1
  C  C295  1  0.22374756  0.56914023  0.96188342  1
  C  C296  1  0.30970011  0.43031701  0.45532786  1
  C  C297  1  0.47290067  0.74431501  0.53857755  1
  C  C298  1  0.96607706  0.74373960  0.53889425  1
  C  C299  1  0.55252817  0.25820565  0.45694583  1
  C  C300  1  0.30724877  0.09010932  0.45793774  1
  C  C301  1  0.71593126  0.91193599  0.96321295  1
  C  C302  1  0.68522132  0.76228150  0.45805921  1
  C  C303  1  0.79127491  0.57238779  0.95928623  1
  C  C304  1  0.53160239  0.59134560  0.04217986  1
  C  C305  1  0.03958003  0.40436416  0.54165203  1
  C  C306  1  0.30725885  0.76304045  0.04492410  1
  C  C307  1  0.81979150  0.75979421  0.04711699  1
  C  C308  1  0.80781400  0.09178509  0.45820554  1
  C  C309  1  0.21607491  0.57322763  0.54204776  1
  C  C310  1  0.05862598  0.26073263  0.04109400  1
  C  C311  1  0.30812977  0.90604365  0.54717189  1
  N  N312  1  0.28400539  0.24144492  0.53626946  1
  N  N313  1  0.02476739  0.41031471  0.96471644  1
  N  N314  1  0.22934403  0.90761280  0.53727113  1
  N  N315  1  0.44045457  0.07213196  0.54416050  1
  N  N316  1  0.53842433  0.92566626  0.45763415  1
  N  N317  1  0.51317104  0.40911973  0.53742607  1
  N  N318  1  0.79490122  0.90971598  0.96055019  1
  N  N319  1  0.51147018  0.74352978  0.96254268  1
  N  N320  1  0.97996379  0.25796387  0.03480284  1
  N  N321  1  0.55066324  0.07244434  0.95838620  1
  N  N322  1  0.43614805  0.40675320  0.54658919  1
  N  N323  1  0.72925073  0.09145153  0.46266631  1
  N  N324  1  0.44746701  0.40696720  0.96092992  1
  N  N325  1  0.04331728  0.74325825  0.53789076  1
  N  N326  1  0.52196779  0.59059501  0.46039560  1
  N  N327  1  0.79388084  0.09363092  0.04131151  1
  N  N328  1  0.55028872  0.74233478  0.54261039  1
  N  N329  1  0.20603123  0.24041106  0.54091152  1
  N  N330  1  0.19466734  0.24117551  0.95900157  1
  N  N331  1  0.94992828  0.59333734  0.46157604  1
  N  N332  1  0.95953413  0.40325792  0.53941258  1
  N  N333  1  0.01328237  0.58941926  0.03688527  1
  N  N334  1  0.29537197  0.57277756  0.54140859  1
  N  N335  1  0.05209386  0.26191032  0.45695613  1
  N  N336  1  0.19377745  0.09024921  0.04138089  1
  N  N337  1  0.04498189  0.07934803  0.96006699  1
  N  N338  1  0.02518484  0.92528279  0.03871950  1
  N  N339  1  0.97586564  0.25999756  0.46283359  1
  N  N340  1  0.45237047  0.59244178  0.04302881  1
  N  N341  1  0.96668180  0.06699334  0.96593674  1
  N  N342  1  0.71185974  0.57239061  0.95928786  1
  N  N343  1  0.55180408  0.26054604  0.04297112  1
  N  N344  1  0.47546313  0.25685445  0.46468851  1
  N  N345  1  0.23226953  0.42345783  0.03337430  1
  N  N346  1  0.03737656  0.74023833  0.96007542  1
  N  N347  1  0.46215448  0.92585762  0.45791972  1
  N  N348  1  0.22845205  0.09009394  0.46240550  1
  N  N349  1  0.94075865  0.07229052  0.54375637  1
  N  N350  1  0.71183813  0.43118752  0.45694611  1
  N  N351  1  0.70882119  0.24113975  0.95942111  1
  N  N352  1  0.81220260  0.57545495  0.54631483  1
  N  N353  1  0.47566584  0.25869443  0.03762273  1
  N  N354  1  0.78148343  0.24131726  0.53664084  1
  N  N355  1  0.30836825  0.90845002  0.95569882  1
  N  N356  1  0.94860373  0.92580493  0.04268082  1
  N  N357  1  0.74180680  0.75691859  0.03686873  1
  N  N358  1  0.78724064  0.24152153  0.95992869  1
  N  N359  1  0.20719560  0.75953342  0.46135408  1
  N  N360  1  0.05481625  0.05857911  0.59370730  1
  N  N361  1  0.06138802  0.39069343  0.59999580  1
  N  N362  1  0.06598578  0.72336275  0.59608361  1
  N  N363  1  0.55526971  0.05745496  0.59281646  1
  N  N364  1  0.55356951  0.38938976  0.58752165  1
  N  N365  1  0.56773289  0.72277149  0.60173025  1
  N  N366  1  0.44311653  0.27523537  0.09329732  1
  N  N367  1  0.43328753  0.61052795  0.10135132  1
  N  N368  1  0.42433288  0.94639562  0.10183880  1
  N  N369  1  0.94390733  0.27628469  0.08887110  1
  N  N370  1  0.92649462  0.61051748  0.10508375  1
  N  N371  1  0.92902061  0.94339442  0.10148480  1
  N  N372  1  0.43888012  0.05952514  0.90753858  1
  N  N373  1  0.42817878  0.38744251  0.90258922  1
  N  N374  1  0.42475053  0.72031753  0.89336946  1
  N  N375  1  0.93951433  0.05773649  0.90748968  1
  N  N376  1  0.92868231  0.39028721  0.89908502  1
  N  N377  1  0.92979169  0.72499620  0.90284234  1
  N  N378  1  0.06855469  0.27816736  0.39707695  1
  N  N379  1  0.05787051  0.60847098  0.40748230  1
  N  N380  1  0.06369057  0.94540485  0.39851662  1
  N  N381  1  0.57107959  0.27601697  0.39830933  1
  N  N382  1  0.55554687  0.61345977  0.40789897  1
  N  N383  1  0.56327167  0.94293416  0.39993918  1
  N  N384  1  0.31013529  0.22441197  0.59231960  1
  N  N385  1  0.31652837  0.55531037  0.59967618  1
  N  N386  1  0.31858063  0.88913381  0.60650773  1
  N  N387  1  0.80875604  0.22440221  0.59352978  1
  N  N388  1  0.82469315  0.55734590  0.60531585  1
  N  N389  1  0.80971806  0.88639951  0.59128757  1
  N  N390  1  0.18115018  0.11068070  0.10174117  1
  N  N391  1  0.19698095  0.44061510  0.08909080  1
  N  N392  1  0.19265367  0.77592136  0.09402539  1
  N  N393  1  0.68278101  0.10824007  0.09505830  1
  N  N394  1  0.69065209  0.44346391  0.09542128  1
  N  N395  1  0.70061125  0.77722981  0.08802699  1
  N  N396  1  0.18012989  0.22181354  0.89966015  1
  N  N397  1  0.19195420  0.55371128  0.90541915  1
  N  N398  1  0.19372801  0.89218328  0.91172962  1
  N  N399  1  0.68056838  0.22323651  0.90431895  1
  N  N400  1  0.69151223  0.55586421  0.90079433  1
  N  N401  1  0.69017037  0.89378568  0.90710643  1
  N  N402  1  0.32340743  0.10984841  0.40061825  1
  N  N403  1  0.32325673  0.44446274  0.39611158  1
  N  N404  1  0.31019391  0.77648443  0.39962007  1
  N  N405  1  0.82386403  0.10987638  0.40014681  1
  N  N406  1  0.81929351  0.44716451  0.40397949  1
  N  N407  1  0.80432953  0.77277832  0.41685991  1
  N  N408  1  0.44351761  0.27564850  0.40834439  1
  N  N409  1  0.42736811  0.61032418  0.39576587  1
  N  N410  1  0.43677787  0.94338003  0.40045290  1
  N  N411  1  0.94271071  0.27479468  0.40680430  1
  N  N412  1  0.93013830  0.61283504  0.40234532  1
  N  N413  1  0.93322955  0.94490609  0.39915710  1
  N  N414  1  0.06729414  0.05583064  0.90524078  1
  N  N415  1  0.05631096  0.39184114  0.90813419  1
  N  N416  1  0.05757129  0.72379789  0.90156297  1
  N  N417  1  0.56633161  0.05440734  0.89777097  1
  N  N418  1  0.55625789  0.39268692  0.91123381  1
  N  N419  1  0.55150511  0.72345259  0.91170371  1
  N  N420  1  0.07216402  0.27815250  0.09987764  1
  N  N421  1  0.05373400  0.60980237  0.08854105  1
  N  N422  1  0.05535035  0.94273207  0.09485987  1
  N  N423  1  0.56898894  0.27852722  0.10223671  1
  N  N424  1  0.56131232  0.60846544  0.09821478  1
  N  N425  1  0.55347294  0.94281602  0.08993331  1
  N  N426  1  0.42805610  0.05533755  0.60370146  1
  N  N427  1  0.42837076  0.38858703  0.60540261  1
  N  N428  1  0.44026860  0.72601521  0.59274693  1
  N  N429  1  0.92746232  0.05566971  0.60315481  1
  N  N430  1  0.93258169  0.38275303  0.59612977  1
  N  N431  1  0.93765564  0.72527252  0.59464642  1
  N  N432  1  0.19468851  0.11233026  0.40890520  1
  N  N433  1  0.19414255  0.44403374  0.40798237  1
  N  N434  1  0.18218624  0.77547738  0.40394103  1
  N  N435  1  0.69511873  0.11144719  0.40827636  1
  N  N436  1  0.69091906  0.43816670  0.39630719  1
  N  N437  1  0.67708744  0.77882313  0.39652221  1
  N  N438  1  0.30720202  0.22665378  0.91488347  1
  N  N439  1  0.32161287  0.55340834  0.89526422  1
  N  N440  1  0.32105311  0.89101952  0.89659233  1
  N  N441  1  0.80772049  0.22449670  0.90253266  1
  N  N442  1  0.81928381  0.55676653  0.90196858  1
  N  N443  1  0.81900057  0.88956906  0.90330756  1
  N  N444  1  0.30787233  0.10643057  0.08764606  1
  N  N445  1  0.32371482  0.44316822  0.10316204  1
  N  N446  1  0.32224482  0.77957905  0.10360665  1
  N  N447  1  0.81075035  0.11132176  0.10023583  1
  N  N448  1  0.82074971  0.44350642  0.09862207  1
  N  N449  1  0.82736030  0.77770267  0.10631442  1
  N  N450  1  0.18274573  0.22293087  0.59756703  1
  N  N451  1  0.18847003  0.55671437  0.59892313  1
  N  N452  1  0.19153728  0.88611287  0.58908063  1
  N  N453  1  0.68094463  0.22279717  0.60030904  1
  N  N454  1  0.69736734  0.56090157  0.58936627  1
  N  N455  1  0.68114289  0.88656836  0.60733725  1
  Cl  Cl456  1  0.23806946  0.05846010  0.60835085  1
  Cl  Cl457  1  0.24289041  0.38518217  0.61981507  1
  Cl  Cl458  1  0.25629774  0.72321809  0.61228265  1
  Cl  Cl459  1  0.73890723  0.05973854  0.60914286  1
  Cl  Cl460  1  0.74056617  0.39477361  0.60087825  1
  Cl  Cl461  1  0.75398977  0.71725640  0.62734091  1
  Cl  Cl462  1  0.25736213  0.27617320  0.11417949  1
  Cl  Cl463  1  0.24074235  0.60720308  0.11160340  1
  Cl  Cl464  1  0.23932697  0.94474289  0.11763528  1
  Cl  Cl465  1  0.75529498  0.27542234  0.11247640  1
  Cl  Cl466  1  0.74504930  0.61682469  0.12235923  1
  Cl  Cl467  1  0.74434920  0.94009173  0.11122750  1
  Cl  Cl468  1  0.25108720  0.05570295  0.88027472  1
  Cl  Cl469  1  0.24456154  0.38205855  0.88506016  1
  Cl  Cl470  1  0.24123799  0.72158275  0.87813641  1
  Cl  Cl471  1  0.75529835  0.04896879  0.88032855  1
  Cl  Cl472  1  0.74232469  0.38769415  0.87638625  1
  Cl  Cl473  1  0.73695604  0.72986850  0.89856132  1
  Cl  Cl474  1  0.25293771  0.27707430  0.38323361  1
  Cl  Cl475  1  0.24211258  0.61139073  0.37946671  1
  Cl  Cl476  1  0.25005061  0.94307246  0.39154270  1
  Cl  Cl477  1  0.75697679  0.28080565  0.38013979  1
  Cl  Cl478  1  0.74161503  0.61022303  0.39072515  1
  Cl  Cl479  1  0.74786106  0.94836955  0.38084464  1
  Cl  Cl480  1  -0.00113876  0.22059897  0.62088508  1
  Cl  Cl481  1  0.00577725  0.55006027  0.62522060  1
  Cl  Cl482  1  0.00215839  0.89026237  0.60794343  1
  Cl  Cl483  1  0.49534568  0.21907257  0.62069051  1
  Cl  Cl484  1  0.51003095  0.56133564  0.60312991  1
  Cl  Cl485  1  0.49840898  0.87981916  0.62514834  1
  Cl  Cl486  1  -0.00433565  0.11443939  0.11097935  1
  Cl  Cl487  1  0.00784567  0.45008182  0.12290154  1
  Cl  Cl488  1  0.00810342  0.77773816  0.12234127  1
  Cl  Cl489  1  0.49481650  0.11043704  0.11699094  1
  Cl  Cl490  1  0.50587147  0.44412570  0.11848644  1
  Cl  Cl491  1  0.51583181  0.77173481  0.10285887  1
  Cl  Cl492  1  -0.00831157  0.22207023  0.89182822  1
  Cl  Cl493  1  0.00689862  0.55857513  0.89489400  1
  Cl  Cl494  1  0.00499384  0.88963897  0.87711361  1
  Cl  Cl495  1  0.49573361  0.21916246  0.88565351  1
  Cl  Cl496  1  0.50782402  0.54961547  0.87688997  1
  Cl  Cl497  1  0.50684878  0.88538890  0.88710112  1
  Cl  Cl498  1  0.01131058  0.11016452  0.38297686  1
  Cl  Cl499  1  0.00425977  0.44181939  0.39214654  1
  Cl  Cl500  1  -0.00929201  0.77579446  0.38771149  1
  Cl  Cl501  1  0.51156072  0.11098323  0.38537667  1
  Cl  Cl502  1  0.50977675  0.44169214  0.39170824  1
  Cl  Cl503  1  0.49146709  0.77846940  0.37191390  1
  Cl  Cl504  1  0.35552759  0.14969484  0.74784657  1
  Cl  Cl505  1  0.36005274  0.47909104  0.74954111  1
  Cl  Cl506  1  0.36365987  0.81176485  0.75510443  1
  Cl  Cl507  1  0.85858481  0.14745014  0.75026722  1
  Cl  Cl508  1  0.86445297  0.47719045  0.74207834  1
  Cl  Cl509  1  0.85479049  0.81300941  0.75565477  1
  Cl  Cl510  1  0.13862854  0.18763747  0.24312041  1
  Cl  Cl511  1  0.14467509  0.51523250  0.25040464  1
  Cl  Cl512  1  0.13929369  0.85266865  0.25607956  1
  Cl  Cl513  1  0.64255868  0.18561570  0.25127968  1
  Cl  Cl514  1  0.63724407  0.52076099  0.25335178  1
  Cl  Cl515  1  0.64110673  0.84962594  0.25534395  1
  Cl  Cl516  1  0.13482997  0.14764133  0.75571478  1
  Cl  Cl517  1  0.14080607  0.48131845  0.75073704  1
  Cl  Cl518  1  0.14260984  0.81604578  0.75044257  1
  Cl  Cl519  1  0.63989423  0.14794240  0.75154705  1
  Cl  Cl520  1  0.64395727  0.48481701  0.74797233  1
  Cl  Cl521  1  0.63613188  0.81228780  0.74954679  1
  Cl  Cl522  1  0.36007245  0.18429644  0.25302520  1
  Cl  Cl523  1  0.36837518  0.52306991  0.25315041  1
  Cl  Cl524  1  0.36246105  0.85389825  0.24323881  1
  Cl  Cl525  1  0.86399967  0.18550011  0.24839612  1
  Cl  Cl526  1  0.85587204  0.52112473  0.24958542  1
  Cl  Cl527  1  0.86301042  0.85382261  0.24806595  1
  Cl  Cl528  1  0.10578842  0.31564113  0.75197276  1
  Cl  Cl529  1  0.10815067  0.64888941  0.75070795  1
  Cl  Cl530  1  0.10978400  0.98107572  0.75064627  1
  Cl  Cl531  1  0.60771225  0.31487956  0.75112493  1
  Cl  Cl532  1  0.60573097  0.64738428  0.74913349  1
  Cl  Cl533  1  0.60933655  0.98085205  0.75297624  1
  Cl  Cl534  1  0.38722419  0.02075896  0.24912489  1
  Cl  Cl535  1  0.39292923  0.35252248  0.25319050  1
  Cl  Cl536  1  0.38563458  0.68821662  0.24278969  1
  Cl  Cl537  1  0.88817996  0.02010429  0.24901331  1
  Cl  Cl538  1  0.88892880  0.35506864  0.24666480  1
  Cl  Cl539  1  0.88701662  0.68664244  0.24563950  1
  Cl  Cl540  1  0.38890554  0.31473725  0.74938177  1
  Cl  Cl541  1  0.38724319  0.64575124  0.75209292  1
  Cl  Cl542  1  0.38507104  0.97933887  0.74488016  1
  Cl  Cl543  1  0.88325297  0.31287403  0.75421765  1
  Cl  Cl544  1  0.88755615  0.64478513  0.75228195  1
  Cl  Cl545  1  0.88939803  0.98123256  0.74617188  1
  Cl  Cl546  1  0.11290406  0.01972027  0.24933643  1
  Cl  Cl547  1  0.11046762  0.35201839  0.25085908  1
  Cl  Cl548  1  0.10801972  0.68352575  0.25118686  1
  Cl  Cl549  1  0.60860193  0.01747945  0.24710712  1
  Cl  Cl550  1  0.61793307  0.35476068  0.25246786  1
  Cl  Cl551  1  0.60634745  0.68631215  0.25356044  1
