# generated using pymatgen
data_H8PbC4(N3Cl2)2
_symmetry_space_group_name_H-M   'P 1'
_cell_length_a   16.62554023
_cell_length_b   22.51127223
_cell_length_c   21.59263457
_cell_angle_alpha   89.99944660
_cell_angle_beta   89.99609448
_cell_angle_gamma   90.00870561
_symmetry_Int_Tables_number   1
_chemical_formula_structural   H8PbC4(N3Cl2)2
_chemical_formula_sum   'H192 Pb24 C96 N144 Cl96'
_cell_volume   8081.30383098
_cell_formula_units_Z   24
loop_
 _symmetry_equiv_pos_site_id
 _symmetry_equiv_pos_as_xyz
  1  'x, y, z'
loop_
 _atom_site_type_symbol
 _atom_site_label
 _atom_site_symmetry_multiplicity
 _atom_site_fract_x
 _atom_site_fract_y
 _atom_site_fract_z
 _atom_site_occupancy
  H  H0  1  0.00765594  0.02968784  0.67583044  1
  H  H1  1  0.01049276  0.36793955  0.67679376  1
  H  H2  1  0.01330190  0.69542194  0.67678745  1
  H  H3  1  0.49437940  0.03030307  0.67842270  1
  H  H4  1  0.48523149  0.36654065  0.67900948  1
  H  H5  1  0.48639301  0.69355758  0.67588036  1
  H  H6  1  -0.00267754  0.30516356  0.17799014  1
  H  H7  1  0.00340027  0.63381585  0.18230487  1
  H  H8  1  -0.01636086  0.97097404  0.17500194  1
  H  H9  1  0.50939570  0.30616315  0.17996874  1
  H  H10  1  0.50457701  0.63399310  0.17997441  1
  H  H11  1  0.51032156  0.96649291  0.17993911  1
  H  H12  1  0.00723023  0.03066123  0.82176881  1
  H  H13  1  0.00620237  0.36199706  0.82239115  1
  H  H14  1  0.00360669  0.69909204  0.81815374  1
  H  H15  1  0.48932380  0.03250092  0.81876037  1
  H  H16  1  0.49808367  0.36032815  0.82268346  1
  H  H17  1  0.50552214  0.69759397  0.81762111  1
  H  H18  1  0.00447426  0.30277897  0.31924044  1
  H  H19  1  0.01451094  0.63607176  0.32573357  1
  H  H20  1  -0.00471137  0.97268584  0.32035761  1
  H  H21  1  0.50158756  0.30150842  0.32082111  1
  H  H22  1  0.48535978  0.63809250  0.32236051  1
  H  H23  1  0.51204058  0.96743635  0.32508350  1
  H  H24  1  0.24401050  0.19346949  0.67530420  1
  H  H25  1  0.25085461  0.53022135  0.67976360  1
  H  H26  1  0.24791961  0.86402954  0.67964786  1
  H  H27  1  0.74948681  0.19609368  0.67703352  1
  H  H28  1  0.74051291  0.52837555  0.67928290  1
  H  H29  1  0.74236396  0.86454424  0.67618885  1
  H  H30  1  0.25917577  0.13669038  0.17892331  1
  H  H31  1  0.25326050  0.47095894  0.17651333  1
  H  H32  1  0.25025857  0.80072002  0.18439629  1
  H  H33  1  0.74353695  0.13602068  0.17673237  1
  H  H34  1  0.75110731  0.46954936  0.17874682  1
  H  H35  1  0.74659443  0.79838954  0.18548460  1
  H  H36  1  0.25597290  0.19812180  0.82230363  1
  H  H37  1  0.24851061  0.52869105  0.81915018  1
  H  H38  1  0.25103904  0.86382954  0.82501505  1
  H  H39  1  0.74558673  0.19679925  0.82203242  1
  H  H40  1  0.75031210  0.53253724  0.81895366  1
  H  H41  1  0.74774130  0.86677712  0.81963984  1
  H  H42  1  0.25554352  0.13449624  0.32283482  1
  H  H43  1  0.26146079  0.47398844  0.32159182  1
  H  H44  1  0.25059560  0.80730671  0.31907912  1
  H  H45  1  0.74874158  0.13514873  0.32182447  1
  H  H46  1  0.73726824  0.47014585  0.32654792  1
  H  H47  1  0.74532624  0.80549536  0.32389638  1
  H  H48  1  0.11414027  0.06001525  0.59272764  1
  H  H49  1  0.12134095  0.39042718  0.59636992  1
  H  H50  1  0.12071864  0.72328513  0.59250445  1
  H  H51  1  0.61799722  0.04969178  0.60841254  1
  H  H52  1  0.62619663  0.38344047  0.62630862  1
  H  H53  1  0.62604238  0.71819836  0.62311140  1
  H  H54  1  0.37950021  0.28193399  0.11390533  1
  H  H55  1  0.36960986  0.61300725  0.11898276  1
  H  H56  1  0.36695081  0.95164886  0.13186525  1
  H  H57  1  0.88194419  0.27614326  0.10123368  1
  H  H58  1  0.86948358  0.61358746  0.11809538  1
  H  H59  1  0.86969250  0.94346061  0.09714221  1
  H  H60  1  0.38324727  0.05654000  0.90256510  1
  H  H61  1  0.37805645  0.38822161  0.89583759  1
  H  H62  1  0.37413312  0.71853523  0.88309305  1
  H  H63  1  0.87256911  0.05115861  0.88360776  1
  H  H64  1  0.87242476  0.38519686  0.88431033  1
  H  H65  1  0.87501236  0.71532092  0.88775201  1
  H  H66  1  0.11277590  0.27597637  0.40153722  1
  H  H67  1  0.11789751  0.60773268  0.40975883  1
  H  H68  1  0.11751493  0.94714814  0.39318249  1
  H  H69  1  0.61269546  0.27481674  0.40083634  1
  H  H70  1  0.61854789  0.61601068  0.38479072  1
  H  H71  1  0.61656611  0.94090848  0.40769692  1
  H  H72  1  0.38317296  0.21502563  0.62206118  1
  H  H73  1  0.37635338  0.55588173  0.60897091  1
  H  H74  1  0.37886762  0.88678906  0.61750042  1
  H  H75  1  0.88405965  0.21798844  0.61689019  1
  H  H76  1  0.87436552  0.54991605  0.61768175  1
  H  H77  1  0.87563289  0.88313564  0.61727434  1
  H  H78  1  0.12339386  0.11771901  0.12037103  1
  H  H79  1  0.12667113  0.44511279  0.10809481  1
  H  H80  1  0.12674253  0.77777726  0.11488024  1
  H  H81  1  0.62753730  0.11204037  0.10111404  1
  H  H82  1  0.62884934  0.44463380  0.10628867  1
  H  H83  1  0.62654918  0.77832160  0.11182396  1
  H  H84  1  0.12142608  0.21972614  0.88284401  1
  H  H85  1  0.13282411  0.55355100  0.89669514  1
  H  H86  1  0.13422454  0.89115844  0.90003032  1
  H  H87  1  0.62283365  0.21908301  0.89409896  1
  H  H88  1  0.63453752  0.55367654  0.89502546  1
  H  H89  1  0.63383505  0.88992051  0.89678476  1
  H  H90  1  0.37839063  0.10903111  0.39391555  1
  H  H91  1  0.36436562  0.44278355  0.40750395  1
  H  H92  1  0.37394552  0.77895455  0.39043132  1
  H  H93  1  0.88259985  0.11309809  0.38378555  1
  H  H94  1  0.87632064  0.45423566  0.38255007  1
  H  H95  1  0.87334906  0.77918778  0.39083734  1
  H  H96  1  0.36515291  0.27801520  0.37855459  1
  H  H97  1  0.37000920  0.60833936  0.39831358  1
  H  H98  1  0.37216917  0.95308566  0.37708014  1
  H  H99  1  0.86638687  0.28281558  0.37697382  1
  H  H100  1  0.87417836  0.62059712  0.37519517  1
  H  H101  1  0.86851985  0.94586257  0.38667141  1
  H  H102  1  0.11939314  0.05779733  0.90180872  1
  H  H103  1  0.11969929  0.39037634  0.90084112  1
  H  H104  1  0.12232250  0.72567670  0.89067379  1
  H  H105  1  0.62886182  0.04998485  0.87099156  1
  H  H106  1  0.62640298  0.38513017  0.89016672  1
  H  H107  1  0.62277328  0.72274358  0.89282739  1
  H  H108  1  0.12937334  0.28341267  0.11635220  1
  H  H109  1  0.11799618  0.60775223  0.10469453  1
  H  H110  1  0.11769493  0.94795091  0.11488196  1
  H  H111  1  0.62756395  0.27688304  0.10364265  1
  H  H112  1  0.61668494  0.60729206  0.09890865  1
  H  H113  1  0.61071426  0.94393395  0.09324015  1
  H  H114  1  0.36833280  0.05360903  0.60942429  1
  H  H115  1  0.38277088  0.39519041  0.59113842  1
  H  H116  1  0.38139608  0.72430914  0.59092878  1
  H  H117  1  0.86859956  0.04725884  0.62071125  1
  H  H118  1  0.87500934  0.38414900  0.61895731  1
  H  H119  1  0.87541731  0.71752444  0.62060084  1
  H  H120  1  0.12933830  0.11244764  0.39269699  1
  H  H121  1  0.12001671  0.45485403  0.37138704  1
  H  H122  1  0.12445028  0.77904529  0.38438087  1
  H  H123  1  0.63568727  0.10857599  0.40126731  1
  H  H124  1  0.63195885  0.43594733  0.40849753  1
  H  H125  1  0.62463033  0.77921536  0.39680824  1
  H  H126  1  0.36994873  0.22507743  0.89905860  1
  H  H127  1  0.38110515  0.55200229  0.88263068  1
  H  H128  1  0.38254911  0.88690814  0.88822338  1
  H  H129  1  0.87205531  0.21827011  0.88801583  1
  H  H130  1  0.88318069  0.55041821  0.88180404  1
  H  H131  1  0.88197470  0.88349470  0.88123488  1
  H  H132  1  0.36970917  0.10849108  0.09884777  1
  H  H133  1  0.37571440  0.44408538  0.10593674  1
  H  H134  1  0.37599160  0.78391599  0.11463656  1
  H  H135  1  0.87531378  0.11615529  0.11494995  1
  H  H136  1  0.87768270  0.44690578  0.11062475  1
  H  H137  1  0.87585741  0.78446775  0.11819526  1
  H  H138  1  0.13737530  0.22422662  0.59284575  1
  H  H139  1  0.12733063  0.55353762  0.60647593  1
  H  H140  1  0.12977067  0.88928628  0.60598910  1
  H  H141  1  0.63728095  0.22332933  0.59774090  1
  H  H142  1  0.62651125  0.55745730  0.60196145  1
  H  H143  1  0.62791557  0.88847215  0.59822630  1
  H  H144  1  0.83748032  0.77424596  0.00258488  1
  H  H145  1  0.33050403  0.77376605  -0.00080242  1
  H  H146  1  0.90680662  0.41506901  0.99040007  1
  H  H147  1  0.16796229  0.74920601  0.49590554  1
  H  H148  1  0.17371028  0.74791159  0.00401768  1
  H  H149  1  0.19630654  0.57974527  1.00431957  1
  H  H150  1  0.35066917  0.91944653  0.99695442  1
  H  H151  1  0.46454781  0.42184230  0.49447085  1
  H  H152  1  0.85348131  0.25275638  0.51142313  1
  H  H153  1  0.61565802  0.08026667  0.98438534  1
  H  H154  1  0.18366018  0.92316270  0.49846748  1
  H  H155  1  0.30927853  0.25766605  1.00547009  1
  H  H156  1  0.93196327  0.70647131  0.99396549  1
  H  H157  1  0.05378331  0.57971042  -0.00243597  1
  H  H158  1  0.29875391  0.09322274  -0.00328224  1
  H  H159  1  0.04349702  0.74625666  0.49248447  1
  H  H160  1  0.53341334  0.91743422  -0.01051923  1
  H  H161  1  0.42002387  0.71469871  0.99380936  1
  H  H162  1  0.46168975  0.75079081  0.49284504  1
  H  H163  1  0.58049782  0.41183265  0.99554905  1
  H  H164  1  0.88720513  0.58817782  0.49037606  1
  H  H165  1  0.54627610  0.24640344  0.50698607  1
  H  H166  1  0.67770359  0.76466325  -0.00189735  1
  H  H167  1  0.54633822  0.57925919  -0.00142135  1
  H  H168  1  0.57212473  0.07630639  0.49602001  1
  H  H169  1  0.70527590  0.42056237  0.50840632  1
  H  H170  1  0.45418539  0.08325082  1.00766434  1
  H  H171  1  0.15512587  0.07178957  0.02165970  1
  H  H172  1  0.28668424  0.42153886  0.50630435  1
  H  H173  1  0.08416535  0.91742273  0.00777597  1
  H  H174  1  0.32016251  0.75886092  0.49692381  1
  H  H175  1  0.34989889  0.91994004  0.50595563  1
  H  H176  1  0.04268582  0.24998872  0.50602945  1
  H  H177  1  0.05512875  0.77501652  0.98157045  1
  H  H178  1  0.69259656  0.57976954  1.00587468  1
  H  H179  1  0.90163196  0.08147349  0.98969996  1
  H  H180  1  0.70651807  0.23703186  0.49457169  1
  H  H181  1  0.83139707  0.24684667  1.00116889  1
  H  H182  1  0.85914638  0.41758315  0.48908777  1
  H  H183  1  0.69441753  0.92136452  1.00522191  1
  H  H184  1  0.15071522  0.24915474  0.99069470  1
  H  H185  1  0.13154039  0.42053333  0.48317731  1
  H  H186  1  0.56650730  0.74152965  1.00401174  1
  H  H187  1  0.85166307  0.08414690  0.49149072  1
  H  H188  1  0.38987150  0.25043691  0.48870313  1
  H  H189  1  0.84927678  0.91254481  0.50223793  1
  H  H190  1  0.21067288  0.24904120  0.49224801  1
  H  H191  1  0.68961576  0.59035824  0.49757812  1
  Pb  Pb192  1  0.25113127  0.04776869  0.75540382  1
  Pb  Pb193  1  0.25719024  0.38204328  0.74584967  1
  Pb  Pb194  1  0.25546876  0.71651722  0.74503481  1
  Pb  Pb195  1  0.75688797  0.04891179  0.74515229  1
  Pb  Pb196  1  0.75275390  0.38057724  0.74933586  1
  Pb  Pb197  1  0.75383490  0.71287176  0.75688237  1
  Pb  Pb198  1  0.24151185  0.28473547  0.25266528  1
  Pb  Pb199  1  0.24534038  0.61930617  0.25305109  1
  Pb  Pb200  1  0.24200136  0.95248091  0.25104846  1
  Pb  Pb201  1  0.74563039  0.28554128  0.24971016  1
  Pb  Pb202  1  0.74062358  0.61721726  0.24806523  1
  Pb  Pb203  1  0.74617840  0.95357486  0.24697292  1
  Pb  Pb204  1  0.00745744  0.21610393  0.74413394  1
  Pb  Pb205  1  0.00526525  0.54702206  0.75100233  1
  Pb  Pb206  1  0.00447807  0.88018020  0.75383896  1
  Pb  Pb207  1  0.50404125  0.21293361  0.74768351  1
  Pb  Pb208  1  0.50677402  0.54877479  0.75174137  1
  Pb  Pb209  1  0.50824144  0.88301072  0.75111114  1
  Pb  Pb210  1  -0.00351181  0.12120629  0.24918822  1
  Pb  Pb211  1  -0.00432443  0.45358533  0.24383162  1
  Pb  Pb212  1  -0.00769634  0.78347806  0.24871986  1
  Pb  Pb213  1  0.49719069  0.11859520  0.24980962  1
  Pb  Pb214  1  0.49270823  0.45074556  0.25557854  1
  Pb  Pb215  1  0.49771420  0.78687240  0.25119369  1
  C  C216  1  -0.00311472  0.04516627  0.62913508  1
  C  C217  1  0.00209462  0.38048973  0.62885523  1
  C  C218  1  0.00380266  0.71083318  0.62974959  1
  C  C219  1  0.49398801  0.04437117  0.63048175  1
  C  C220  1  0.49776823  0.38119597  0.63217597  1
  C  C221  1  0.49745809  0.71082834  0.62974240  1
  C  C222  1  0.00280388  0.28880212  0.13111167  1
  C  C223  1  -0.00347048  0.61902988  0.13477703  1
  C  C224  1  -0.00917666  0.95443385  0.12822900  1
  C  C225  1  0.50566272  0.28943964  0.13291954  1
  C  C226  1  0.49712386  0.61852837  0.13271349  1
  C  C227  1  0.49569415  0.95351755  0.13276486  1
  C  C228  1  -0.00046493  0.04610470  0.86899569  1
  C  C229  1  -0.00094536  0.37855844  0.86922702  1
  C  C230  1  -0.00021206  0.71310213  0.86617712  1
  C  C231  1  0.50098680  0.04650492  0.86608436  1
  C  C232  1  0.50124979  0.37716565  0.86962741  1
  C  C233  1  0.49973793  0.71202135  0.86544021  1
  C  C234  1  -0.00603138  0.28837968  0.36653537  1
  C  C235  1  0.00114409  0.62146310  0.37241254  1
  C  C236  1  -0.00595382  0.95556638  0.36707445  1
  C  C237  1  0.49224853  0.28577460  0.36790710  1
  C  C238  1  0.49153953  0.62104145  0.36890845  1
  C  C239  1  0.49982012  0.95343631  0.37209962  1
  C  C240  1  0.25468844  0.21020491  0.62884666  1
  C  C241  1  0.25159576  0.54631207  0.63239237  1
  C  C242  1  0.25229393  0.88047678  0.63241999  1
  C  C243  1  0.75721374  0.21208940  0.62983049  1
  C  C244  1  0.74727040  0.54490481  0.63240869  1
  C  C245  1  0.74937799  0.87885012  0.62858460  1
  C  C246  1  0.25058460  0.12129441  0.13159622  1
  C  C247  1  0.25168343  0.45371607  0.12985172  1
  C  C248  1  0.25121137  0.78769060  0.13593185  1
  C  C249  1  0.74886949  0.12145030  0.12914398  1
  C  C250  1  0.75237336  0.45413251  0.13137068  1
  C  C251  1  0.74994590  0.78701138  0.13665694  1
  C  C252  1  0.24852929  0.21379685  0.86966841  1
  C  C253  1  0.25435738  0.54447146  0.86638846  1
  C  C254  1  0.25651142  0.88095932  0.87171876  1
  C  C255  1  0.74740183  0.21126445  0.86981465  1
  C  C256  1  0.75588274  0.54547839  0.86703272  1
  C  C257  1  0.75441278  0.88074938  0.86737433  1
  C  C258  1  0.25424959  0.11896248  0.37015439  1
  C  C259  1  0.24874590  0.45828595  0.36825123  1
  C  C260  1  0.25032091  0.78980139  0.36599368  1
  C  C261  1  0.75603294  0.11904719  0.36884954  1
  C  C262  1  0.74837623  0.45412970  0.37335251  1
  C  C263  1  0.74803766  0.78879552  0.37077602  1
  C  C264  1  0.30243019  0.90924778  0.54218194  1
  C  C265  1  0.31675925  0.23792276  0.54282951  1
  C  C266  1  0.29292397  0.77115382  0.04018013  1
  C  C267  1  0.80806780  0.56733374  0.95791472  1
  C  C268  1  0.43658788  0.93013904  0.45825300  1
  C  C269  1  0.20642616  0.75927216  0.45653442  1
  C  C270  1  0.93706232  0.59650578  0.45861900  1
  C  C271  1  0.28681332  0.42182900  0.03834904  1
  C  C272  1  0.42624787  0.93208987  0.04812657  1
  C  C273  1  0.71433609  0.77106304  0.03926833  1
  C  C274  1  0.50588896  0.92867110  0.03381903  1
  C  C275  1  0.56424620  0.07093534  0.95271881  1
  C  C276  1  0.79368847  0.42664927  0.03920830  1
  C  C277  1  0.28976789  0.09000088  0.46258228  1
  C  C278  1  0.53271032  0.06811515  0.53522779  1
  C  C279  1  0.72699834  0.56931836  0.96434352  1
  C  C280  1  0.01279087  0.26215565  0.46284379  1
  C  C281  1  0.72109567  0.90557049  0.53277864  1
  C  C282  1  0.02173601  0.59259419  0.03949099  1
  C  C283  1  0.71843825  0.09461431  0.03405935  1
  C  C284  1  0.72257828  0.57693427  0.53889572  1
  C  C285  1  0.80889866  0.90557945  0.95690831  1
  C  C286  1  0.22040563  0.91043956  0.53795760  1
  C  C287  1  0.05188642  0.26017823  0.04155085  1
  C  C288  1  0.79607498  0.77437027  0.04149647  1
  C  C289  1  0.22859755  0.57080972  0.96146651  1
  C  C290  1  0.80246986  0.90390661  0.53764254  1
  C  C291  1  0.95262007  0.92411790  0.45768555  1
  C  C292  1  0.72801683  0.90869509  0.96401021  1
  C  C293  1  0.96173303  0.92172635  0.03343194  1
  C  C294  1  0.51609893  0.25742706  0.46368806  1
  C  C295  1  0.70876775  0.23641990  0.96406110  1
  C  C296  1  0.18285278  0.42974528  0.45144118  1
  C  C297  1  0.93946557  0.07132628  0.54222211  1
  C  C298  1  0.21126383  0.76433716  0.04133868  1
  C  C299  1  0.45118205  0.06893021  0.53710686  1
  C  C300  1  0.80063796  0.09574002  0.03889753  1
  C  C301  1  0.27621386  0.24435736  0.96418022  1
  C  C302  1  0.94576267  0.40308393  0.53966010  1
  C  C303  1  0.53311985  0.73489172  0.96121962  1
  C  C304  1  0.71496770  0.75864945  0.46344235  1
  C  C305  1  0.46501157  0.58714467  0.46135446  1
  C  C306  1  0.48338598  0.07277344  0.96396655  1
  C  C307  1  0.01722646  0.59205978  0.46909240  1
  C  C308  1  0.79031272  0.23700080  0.96346506  1
  C  C309  1  0.02614660  0.40542559  0.53216300  1
  C  C310  1  0.22449582  0.91237973  0.96643361  1
  C  C311  1  0.51584645  0.92574556  0.46823682  1
  N  N312  1  0.80145638  0.57442684  0.54399046  1
  N  N313  1  0.26111621  0.42560180  0.46272892  1
  N  N314  1  0.19485318  0.09936383  0.04378353  1
  N  N315  1  0.28615190  0.75887673  0.45739590  1
  N  N316  1  0.54243015  0.58988804  0.45856211  1
  N  N317  1  0.80837614  0.43253422  0.45972377  1
  N  N318  1  0.02720191  0.07389013  0.96469591  1
  N  N319  1  0.27358210  0.08622633  0.03963154  1
  N  N320  1  0.20940271  0.42195932  0.03783658  1
  N  N321  1  0.44054195  0.59459205  0.04376178  1
  N  N322  1  0.81066764  0.23440500  0.54159351  1
  N  N323  1  0.79219253  0.75867962  0.46291421  1
  N  N324  1  0.97438936  0.25729409  0.03550063  1
  N  N325  1  0.56442776  0.40598073  0.54771579  1
  N  N326  1  0.02818759  0.40937968  0.96367205  1
  N  N327  1  0.21251916  0.09142349  0.46366680  1
  N  N328  1  0.29083964  0.57544535  0.53989407  1
  N  N329  1  0.03027942  0.92408553  0.46095374  1
  N  N330  1  0.21457206  0.57480077  0.53911721  1
  N  N331  1  0.30339186  0.91016504  0.96140079  1
  N  N332  1  0.45269414  0.73307847  0.95816555  1
  N  N333  1  0.51812818  0.59274288  0.03837941  1
  N  N334  1  0.48767683  0.41038879  0.53772851  1
  N  N335  1  0.53595259  0.25800809  0.03916035  1
  N  N336  1  0.01594349  0.07595843  0.53201336  1
  N  N337  1  0.46383487  0.40704064  0.96268895  1
  N  N338  1  0.94245740  0.73879248  0.54418688  1
  N  N339  1  0.95339040  0.73365057  0.95923269  1
  N  N340  1  0.03706992  0.73584908  0.96117260  1
  N  N341  1  0.30752323  0.57173827  0.95648385  1
  N  N342  1  0.04029884  0.92430724  0.04041075  1
  N  N343  1  0.73236773  0.24462585  0.53719637  1
  N  N344  1  0.01948853  0.74072278  0.53597171  1
  N  N345  1  0.43726887  0.25805996  0.45486624  1
  N  N346  1  0.94271613  0.59662044  0.04348362  1
  N  N347  1  0.73184105  0.41652520  0.46542079  1
  N  N348  1  0.94899276  0.07154731  0.95704033  1
  N  N349  1  0.19683205  0.24229102  0.95746815  1
  N  N350  1  0.48430390  0.74420751  0.53696463  1
  N  N351  1  0.45969192  0.26011478  0.04218332  1
  N  N352  1  0.71568711  0.42570742  0.03647869  1
  N  N353  1  0.72755329  0.09186223  0.46448596  1
  N  N354  1  0.80544170  0.09296692  0.45709041  1
  N  N355  1  0.93439675  0.26560564  0.45517965  1
  N  N356  1  0.23856430  0.24141941  0.53426986  1
  N  N357  1  0.56117047  0.74234687  0.54657871  1
  N  N358  1  0.54200964  0.40658811  0.95893771  1
  N  N359  1  0.95032898  0.40766935  0.95642436  1
  N  N360  1  0.05181005  0.05897351  0.58737572  1
  N  N361  1  0.06032341  0.39138050  0.58696098  1
  N  N362  1  0.05889330  0.72120277  0.58684366  1
  N  N363  1  0.55824428  0.05294775  0.59454295  1
  N  N364  1  0.56991315  0.38842231  0.60677183  1
  N  N365  1  0.56875370  0.72322593  0.60490933  1
  N  N366  1  0.43952404  0.27950771  0.10031501  1
  N  N367  1  0.42798693  0.61045559  0.10275388  1
  N  N368  1  0.42100322  0.94678523  0.10860051  1
  N  N369  1  0.94375119  0.27576600  0.09267286  1
  N  N370  1  0.92881565  0.61170677  0.10338731  1
  N  N371  1  0.93080975  0.94021831  0.08791721  1
  N  N372  1  0.44511061  0.05741309  0.90952381  1
  N  N373  1  0.43901740  0.39039708  0.90605848  1
  N  N374  1  0.43330675  0.71495096  0.89855154  1
  N  N375  1  0.93172053  0.05457436  0.89937706  1
  N  N376  1  0.93144538  0.38798110  0.89972691  1
  N  N377  1  0.93480336  0.71368068  0.90131765  1
  N  N378  1  0.05068152  0.27626061  0.40893946  1
  N  N379  1  0.05597265  0.60707634  0.41712277  1
  N  N380  1  0.05606459  0.94427297  0.40322954  1
  N  N381  1  0.55069613  0.27431661  0.40975930  1
  N  N382  1  0.55895445  0.61117332  0.39953807  1
  N  N383  1  0.55485938  0.93998942  0.41583523  1
  N  N384  1  0.32720614  0.22020472  0.60213298  1
  N  N385  1  0.31537530  0.55820502  0.59773401  1
  N  N386  1  0.32037748  0.89096223  0.60118386  1
  N  N387  1  0.82583842  0.22427296  0.60152525  1
  N  N388  1  0.81535090  0.55437584  0.60239469  1
  N  N389  1  0.81852977  0.88737457  0.59861895  1
  N  N390  1  0.18123367  0.10938593  0.10447330  1
  N  N391  1  0.18730097  0.44200115  0.09618312  1
  N  N392  1  0.18659471  0.77523127  0.10104866  1
  N  N393  1  0.68807689  0.11011703  0.08973693  1
  N  N394  1  0.69008714  0.44339628  0.09524162  1
  N  N395  1  0.68682466  0.77888884  0.09879069  1
  N  N396  1  0.18031032  0.22269735  0.89946853  1
  N  N397  1  0.19431386  0.55496166  0.90640653  1
  N  N398  1  0.19536709  0.89466146  0.91081337  1
  N  N399  1  0.68294881  0.22115002  0.90751502  1
  N  N400  1  0.69543668  0.55537635  0.90639981  1
  N  N401  1  0.69489345  0.89277024  0.90696481  1
  N  N402  1  0.31839634  0.10658982  0.40627170  1
  N  N403  1  0.30182517  0.44662122  0.41229184  1
  N  N404  1  0.31298678  0.78135653  0.40256512  1
  N  N405  1  0.82367695  0.10931935  0.39919441  1
  N  N406  1  0.81898805  0.44706351  0.40040361  1
  N  N407  1  0.81314199  0.77773387  0.40383907  1
  N  N408  1  0.42299912  0.27661230  0.39618435  1
  N  N409  1  0.43115334  0.60584711  0.40769555  1
  N  N410  1  0.42699041  0.94666021  0.39864473  1
  N  N411  1  0.92412797  0.28176802  0.39488050  1
  N  N412  1  0.92857694  0.61461351  0.39753381  1
  N  N413  1  0.92806104  0.94269994  0.40070102  1
  N  N414  1  0.05776785  0.05824234  0.90943499  1
  N  N415  1  0.05809693  0.39207638  0.90865481  1
  N  N416  1  0.06116444  0.72947716  0.90110890  1
  N  N417  1  0.57319241  0.05473799  0.89191270  1
  N  N418  1  0.56628755  0.38629146  0.90345306  1
  N  N419  1  0.56180313  0.72416418  0.90409811  1
  N  N420  1  0.07134398  0.27887602  0.09981744  1
  N  N421  1  0.05634916  0.60707523  0.09486077  1
  N  N422  1  0.05884240  0.94502604  0.09851929  1
  N  N423  1  0.56591904  0.27613846  0.09519058  1
  N  N424  1  0.55444966  0.60673728  0.09210541  1
  N  N425  1  0.54847116  0.94237426  0.08780071  1
  N  N426  1  0.42808369  0.05485727  0.59479116  1
  N  N427  1  0.44544066  0.39434030  0.58811888  1
  N  N428  1  0.44367822  0.72267351  0.58625922  1
  N  N429  1  0.92523706  0.05297932  0.60160768  1
  N  N430  1  0.93178613  0.38798571  0.59934784  1
  N  N431  1  0.93323736  0.72185835  0.60304898  1
  N  N432  1  0.19002670  0.10962591  0.40482290  1
  N  N433  1  0.17544012  0.44817033  0.39234462  1
  N  N434  1  0.18398460  0.77667892  0.39938198  1
  N  N435  1  0.69746266  0.10751755  0.40921002  1
  N  N436  1  0.69330492  0.43975712  0.41522321  1
  N  N437  1  0.68491521  0.77678965  0.40811725  1
  N  N438  1  0.30868890  0.22669529  0.90963842  1
  N  N439  1  0.32180671  0.55519847  0.89724270  1
  N  N440  1  0.32330593  0.89098516  0.90297413  1
  N  N441  1  0.81310572  0.22123353  0.90368028  1
  N  N442  1  0.82510552  0.55343209  0.89917526  1
  N  N443  1  0.82441270  0.88889701  0.89861593  1
  N  N444  1  0.30777526  0.11167490  0.09005767  1
  N  N445  1  0.31568535  0.44087569  0.09368274  1
  N  N446  1  0.31667458  0.78472204  0.09959858  1
  N  N447  1  0.81726004  0.11198765  0.09755541  1
  N  N448  1  0.81804560  0.44346553  0.09671819  1
  N  N449  1  0.81694005  0.78360407  0.10236390  1
  N  N450  1  0.19967942  0.22228065  0.58675018  1
  N  N451  1  0.18866413  0.55649733  0.59621105  1
  N  N452  1  0.19056415  0.89246113  0.59448037  1
  N  N453  1  0.69914214  0.22066994  0.58882402  1
  N  N454  1  0.68795500  0.55884088  0.59285630  1
  N  N455  1  0.68916731  0.89061186  0.58750802  1
  Cl  Cl456  1  0.24157228  0.05859835  0.62446621  1
  Cl  Cl457  1  0.25996101  0.39227933  0.60040833  1
  Cl  Cl458  1  0.25430855  0.72972915  0.60007435  1
  Cl  Cl459  1  0.74391603  0.05174167  0.61464100  1
  Cl  Cl460  1  0.74899281  0.38926306  0.61291399  1
  Cl  Cl461  1  0.75105423  0.71742540  0.62799725  1
  Cl  Cl462  1  0.25551953  0.27852189  0.11757783  1
  Cl  Cl463  1  0.24067086  0.60835307  0.11765315  1
  Cl  Cl464  1  0.23915792  0.94894827  0.11668010  1
  Cl  Cl465  1  0.75429681  0.27746502  0.11652498  1
  Cl  Cl466  1  0.73841573  0.60950105  0.11249009  1
  Cl  Cl467  1  0.73957839  0.94723265  0.11184397  1
  Cl  Cl468  1  0.25208724  0.05985966  0.89766693  1
  Cl  Cl469  1  0.24949653  0.38464269  0.87843964  1
  Cl  Cl470  1  0.24607985  0.72562689  0.88134740  1
  Cl  Cl471  1  0.75524584  0.05142793  0.87671318  1
  Cl  Cl472  1  0.74915668  0.38642135  0.88064272  1
  Cl  Cl473  1  0.74916099  0.72308920  0.89205663  1
  Cl  Cl474  1  0.23548794  0.27374941  0.39442626  1
  Cl  Cl475  1  0.24269842  0.61307003  0.38466123  1
  Cl  Cl476  1  0.24009963  0.94778902  0.38282773  1
  Cl  Cl477  1  0.73526600  0.27111264  0.39159209  1
  Cl  Cl478  1  0.74156826  0.61455865  0.38060158  1
  Cl  Cl479  1  0.74286415  0.94479665  0.38073223  1
  Cl  Cl480  1  0.01405028  0.22338716  0.60738999  1
  Cl  Cl481  1  0.00418259  0.55216356  0.61902927  1
  Cl  Cl482  1  0.00629813  0.88300196  0.62607360  1
  Cl  Cl483  1  0.51532058  0.22423166  0.61057156  1
  Cl  Cl484  1  0.50105826  0.55448098  0.61909246  1
  Cl  Cl485  1  0.50556802  0.88583064  0.62036713  1
  Cl  Cl486  1  0.00009397  0.11461457  0.11678433  1
  Cl  Cl487  1  0.00105167  0.44464750  0.11197482  1
  Cl  Cl488  1  0.00139518  0.77773329  0.11314330  1
  Cl  Cl489  1  0.49178712  0.10789716  0.11422889  1
  Cl  Cl490  1  0.50494084  0.44509437  0.12139429  1
  Cl  Cl491  1  0.50174121  0.77052175  0.11694654  1
  Cl  Cl492  1  -0.00139770  0.21839779  0.87467175  1
  Cl  Cl493  1  0.01070821  0.55667639  0.88687730  1
  Cl  Cl494  1  0.01234970  0.88403432  0.89250242  1
  Cl  Cl495  1  0.49529655  0.22124388  0.87718437  1
  Cl  Cl496  1  0.51118210  0.55626626  0.88993483  1
  Cl  Cl497  1  0.50740635  0.88417776  0.88691969  1
  Cl  Cl498  1  0.00567795  0.11563079  0.37969000  1
  Cl  Cl499  1  -0.00397529  0.45317592  0.37521846  1
  Cl  Cl500  1  0.00174308  0.77355689  0.38648786  1
  Cl  Cl501  1  0.50904065  0.11166574  0.38422013  1
  Cl  Cl502  1  0.48961726  0.43920296  0.40034655  1
  Cl  Cl503  1  0.49513638  0.77249836  0.39143744  1
  Cl  Cl504  1  0.36322562  0.14812104  0.74564014  1
  Cl  Cl505  1  0.35954927  0.47785048  0.75327353  1
  Cl  Cl506  1  0.36111739  0.81145772  0.75359081  1
  Cl  Cl507  1  0.85917837  0.14563867  0.74273293  1
  Cl  Cl508  1  0.86498093  0.48077611  0.75048971  1
  Cl  Cl509  1  0.86753853  0.81157073  0.75682511  1
  Cl  Cl510  1  0.14423635  0.18629470  0.24519371  1
  Cl  Cl511  1  0.13651772  0.51680605  0.24909666  1
  Cl  Cl512  1  0.14288386  0.85074028  0.24915206  1
  Cl  Cl513  1  0.64003633  0.18120084  0.24913134  1
  Cl  Cl514  1  0.64447537  0.51719075  0.25343412  1
  Cl  Cl515  1  0.64014247  0.84896448  0.24959633  1
  Cl  Cl516  1  0.14287657  0.15054888  0.75744333  1
  Cl  Cl517  1  0.14272730  0.48115881  0.74741049  1
  Cl  Cl518  1  0.14447597  0.81705294  0.75346851  1
  Cl  Cl519  1  0.64207318  0.14720806  0.75210020  1
  Cl  Cl520  1  0.64250991  0.48202291  0.74646519  1
  Cl  Cl521  1  0.64510001  0.81543356  0.74944040  1
  Cl  Cl522  1  0.36188710  0.18943221  0.25443402  1
  Cl  Cl523  1  0.35956162  0.52009423  0.24894988  1
  Cl  Cl524  1  0.36303961  0.85722981  0.24585585  1
  Cl  Cl525  1  0.85907911  0.18611596  0.25579006  1
  Cl  Cl526  1  0.86265845  0.52307165  0.25152626  1
  Cl  Cl527  1  0.86096172  0.85407151  0.24995748  1
  Cl  Cl528  1  0.10526922  0.31578949  0.75033180  1
  Cl  Cl529  1  0.10874308  0.65108168  0.75084150  1
  Cl  Cl530  1  0.11058455  0.98377040  0.75551290  1
  Cl  Cl531  1  0.61408334  0.31497022  0.74530123  1
  Cl  Cl532  1  0.60660120  0.64971675  0.74815989  1
  Cl  Cl533  1  0.60888925  0.98036167  0.75268145  1
  Cl  Cl534  1  0.38059315  0.02074143  0.24917373  1
  Cl  Cl535  1  0.38910034  0.35584936  0.25578291  1
  Cl  Cl536  1  0.38354694  0.68749504  0.24599917  1
  Cl  Cl537  1  0.88957710  0.02002020  0.24883660  1
  Cl  Cl538  1  0.88230832  0.35382556  0.25531624  1
  Cl  Cl539  1  0.88836182  0.68810599  0.24873032  1
  Cl  Cl540  1  0.39223836  0.31399655  0.74643835  1
  Cl  Cl541  1  0.38594029  0.64451030  0.75626832  1
  Cl  Cl542  1  0.38790341  0.97884818  0.75312128  1
  Cl  Cl543  1  0.88577949  0.31106031  0.74281480  1
  Cl  Cl544  1  0.88942840  0.64561240  0.75015310  1
  Cl  Cl545  1  0.89011858  0.97907906  0.74970789  1
  Cl  Cl546  1  0.10824713  0.02067304  0.24302122  1
  Cl  Cl547  1  0.10543400  0.35103133  0.24948556  1
  Cl  Cl548  1  0.10723906  0.68456762  0.25205121  1
  Cl  Cl549  1  0.60411221  0.01511371  0.25158115  1
  Cl  Cl550  1  0.60848679  0.35216336  0.25780142  1
  Cl  Cl551  1  0.60447317  0.68352574  0.25247875  1
