# generated using pymatgen
data_H8PbC4(N3Cl2)2
_symmetry_space_group_name_H-M   'P 1'
_cell_length_a   16.62671076
_cell_length_b   22.51351706
_cell_length_c   21.59350970
_cell_angle_alpha   89.99974761
_cell_angle_beta   89.98394254
_cell_angle_gamma   89.99879724
_symmetry_Int_Tables_number   1
_chemical_formula_structural   H8PbC4(N3Cl2)2
_chemical_formula_sum   'H192 Pb24 C96 N144 Cl96'
_cell_volume   8083.00609861
_cell_formula_units_Z   24
loop_
 _symmetry_equiv_pos_site_id
 _symmetry_equiv_pos_as_xyz
  1  'x, y, z'
loop_
 _atom_site_type_symbol
 _atom_site_label
 _atom_site_symmetry_multiplicity
 _atom_site_fract_x
 _atom_site_fract_y
 _atom_site_fract_z
 _atom_site_occupancy
  H  H0  1  -0.01085003  0.03009288  0.68100177  1
  H  H1  1  -0.00141293  0.36075303  0.67688540  1
  H  H2  1  -0.00078653  0.69844322  0.67964468  1
  H  H3  1  0.50763980  0.03157025  0.68095383  1
  H  H4  1  0.49409474  0.36361477  0.67466027  1
  H  H5  1  0.49807176  0.69361235  0.68112842  1
  H  H6  1  -0.00089380  0.29982294  0.18133631  1
  H  H7  1  -0.00660235  0.63929170  0.17761935  1
  H  H8  1  0.00548203  0.96960982  0.17774827  1
  H  H9  1  0.49854572  0.30364906  0.17891126  1
  H  H10  1  0.49897456  0.63827838  0.17844443  1
  H  H11  1  0.49796146  0.97332017  0.17647089  1
  H  H12  1  0.00278096  0.03069374  0.82199122  1
  H  H13  1  -0.01183847  0.36477276  0.81947691  1
  H  H14  1  0.00610847  0.69746713  0.82574429  1
  H  H15  1  0.49443261  0.02941065  0.82185239  1
  H  H16  1  0.50897547  0.36068047  0.82552111  1
  H  H17  1  0.48860318  0.69563064  0.82365475  1
  H  H18  1  -0.00834731  0.30304730  0.32186440  1
  H  H19  1  0.01547632  0.63663176  0.32155038  1
  H  H20  1  0.00794203  0.96846157  0.31735852  1
  H  H21  1  0.51308973  0.30552824  0.32408438  1
  H  H22  1  0.48456648  0.63490724  0.32832929  1
  H  H23  1  0.49291156  0.97050970  0.31662293  1
  H  H24  1  0.25742582  0.19487611  0.67435768  1
  H  H25  1  0.23802564  0.52590508  0.67743605  1
  H  H26  1  0.24198108  0.86490046  0.68157064  1
  H  H27  1  0.74042694  0.19723470  0.67693436  1
  H  H28  1  0.76306413  0.53200279  0.67705889  1
  H  H29  1  0.75344080  0.86334160  0.67679258  1
  H  H30  1  0.24544738  0.14050182  0.17719860  1
  H  H31  1  0.23704689  0.46809409  0.17535597  1
  H  H32  1  0.25043514  0.80395252  0.18042616  1
  H  H33  1  0.75892385  0.13785517  0.17593915  1
  H  H34  1  0.76457724  0.46842717  0.18428585  1
  H  H35  1  0.75170647  0.80571803  0.17297578  1
  H  H36  1  0.24275512  0.19605525  0.82073859  1
  H  H37  1  0.25800448  0.53259930  0.82077240  1
  H  H38  1  0.24799138  0.86231340  0.82160861  1
  H  H39  1  0.76186577  0.19712616  0.81922395  1
  H  H40  1  0.74279709  0.53206695  0.82121837  1
  H  H41  1  0.74043109  0.86038106  0.82276239  1
  H  H42  1  0.25029137  0.13649191  0.32289109  1
  H  H43  1  0.24285258  0.47048804  0.32283931  1
  H  H44  1  0.26453604  0.80053455  0.32054879  1
  H  H45  1  0.74072203  0.13455951  0.31761789  1
  H  H46  1  0.75836023  0.47086384  0.32114555  1
  H  H47  1  0.73470181  0.80527930  0.32328303  1
  H  H48  1  0.12184395  0.05183166  0.62117396  1
  H  H49  1  0.12607459  0.38477293  0.60833958  1
  H  H50  1  0.12458373  0.72200638  0.60834830  1
  H  H51  1  0.61347312  0.05479812  0.59671526  1
  H  H52  1  0.62839121  0.38657697  0.61497629  1
  H  H53  1  0.62355931  0.72031819  0.61367271  1
  H  H54  1  0.38326245  0.27620837  0.10071669  1
  H  H55  1  0.38342030  0.60924972  0.10076329  1
  H  H56  1  0.36204627  0.95127035  0.11902168  1
  H  H57  1  0.88256230  0.27622786  0.10708101  1
  H  H58  1  0.87952174  0.61412263  0.09834518  1
  H  H59  1  0.86831923  0.95161346  0.12379260  1
  H  H60  1  0.37291204  0.05613700  0.89635641  1
  H  H61  1  0.37015614  0.38173512  0.88064361  1
  H  H62  1  0.38712324  0.72718802  0.90960150  1
  H  H63  1  0.86735435  0.04857481  0.88167168  1
  H  H64  1  0.87197535  0.39205272  0.89533129  1
  H  H65  1  0.87920941  0.71818799  0.89146434  1
  H  H66  1  0.12370947  0.28227946  0.38435661  1
  H  H67  1  0.11839280  0.60474392  0.40763828  1
  H  H68  1  0.11904806  0.94656636  0.39758327  1
  H  H69  1  0.61102944  0.27152665  0.41083778  1
  H  H70  1  0.62588336  0.61683275  0.37932983  1
  H  H71  1  0.61972820  0.94478937  0.38610022  1
  H  H72  1  0.37841983  0.22146916  0.60226907  1
  H  H73  1  0.37590065  0.55009847  0.62229131  1
  H  H74  1  0.37802455  0.88360207  0.62468080  1
  H  H75  1  0.88192608  0.21886191  0.62808397  1
  H  H76  1  0.86816659  0.55597780  0.59303996  1
  H  H77  1  0.87834516  0.88890238  0.60847603  1
  H  H78  1  0.13143009  0.11243238  0.09895693  1
  H  H79  1  0.13586562  0.44075717  0.08802374  1
  H  H80  1  0.11791333  0.78293417  0.11462002  1
  H  H81  1  0.63098132  0.11239145  0.10884784  1
  H  H82  1  0.63245303  0.45058161  0.12195075  1
  H  H83  1  0.62097576  0.77938220  0.11025883  1
  H  H84  1  0.12091345  0.22110228  0.89529765  1
  H  H85  1  0.11728191  0.54978602  0.87148660  1
  H  H86  1  0.13340219  0.88775191  0.89950128  1
  H  H87  1  0.61879191  0.21364644  0.86813785  1
  H  H88  1  0.61878259  0.55457301  0.89398465  1
  H  H89  1  0.62983371  0.88990477  0.90424869  1
  H  H90  1  0.38044473  0.11529580  0.38658119  1
  H  H91  1  0.37078872  0.44714149  0.39051755  1
  H  H92  1  0.36840405  0.77378312  0.40534527  1
  H  H93  1  0.87928173  0.11686567  0.37558156  1
  H  H94  1  0.87018629  0.44241299  0.40152307  1
  H  H95  1  0.87577876  0.78694131  0.37510863  1
  H  H96  1  0.36908556  0.29038114  0.37369671  1
  H  H97  1  0.38236940  0.60111983  0.41229402  1
  H  H98  1  0.37146289  0.94716906  0.39174443  1
  H  H99  1  0.87547681  0.27923841  0.39708743  1
  H  H100  1  0.87467941  0.61797458  0.37437447  1
  H  H101  1  0.87206608  0.94859573  0.37371257  1
  H  H102  1  0.11545038  0.05403073  0.90027333  1
  H  H103  1  0.11912134  0.38250449  0.88482377  1
  H  H104  1  0.12751444  0.72190894  0.89566042  1
  H  H105  1  0.62145901  0.05391719  0.89095784  1
  H  H106  1  0.61510643  0.39181798  0.90797684  1
  H  H107  1  0.63014501  0.71506252  0.87514095  1
  H  H108  1  0.13137249  0.28301211  0.11744171  1
  H  H109  1  0.12736589  0.61552618  0.11647738  1
  H  H110  1  0.11401873  0.94493615  0.09618107  1
  H  H111  1  0.63099205  0.27847212  0.11845268  1
  H  H112  1  0.63080463  0.61531474  0.11501112  1
  H  H113  1  0.60915630  0.94264258  0.09676917  1
  H  H114  1  0.36805082  0.04942202  0.62956010  1
  H  H115  1  0.38049039  0.39247359  0.59774902  1
  H  H116  1  0.37424741  0.72113295  0.61092517  1
  H  H117  1  0.87348461  0.05508859  0.60450207  1
  H  H118  1  0.87708918  0.38863809  0.60611889  1
  H  H119  1  0.87647029  0.72309725  0.60584639  1
  H  H120  1  0.13194696  0.11236650  0.39570543  1
  H  H121  1  0.12192772  0.44172503  0.39420046  1
  H  H122  1  0.12295444  0.78383750  0.37355417  1
  H  H123  1  0.63269269  0.10962572  0.40053524  1
  H  H124  1  0.62308249  0.44887931  0.38332686  1
  H  H125  1  0.63249870  0.77256782  0.40745833  1
  H  H126  1  0.36949185  0.22144338  0.88973983  1
  H  H127  1  0.36261561  0.55884465  0.90474201  1
  H  H128  1  0.38235472  0.88523275  0.88297088  1
  H  H129  1  0.86307553  0.22056733  0.90549017  1
  H  H130  1  0.86753565  0.55714556  0.88980519  1
  H  H131  1  0.87608838  0.88295946  0.88150431  1
  H  H132  1  0.37879363  0.11386607  0.11911977  1
  H  H133  1  0.37943150  0.44911733  0.12646297  1
  H  H134  1  0.36693495  0.77611631  0.10475406  1
  H  H135  1  0.87991349  0.11046970  0.10362156  1
  H  H136  1  0.88117099  0.44586689  0.10767007  1
  H  H137  1  0.86941322  0.77664652  0.09896052  1
  H  H138  1  0.13000853  0.22191282  0.60875137  1
  H  H139  1  0.13046849  0.55464596  0.59319915  1
  H  H140  1  0.13042193  0.89012761  0.60246922  1
  H  H141  1  0.63862102  0.22875458  0.59133247  1
  H  H142  1  0.62261188  0.54801012  0.62477519  1
  H  H143  1  0.62892739  0.88851570  0.60667059  1
  H  H144  1  0.21627398  0.41711676  -0.01070261  1
  H  H145  1  0.19437993  0.92158398  0.49605232  1
  H  H146  1  0.82364973  0.41721523  -0.00084918  1
  H  H147  1  0.94085869  0.44092642  0.98515332  1
  H  H148  1  0.54210711  0.07991972  0.49153494  1
  H  H149  1  0.45095460  0.58272812  -0.00215400  1
  H  H150  1  0.29388138  0.75042917  0.51026817  1
  H  H151  1  0.61159526  0.58093844  0.48944459  1
  H  H152  1  0.85722257  0.74629781  0.47866048  1
  H  H153  1  0.37967877  0.25250799  0.47910890  1
  H  H154  1  0.03765756  0.57885382  0.50485485  1
  H  H155  1  0.71233721  0.75843720  0.50668927  1
  H  H156  1  0.70419190  0.07990035  0.50389123  1
  H  H157  1  0.19820613  0.08401149  -0.00326112  1
  H  H158  1  0.35467075  0.91736113  0.51270666  1
  H  H159  1  0.66496865  0.42942156  0.00659664  1
  H  H160  1  0.09369109  0.08214536  0.50847050  1
  H  H161  1  0.57848424  0.74701655  0.50206436  1
  H  H162  1  0.92896474  0.08509573  0.49772761  1
  H  H163  1  0.13138410  0.58123763  -0.01490864  1
  H  H164  1  0.52653790  0.25419478  0.50861231  1
  H  H165  1  0.71806330  0.25271493  0.49256190  1
  H  H166  1  0.67922257  0.92036285  0.50246365  1
  H  H167  1  0.89315535  0.92239132  0.48814196  1
  H  H168  1  0.78616843  0.24589412  1.01008661  1
  H  H169  1  0.70064609  0.92784300  1.00020293  1
  H  H170  1  0.29025075  0.58784816  1.00863363  1
  H  H171  1  0.93932367  0.24773337  -0.00355834  1
  H  H172  1  0.59522093  0.42010904  0.50832650  1
  H  H173  1  0.53847883  0.40684856  1.00930376  1
  H  H174  1  0.39141643  0.41428021  0.98970740  1
  H  H175  1  0.20741707  0.58105013  0.49425387  1
  H  H176  1  0.42549095  0.74090582  0.50367957  1
  H  H177  1  0.05454556  0.92045979  0.50573723  1
  H  H178  1  0.14159186  0.75365235  0.48159728  1
  H  H179  1  0.92816523  0.25193063  0.50643726  1
  H  H180  1  0.05328369  0.08205584  1.00891910  1
  H  H181  1  0.35361108  0.91428303  0.99055795  1
  H  H182  1  0.65934980  0.74705433  0.00398147  1
  H  H183  1  0.37967448  0.07699678  0.51353722  1
  H  H184  1  0.59975452  0.24609291  0.00683922  1
  H  H185  1  0.30550109  0.74655394  -0.00221822  1
  H  H186  1  0.88815393  0.91968505  1.00955236  1
  H  H187  1  0.46814632  0.75038051  1.00797439  1
  H  H188  1  0.79824708  0.58134695  0.48790150  1
  H  H189  1  0.17047796  0.24985259  0.50268409  1
  H  H190  1  0.19508676  0.91770865  1.00627293  1
  H  H191  1  0.07141303  0.38596549  0.99369065  1
  Pb  Pb192  1  0.24872748  0.04662908  0.76160463  1
  Pb  Pb193  1  0.24861113  0.38081599  0.74959043  1
  Pb  Pb194  1  0.25109159  0.71332615  0.75403412  1
  Pb  Pb195  1  0.74798048  0.04762982  0.74208459  1
  Pb  Pb196  1  0.74854970  0.37981020  0.75691979  1
  Pb  Pb197  1  0.75225780  0.71279174  0.74469262  1
  Pb  Pb198  1  0.25129963  0.28672798  0.25046145  1
  Pb  Pb199  1  0.24587377  0.61587232  0.25574506  1
  Pb  Pb200  1  0.24780357  0.95264018  0.24872913  1
  Pb  Pb201  1  0.74673327  0.28377051  0.25804323  1
  Pb  Pb202  1  0.75440850  0.61981317  0.24256587  1
  Pb  Pb203  1  0.74415547  0.95097459  0.24766268  1
  Pb  Pb204  1  0.00073284  0.21343686  0.75716146  1
  Pb  Pb205  1  -0.00203919  0.54652550  0.73990992  1
  Pb  Pb206  1  0.00088382  0.88015121  0.74881992  1
  Pb  Pb207  1  0.49719807  0.21474231  0.73944954  1
  Pb  Pb208  1  0.49935019  0.54624968  0.76081337  1
  Pb  Pb209  1  0.50272086  0.87961235  0.75263792  1
  Pb  Pb210  1  0.00110145  0.11874506  0.24760143  1
  Pb  Pb211  1  -0.00123431  0.44877924  0.24368070  1
  Pb  Pb212  1  -0.00146624  0.78718147  0.24605359  1
  Pb  Pb213  1  0.50053199  0.12000061  0.25298842  1
  Pb  Pb214  1  0.50137656  0.45343279  0.25028395  1
  Pb  Pb215  1  0.49642232  0.78051920  0.25489288  1
  C  C216  1  -0.00493925  0.04587921  0.63361721  1
  C  C217  1  0.00089925  0.37805144  0.63021034  1
  C  C218  1  0.00001172  0.71331148  0.63178629  1
  C  C219  1  0.49582225  0.04535907  0.63355553  1
  C  C220  1  0.50135922  0.38087722  0.62816218  1
  C  C221  1  0.49814973  0.71020156  0.63385685  1
  C  C222  1  0.00412898  0.28636253  0.13339059  1
  C  C223  1  0.00048436  0.62316758  0.13081717  1
  C  C224  1  -0.00506018  0.95515960  0.13060542  1
  C  C225  1  0.50417378  0.28638227  0.13231792  1
  C  C226  1  0.50407571  0.62171711  0.13146811  1
  C  C227  1  0.48970770  0.95586682  0.13025646  1
  C  C228  1  -0.00464295  0.04447095  0.86967243  1
  C  C229  1  -0.00673647  0.37952255  0.86721829  1
  C  C230  1  0.00426477  0.71267759  0.87350634  1
  C  C231  1  0.49601440  0.04597442  0.86895858  1
  C  C232  1  0.49785684  0.37759288  0.87195657  1
  C  C233  1  0.50171608  0.71096717  0.87026374  1
  C  C234  1  -0.00341361  0.28838709  0.36951478  1
  C  C235  1  0.00323240  0.62074123  0.36803635  1
  C  C236  1  -0.00084434  0.95477624  0.36514753  1
  C  C237  1  0.49742416  0.28998595  0.37031046  1
  C  C238  1  0.49814372  0.61799294  0.37414048  1
  C  C239  1  0.49472869  0.95465062  0.36410328  1
  C  C240  1  0.25492195  0.21176237  0.62728303  1
  C  C241  1  0.24767128  0.54251581  0.63088140  1
  C  C242  1  0.25059630  0.87969665  0.63412939  1
  C  C243  1  0.75347693  0.21292622  0.63049250  1
  C  C244  1  0.75139091  0.54558147  0.62971009  1
  C  C245  1  0.75311943  0.88029914  0.62980173  1
  C  C246  1  0.25170201  0.12363209  0.13051328  1
  C  C247  1  0.25067917  0.45373344  0.12850558  1
  C  C248  1  0.24482522  0.78816731  0.13315216  1
  C  C249  1  0.75638517  0.12071627  0.12919763  1
  C  C250  1  0.75908309  0.45529871  0.13607978  1
  C  C251  1  0.74690678  0.78823231  0.12640854  1
  C  C252  1  0.24428921  0.21214816  0.86810173  1
  C  C253  1  0.24538713  0.54730100  0.86772213  1
  C  C254  1  0.25514593  0.87903082  0.86857996  1
  C  C255  1  0.74791285  0.21038216  0.86632840  1
  C  C256  1  0.74263035  0.54778072  0.86851905  1
  C  C257  1  0.74845577  0.87775586  0.86919478  1
  C  C258  1  0.25436141  0.12111614  0.37025981  1
  C  C259  1  0.24547309  0.45374619  0.36969912  1
  C  C260  1  0.25127367  0.78567589  0.36743333  1
  C  C261  1  0.75134967  0.12026445  0.36493747  1
  C  C262  1  0.75053457  0.45481557  0.36820271  1
  C  C263  1  0.74773470  0.78904340  0.36973738  1
  C  C264  1  0.51290320  0.06983712  0.53533123  1
  C  C265  1  0.01687530  0.92730950  0.03422261  1
  C  C266  1  0.26747153  0.75956103  0.46511887  1
  C  C267  1  0.02027913  0.07076031  0.96702061  1
  C  C268  1  0.73373771  0.09193916  0.46049058  1
  C  C269  1  0.04723054  0.07239317  0.54321613  1
  C  C270  1  0.97412326  0.26021944  0.03706076  1
  C  C271  1  0.18099489  0.57250372  0.95329658  1
  C  C272  1  0.47267323  0.41531040  0.53419312  1
  C  C273  1  0.68724695  0.56786511  0.54304642  1
  C  C274  1  0.26148324  0.57572791  0.96513859  1
  C  C275  1  0.22749656  0.90703838  0.96390760  1
  C  C276  1  0.96667229  0.26186363  0.46610633  1
  C  C277  1  0.82081312  0.24259913  0.54716266  1
  C  C278  1  0.96657512  0.41007343  0.53841093  1
  C  C279  1  0.75910301  0.23508546  0.96560677  1
  C  C280  1  0.78971841  0.43110219  0.03960792  1
  C  C281  1  0.54056151  0.73879582  0.54215487  1
  C  C282  1  0.29242608  0.23938490  0.53267028  1
  C  C283  1  0.21242957  0.42067993  0.46118557  1
  C  C284  1  0.30284262  0.09311049  0.46082267  1
  C  C285  1  0.43661458  0.92700563  0.04278273  1
  C  C286  1  0.93942920  0.06812874  0.95899654  1
  C  C287  1  0.04803977  0.26298683  0.46004135  1
  C  C288  1  0.27221848  0.75885340  0.03931050  1
  C  C289  1  0.04098425  0.74004392  0.96596270  1
  C  C290  1  0.93630274  0.92880458  0.04256857  1
  C  C291  1  0.22617611  0.90884467  0.53795292  1
  C  C292  1  0.67987210  0.23178630  0.95106406  1
  C  C293  1  0.94152719  0.93096790  0.45430825  1
  C  C294  1  0.05524383  0.26336089  0.04246758  1
  C  C295  1  0.30675800  0.09032942  0.04349548  1
  C  C296  1  0.22172097  0.09226216  0.46402120  1
  C  C297  1  0.96537854  0.07375052  0.53777320  1
  C  C298  1  0.55271413  0.25696979  0.04340280  1
  C  C299  1  0.30760257  0.90676655  0.54596860  1
  C  C300  1  0.70798714  0.43473285  0.04405458  1
  C  C301  1  0.02296924  0.93017257  0.46275580  1
  C  C302  1  0.43194481  0.06801860  0.54656021  1
  C  C303  1  0.48299854  0.58265195  0.46972010  1
  C  C304  1  0.78102859  0.57721557  0.96017350  1
  C  C305  1  0.31824988  0.42810829  0.04412166  1
  C  C306  1  0.78032180  0.75324317  0.03365556  1
  C  C307  1  0.97486839  0.59281136  0.03653705  1
  C  C308  1  0.76744462  0.57092012  0.53107615  1
  C  C309  1  0.79662764  0.91009984  0.53740405  1
  C  C310  1  0.96060163  0.73882514  0.96452268  1
  C  C311  1  0.78970876  0.08916299  0.03700469  1
  N  N312  1  0.46160561  0.07734420  0.96192756  1
  N  N313  1  0.43034726  0.26803663  0.45294702  1
  N  N314  1  0.73355272  0.75236091  0.46223123  1
  N  N315  1  0.70160178  0.75593632  0.03805011  1
  N  N316  1  0.45966038  0.92760130  0.45836939  1
  N  N317  1  0.69856748  0.42782158  0.45775498  1
  N  N318  1  0.70389464  0.57581899  0.96284884  1
  N  N319  1  0.22822248  0.09118157  0.03762876  1
  N  N320  1  0.28546769  0.24196318  0.95992064  1
  N  N321  1  0.49106534  0.74308772  0.96390608  1
  N  N322  1  0.03997181  0.73789651  0.53790231  1
  N  N323  1  0.81093540  0.76548091  0.45387403  1
  N  N324  1  0.51353343  0.92300734  0.03462522  1
  N  N325  1  0.96134464  0.40404160  0.96185233  1
  N  N326  1  0.53769925  0.07633431  0.96051978  1
  N  N327  1  0.46087539  0.74015570  0.54245651  1
  N  N328  1  0.01417722  0.58843709  0.46135052  1
  N  N329  1  0.18956696  0.76201014  0.45269238  1
  N  N330  1  0.77448543  0.42570182  0.46390644  1
  N  N331  1  0.96325423  0.73776495  0.53706290  1
  N  N332  1  0.28969567  0.42251853  0.46141300  1
  N  N333  1  0.81223178  0.09432988  0.45231063  1
  N  N334  1  0.24062063  0.42481523  0.03275750  1
  N  N335  1  0.23173364  0.57506567  0.53804013  1
  N  N336  1  0.71246701  0.08982681  0.03721780  1
  N  N337  1  0.47394779  0.25571071  0.03712506  1
  N  N338  1  0.04384456  0.40888850  0.53786844  1
  N  N339  1  0.47944969  0.59016068  0.03953590  1
  N  N340  1  0.51571729  0.41143906  0.96511749  1
  N  N341  1  0.55998095  0.58913264  0.45823936  1
  N  N342  1  0.05194341  0.59316971  0.04157529  1
  N  N343  1  0.30672505  0.90714196  0.95664350  1
  N  N344  1  0.56782005  0.73793019  0.95389465  1
  N  N345  1  0.72865361  0.91204303  0.96096907  1
  N  N346  1  0.53625636  0.92684102  0.45661726  1
  N  N347  1  0.55717662  0.59199989  0.04322783  1
  N  N348  1  0.21331797  0.23977869  0.53609055  1
  N  N349  1  0.74302244  0.24526018  0.53593719  1
  N  N350  1  0.20932622  0.24194603  0.96149695  1
  N  N351  1  0.93732590  0.59301850  0.45183804  1
  N  N352  1  0.50623057  0.25302689  0.46279525  1
  N  N353  1  0.04301537  0.40527703  0.95655903  1
  N  N354  1  0.30891614  0.57354911  0.54636483  1
  N  N355  1  0.71732121  0.90950647  0.53779777  1
  N  N356  1  0.19316187  0.76127145  0.04262700  1
  N  N357  1  0.43847251  0.40024176  0.95788895  1
  N  N358  1  0.80587738  0.90943574  0.95447884  1
  N  N359  1  0.55125212  0.41190288  0.54084909  1
  N  N360  1  0.06395088  0.05528517  0.60309750  1
  N  N361  1  0.06552063  0.38869658  0.59646856  1
  N  N362  1  0.06395701  0.72284414  0.59656461  1
  N  N363  1  0.55144489  0.05588812  0.58990377  1
  N  N364  1  0.56966045  0.39068342  0.59875247  1
  N  N365  1  0.56399956  0.72184460  0.59932497  1
  N  N366  1  0.44523961  0.27387356  0.09319624  1
  N  N367  1  0.44521372  0.61004168  0.09210001  1
  N  N368  1  0.41935027  0.94595609  0.10141885  1
  N  N369  1  0.94316560  0.27508326  0.09488997  1
  N  N370  1  0.94105501  0.61075366  0.09030203  1
  N  N371  1  0.92401735  0.94605255  0.10359179  1
  N  N372  1  0.43411612  0.05854966  0.90528211  1
  N  N373  1  0.42731759  0.38822009  0.89800993  1
  N  N374  1  0.44938866  0.72335079  0.91455693  1
  N  N375  1  0.92491777  0.05266893  0.90019745  1
  N  N376  1  0.93340963  0.39688469  0.90326020  1
  N  N377  1  0.93775497  0.72235625  0.90809470  1
  N  N378  1  0.06535242  0.27878984  0.40158403  1
  N  N379  1  0.05597611  0.60722755  0.41160812  1
  N  N380  1  0.05764221  0.94511202  0.40693573  1
  N  N381  1  0.54863349  0.27663759  0.41539208  1
  N  N382  1  0.56969879  0.61070057  0.39925527  1
  N  N383  1  0.55903024  0.94327849  0.39829539  1
  N  N384  1  0.31848823  0.22287428  0.58964148  1
  N  N385  1  0.31821540  0.55498330  0.60478860  1
  N  N386  1  0.32114718  0.88877370  0.60583279  1
  N  N387  1  0.82716083  0.22373974  0.60604630  1
  N  N388  1  0.80651833  0.55692471  0.58650044  1
  N  N389  1  0.81881223  0.89230365  0.59451481  1
  N  N390  1  0.19321876  0.11361291  0.09038100  1
  N  N391  1  0.19830582  0.44310487  0.08401152  1
  N  N392  1  0.17792224  0.77935086  0.10111366  1
  N  N393  1  0.69136699  0.10971190  0.09603887  1
  N  N394  1  0.69040284  0.44932565  0.10426018  1
  N  N395  1  0.68006495  0.77839318  0.09499771  1
  N  N396  1  0.18211727  0.22367641  0.90464014  1
  N  N397  1  0.17251926  0.55510244  0.89305238  1
  N  N398  1  0.19490445  0.89025100  0.90918220  1
  N  N399  1  0.67342203  0.21743235  0.89101372  1
  N  N400  1  0.67954630  0.55728884  0.90437572  1
  N  N401  1  0.69196105  0.89302417  0.90925260  1
  N  N402  1  0.32215206  0.11076220  0.40287878  1
  N  N403  1  0.31056691  0.44348544  0.40309015  1
  N  N404  1  0.30630090  0.77396552  0.41198315  1
  N  N405  1  0.82136740  0.11192481  0.39276208  1
  N  N406  1  0.80817178  0.44225130  0.40862058  1
  N  N407  1  0.81938802  0.77876539  0.39384261  1
  N  N408  1  0.42457509  0.28183684  0.39305887  1
  N  N409  1  0.44407401  0.60096386  0.41804596  1
  N  N410  1  0.43271148  0.94484067  0.40131318  1
  N  N411  1  0.93575798  0.27768737  0.40825505  1
  N  N412  1  0.93123425  0.61150809  0.39314857  1
  N  N413  1  0.92855170  0.94616232  0.39343249  1
  N  N414  1  0.05427431  0.05569080  0.91001978  1
  N  N415  1  0.05982950  0.38144507  0.90053738  1
  N  N416  1  0.06838524  0.72440162  0.91037145  1
  N  N417  1  0.56074686  0.05692390  0.90289389  1
  N  N418  1  0.55318876  0.38832023  0.91479177  1
  N  N419  1  0.57380540  0.72013503  0.89482908  1
  N  N420  1  0.07301683  0.27864026  0.10069950  1
  N  N421  1  0.06848056  0.61218900  0.10119734  1
  N  N422  1  0.05224953  0.94333561  0.08723454  1
  N  N423  1  0.57265933  0.27558892  0.10162268  1
  N  N424  1  0.57199084  0.61021722  0.10109656  1
  N  N425  1  0.54649722  0.94155543  0.09034617  1
  N  N426  1  0.42347054  0.05301389  0.60774111  1
  N  N427  1  0.44148083  0.39582128  0.58797026  1
  N  N428  1  0.43480695  0.71906049  0.59806936  1
  N  N429  1  0.93433091  0.05747404  0.59438330  1
  N  N430  1  0.93732181  0.39180374  0.59396404  1
  N  N431  1  0.93731182  0.72245584  0.59510671  1
  N  N432  1  0.19236177  0.10932124  0.40858355  1
  N  N433  1  0.18229696  0.43931311  0.40607598  1
  N  N434  1  0.17989255  0.77727830  0.39250756  1
  N  N435  1  0.69495317  0.10758072  0.40730983  1
  N  N436  1  0.68238340  0.44566802  0.39829870  1
  N  N437  1  0.69415605  0.77758540  0.41364517  1
  N  N438  1  0.30876162  0.22328919  0.90217159  1
  N  N439  1  0.30046300  0.55986687  0.91120143  1
  N  N440  1  0.32312997  0.89002620  0.89788662  1
  N  N441  1  0.80088450  0.22151356  0.91115505  1
  N  N442  1  0.80773573  0.56034929  0.90349105  1
  N  N443  1  0.81793451  0.88799908  0.89766642  1
  N  N444  1  0.32149425  0.10957243  0.10116258  1
  N  N445  1  0.32478970  0.44494201  0.10406645  1
  N  N446  1  0.30559594  0.77520735  0.09451619  1
  N  N447  1  0.81956906  0.10760160  0.09237636  1
  N  N448  1  0.82029418  0.44413562  0.09719922  1
  N  N449  1  0.80855073  0.77338473  0.08809577  1
  N  N450  1  0.18996239  0.22191536  0.59401002  1
  N  N451  1  0.19280176  0.55380529  0.58813906  1
  N  N452  1  0.19194065  0.89171849  0.59322560  1
  N  N453  1  0.70063852  0.22389619  0.58627504  1
  N  N454  1  0.67825379  0.55284683  0.60316273  1
  N  N455  1  0.68980585  0.89102562  0.59480210  1
  Cl  Cl456  1  0.24390318  0.05150242  0.63463260  1
  Cl  Cl457  1  0.25359395  0.38276172  0.61854168  1
  Cl  Cl458  1  0.25013755  0.72366608  0.61404921  1
  Cl  Cl459  1  0.74068001  0.05417582  0.60612907  1
  Cl  Cl460  1  0.75179375  0.38213067  0.62488065  1
  Cl  Cl461  1  0.74915771  0.73181720  0.60583789  1
  Cl  Cl462  1  0.25905977  0.28574999  0.12054880  1
  Cl  Cl463  1  0.26206079  0.61125721  0.12092588  1
  Cl  Cl464  1  0.23473119  0.94676195  0.11179430  1
  Cl  Cl465  1  0.75788802  0.27570346  0.12493962  1
  Cl  Cl466  1  0.75723946  0.61760951  0.11108829  1
  Cl  Cl467  1  0.73167677  0.94394919  0.10882878  1
  Cl  Cl468  1  0.24293146  0.05624857  0.89907771  1
  Cl  Cl469  1  0.24124101  0.39408883  0.89268046  1
  Cl  Cl470  1  0.26673653  0.72798124  0.88797482  1
  Cl  Cl471  1  0.74306379  0.04975714  0.87339405  1
  Cl  Cl472  1  0.74312419  0.39235434  0.89324341  1
  Cl  Cl473  1  0.75473615  0.71940584  0.87704654  1
  Cl  Cl474  1  0.24585017  0.27818393  0.38689283  1
  Cl  Cl475  1  0.24226851  0.60488714  0.39886420  1
  Cl  Cl476  1  0.24582695  0.94553318  0.38238195  1
  Cl  Cl477  1  0.73332242  0.27177903  0.39825376  1
  Cl  Cl478  1  0.75002695  0.62060073  0.37650406  1
  Cl  Cl479  1  0.74108401  0.94089298  0.38365900  1
  Cl  Cl480  1  0.00886888  0.22521802  0.62505633  1
  Cl  Cl481  1  0.00717774  0.55840513  0.59960679  1
  Cl  Cl482  1  0.00488238  0.88911800  0.61351020  1
  Cl  Cl483  1  0.51341911  0.23428420  0.60109160  1
  Cl  Cl484  1  0.49829116  0.54949781  0.62878408  1
  Cl  Cl485  1  0.50708710  0.88293181  0.62089057  1
  Cl  Cl486  1  0.00781292  0.11127767  0.11213521  1
  Cl  Cl487  1  0.01018876  0.44161342  0.10145203  1
  Cl  Cl488  1  -0.00740788  0.78195694  0.11475935  1
  Cl  Cl489  1  0.50631564  0.11371187  0.12567525  1
  Cl  Cl490  1  0.50675497  0.43725584  0.11273931  1
  Cl  Cl491  1  0.49128556  0.77219162  0.10879332  1
  Cl  Cl492  1  -0.00869409  0.22172346  0.89183037  1
  Cl  Cl493  1  -0.01102687  0.54807161  0.87140528  1
  Cl  Cl494  1  0.00699910  0.88525775  0.88117851  1
  Cl  Cl495  1  0.49049882  0.22241361  0.86954853  1
  Cl  Cl496  1  0.48567122  0.55762045  0.89802290  1
  Cl  Cl497  1  0.50852224  0.88320063  0.88586762  1
  Cl  Cl498  1  0.00784947  0.11405949  0.37931246  1
  Cl  Cl499  1  -0.00528327  0.44485723  0.37674142  1
  Cl  Cl500  1  -0.00093657  0.78259328  0.37905790  1
  Cl  Cl501  1  0.51068932  0.11516818  0.38866639  1
  Cl  Cl502  1  0.49866322  0.44675327  0.38449129  1
  Cl  Cl503  1  0.49932600  0.76842599  0.39837458  1
  Cl  Cl504  1  0.36009888  0.14691977  0.74501612  1
  Cl  Cl505  1  0.35653791  0.48384821  0.75328557  1
  Cl  Cl506  1  0.36476457  0.81289183  0.74513982  1
  Cl  Cl507  1  0.86116218  0.14782384  0.74436174  1
  Cl  Cl508  1  0.85813978  0.48196698  0.74800242  1
  Cl  Cl509  1  0.85858141  0.81692352  0.74845756  1
  Cl  Cl510  1  0.14032958  0.18565294  0.24897711  1
  Cl  Cl511  1  0.14594339  0.51984060  0.24655154  1
  Cl  Cl512  1  0.13894186  0.85056226  0.25444535  1
  Cl  Cl513  1  0.64521067  0.18671526  0.24820317  1
  Cl  Cl514  1  0.63647228  0.52262294  0.24727221  1
  Cl  Cl515  1  0.64148042  0.85118266  0.24813414  1
  Cl  Cl516  1  0.14061426  0.14899990  0.75122613  1
  Cl  Cl517  1  0.13424780  0.47992717  0.75589140  1
  Cl  Cl518  1  0.14320604  0.81621469  0.75151172  1
  Cl  Cl519  1  0.63827630  0.15037995  0.74798176  1
  Cl  Cl520  1  0.63751424  0.48102204  0.74661710  1
  Cl  Cl521  1  0.64121716  0.81376838  0.75183065  1
  Cl  Cl522  1  0.36283969  0.18628283  0.25183384  1
  Cl  Cl523  1  0.36641533  0.52072925  0.24852560  1
  Cl  Cl524  1  0.35866133  0.85092899  0.24846243  1
  Cl  Cl525  1  0.86705582  0.18856560  0.25827479  1
  Cl  Cl526  1  0.85948288  0.52025529  0.25289879  1
  Cl  Cl527  1  0.86061431  0.85314013  0.25402577  1
  Cl  Cl528  1  0.11042910  0.31559115  0.75708673  1
  Cl  Cl529  1  0.11153046  0.64657708  0.75301281  1
  Cl  Cl530  1  0.10866729  0.98333682  0.75190236  1
  Cl  Cl531  1  0.60769648  0.31588144  0.75249068  1
  Cl  Cl532  1  0.61295362  0.64616030  0.75372905  1
  Cl  Cl533  1  0.60853222  0.98292681  0.74757049  1
  Cl  Cl534  1  0.38812050  0.02005369  0.24847714  1
  Cl  Cl535  1  0.38860885  0.35367232  0.25558697  1
  Cl  Cl536  1  0.39326763  0.68712939  0.25719170  1
  Cl  Cl537  1  0.88347998  0.02139344  0.24993360  1
  Cl  Cl538  1  0.89377283  0.35463473  0.24675091  1
  Cl  Cl539  1  0.89207174  0.68430056  0.25406217  1
  Cl  Cl540  1  0.38844485  0.31724618  0.75067847  1
  Cl  Cl541  1  0.39128649  0.64875386  0.74797013  1
  Cl  Cl542  1  0.38590461  0.97798852  0.75118006  1
  Cl  Cl543  1  0.88917782  0.31474106  0.75170177  1
  Cl  Cl544  1  0.89251934  0.65062969  0.74706681  1
  Cl  Cl545  1  0.88796392  0.98098368  0.75247296  1
  Cl  Cl546  1  0.10651759  0.01483148  0.24576263  1
  Cl  Cl547  1  0.11231910  0.35279572  0.25034794  1
  Cl  Cl548  1  0.11265272  0.68618227  0.24547206  1
  Cl  Cl549  1  0.60988839  0.01851738  0.25238716  1
  Cl  Cl550  1  0.61094947  0.35131747  0.25288854  1
  Cl  Cl551  1  0.60829833  0.68858363  0.25004668  1
