# generated using pymatgen
data_H8PbC4(N3Cl2)2
_symmetry_space_group_name_H-M   'P 1'
_cell_length_a   16.62759830
_cell_length_b   22.51266329
_cell_length_c   21.59274973
_cell_angle_alpha   89.99791864
_cell_angle_beta   90.01272217
_cell_angle_gamma   89.99392191
_symmetry_Int_Tables_number   1
_chemical_formula_structural   H8PbC4(N3Cl2)2
_chemical_formula_sum   'H192 Pb24 C96 N144 Cl96'
_cell_volume   8082.84662047
_cell_formula_units_Z   24
loop_
 _symmetry_equiv_pos_site_id
 _symmetry_equiv_pos_as_xyz
  1  'x, y, z'
loop_
 _atom_site_type_symbol
 _atom_site_label
 _atom_site_symmetry_multiplicity
 _atom_site_fract_x
 _atom_site_fract_y
 _atom_site_fract_z
 _atom_site_occupancy
  H  H0  1  -0.00459682  0.02897564  0.67829641  1
  H  H1  1  0.01040058  0.36338704  0.68287130  1
  H  H2  1  -0.00828361  0.69697734  0.68096877  1
  H  H3  1  0.49840914  0.02770552  0.67453561  1
  H  H4  1  0.49509778  0.36614940  0.67966364  1
  H  H5  1  0.50973676  0.70117088  0.67956703  1
  H  H6  1  0.00721607  0.30871743  0.17960700  1
  H  H7  1  -0.00738528  0.63737867  0.18353997  1
  H  H8  1  0.00484889  0.96981855  0.17371779  1
  H  H9  1  0.48664751  0.30211470  0.17626399  1
  H  H10  1  0.51084863  0.63544255  0.17726791  1
  H  H11  1  0.50905585  0.96915946  0.17917849  1
  H  H12  1  0.00582560  0.03088256  0.82227291  1
  H  H13  1  0.00051182  0.36393002  0.82034912  1
  H  H14  1  0.00146298  0.69852555  0.82617991  1
  H  H15  1  0.50589116  0.02637618  0.82516064  1
  H  H16  1  0.49716572  0.36163502  0.82275924  1
  H  H17  1  0.50366791  0.69337329  0.81945799  1
  H  H18  1  0.00007559  0.30314685  0.31723063  1
  H  H19  1  0.02081046  0.63530029  0.32581971  1
  H  H20  1  -0.00220448  0.96979968  0.32506440  1
  H  H21  1  0.48930731  0.30191055  0.32211126  1
  H  H22  1  0.48015698  0.63502640  0.32329749  1
  H  H23  1  0.49473973  0.97096475  0.32199542  1
  H  H24  1  0.25411001  0.19229327  0.67928773  1
  H  H25  1  0.25028481  0.53246907  0.68263552  1
  H  H26  1  0.26010067  0.86591518  0.67746045  1
  H  H27  1  0.74664304  0.19679572  0.67806138  1
  H  H28  1  0.75119819  0.52957971  0.67085879  1
  H  H29  1  0.74532026  0.86620771  0.67993981  1
  H  H30  1  0.24864657  0.13608571  0.17998185  1
  H  H31  1  0.25385376  0.47322309  0.17645333  1
  H  H32  1  0.24339598  0.80329829  0.17836058  1
  H  H33  1  0.74057998  0.13678598  0.17764064  1
  H  H34  1  0.75521844  0.47061650  0.18219774  1
  H  H35  1  0.75465538  0.80553399  0.17669317  1
  H  H36  1  0.23701448  0.19688291  0.82001320  1
  H  H37  1  0.23174961  0.52581000  0.82255368  1
  H  H38  1  0.24757162  0.86506223  0.82272704  1
  H  H39  1  0.76543620  0.19806264  0.81786793  1
  H  H40  1  0.76165574  0.52696926  0.82372044  1
  H  H41  1  0.74377628  0.86071428  0.82144993  1
  H  H42  1  0.24237015  0.13523164  0.32037298  1
  H  H43  1  0.24502587  0.46688936  0.31839572  1
  H  H44  1  0.23899038  0.80220261  0.32005597  1
  H  H45  1  0.76059725  0.13690626  0.32310675  1
  H  H46  1  0.74783375  0.46938537  0.32213949  1
  H  H47  1  0.76054318  0.80169076  0.31728208  1
  H  H48  1  0.13067488  0.05105585  0.61874056  1
  H  H49  1  0.11820846  0.38926474  0.59999109  1
  H  H50  1  0.12232590  0.72019982  0.61821268  1
  H  H51  1  0.62904240  0.05473026  0.61164284  1
  H  H52  1  0.61848356  0.38841489  0.60842369  1
  H  H53  1  0.61678635  0.72497595  0.59653005  1
  H  H54  1  0.37756293  0.27707594  0.09485113  1
  H  H55  1  0.37512520  0.61534370  0.12201789  1
  H  H56  1  0.37512215  0.94726306  0.11713055  1
  H  H57  1  0.88120597  0.27924466  0.11149733  1
  H  H58  1  0.87128296  0.61558890  0.11006748  1
  H  H59  1  0.87219738  0.94665375  0.11208039  1
  H  H60  1  0.36729050  0.04598289  0.88036102  1
  H  H61  1  0.37279330  0.38469278  0.89278462  1
  H  H62  1  0.38059273  0.71999110  0.89180395  1
  H  H63  1  0.87454975  0.05170224  0.88215075  1
  H  H64  1  0.87550762  0.38904837  0.89175510  1
  H  H65  1  0.87679572  0.71946447  0.89365725  1
  H  H66  1  0.12910453  0.27780781  0.38427971  1
  H  H67  1  0.11323691  0.60199064  0.41622483  1
  H  H68  1  0.13216462  0.94752957  0.38521145  1
  H  H69  1  0.63264267  0.28638534  0.37015990  1
  H  H70  1  0.62596569  0.61511437  0.36474564  1
  H  H71  1  0.62881097  0.94876336  0.38205874  1
  H  H72  1  0.36553478  0.21981635  0.59812954  1
  H  H73  1  0.37365246  0.55335987  0.61033578  1
  H  H74  1  0.36524017  0.89361516  0.59213556  1
  H  H75  1  0.86615734  0.22270586  0.60390639  1
  H  H76  1  0.87416534  0.55891496  0.60148494  1
  H  H77  1  0.86828454  0.88904859  0.60928507  1
  H  H78  1  0.13381941  0.10878242  0.10084469  1
  H  H79  1  0.12672373  0.44662372  0.10944966  1
  H  H80  1  0.12001134  0.78149357  0.10687293  1
  H  H81  1  0.63656074  0.10538857  0.09324521  1
  H  H82  1  0.62626967  0.44784762  0.11406228  1
  H  H83  1  0.62335108  0.78152638  0.11433616  1
  H  H84  1  0.12796296  0.22155043  0.90249953  1
  H  H85  1  0.12983138  0.55803252  0.90787440  1
  H  H86  1  0.12593055  0.88595984  0.89645823  1
  H  H87  1  0.62471199  0.21731316  0.87230715  1
  H  H88  1  0.62431303  0.54962999  0.87833606  1
  H  H89  1  0.63100225  0.89169270  0.90130717  1
  H  H90  1  0.36977061  0.11165802  0.38956551  1
  H  H91  1  0.38392050  0.44893626  0.37542089  1
  H  H92  1  0.38001753  0.78595818  0.37166844  1
  H  H93  1  0.86153846  0.10634961  0.41057163  1
  H  H94  1  0.88030195  0.44882571  0.38168153  1
  H  H95  1  0.87851577  0.77950310  0.39377057  1
  H  H96  1  0.39000521  0.26936551  0.40902321  1
  H  H97  1  0.38691297  0.60722344  0.41550172  1
  H  H98  1  0.38148083  0.94276220  0.40095747  1
  H  H99  1  0.88044751  0.27913442  0.39151110  1
  H  H100  1  0.87480768  0.61468897  0.36615710  1
  H  H101  1  0.88452071  0.94159974  0.40211199  1
  H  H102  1  0.12188034  0.05239672  0.89958996  1
  H  H103  1  0.12453019  0.38856099  0.89279735  1
  H  H104  1  0.12553080  0.72171430  0.89428418  1
  H  H105  1  0.61282786  0.05941048  0.90650146  1
  H  H106  1  0.62195421  0.38620483  0.88955435  1
  H  H107  1  0.62967980  0.71732124  0.88776303  1
  H  H108  1  0.13083181  0.28225079  0.11085162  1
  H  H109  1  0.12094063  0.61540685  0.11855428  1
  H  H110  1  0.12074397  0.94286937  0.09727461  1
  H  H111  1  0.62321907  0.28364365  0.12212198  1
  H  H112  1  0.62159761  0.61005917  0.09598447  1
  H  H113  1  0.62311403  0.94228347  0.10157512  1
  H  H114  1  0.38095679  0.05434400  0.59998150  1
  H  H115  1  0.36860043  0.38803601  0.60952398  1
  H  H116  1  0.37111503  0.71738246  0.62652853  1
  H  H117  1  0.88395783  0.05912908  0.59713696  1
  H  H118  1  0.87170946  0.38445930  0.62602343  1
  H  H119  1  0.87334468  0.72328322  0.60476814  1
  H  H120  1  0.12169300  0.10866112  0.39538162  1
  H  H121  1  0.13757119  0.44220238  0.40169162  1
  H  H122  1  0.13477807  0.77777789  0.40418367  1
  H  H123  1  0.61913267  0.11536623  0.37328711  1
  H  H124  1  0.63256828  0.44355311  0.39845749  1
  H  H125  1  0.62889411  0.77889525  0.38149930  1
  H  H126  1  0.37467705  0.21925953  0.87758376  1
  H  H127  1  0.37287537  0.54577193  0.87486828  1
  H  H128  1  0.37509277  0.88647240  0.88801339  1
  H  H129  1  0.87055332  0.22438002  0.90292532  1
  H  H130  1  0.87018869  0.55869296  0.90477908  1
  H  H131  1  0.87846920  0.88308705  0.88380945  1
  H  H132  1  0.38096397  0.11368510  0.11538318  1
  H  H133  1  0.37557310  0.44390891  0.10620163  1
  H  H134  1  0.36931208  0.78129282  0.11175174  1
  H  H135  1  0.88137011  0.11458473  0.12686825  1
  H  H136  1  0.87475482  0.44439524  0.10629097  1
  H  H137  1  0.87145493  0.77745307  0.10053800  1
  H  H138  1  0.11873638  0.21651343  0.62317389  1
  H  H139  1  0.12572614  0.55449599  0.61217125  1
  H  H140  1  0.12050774  0.88424258  0.62414852  1
  H  H141  1  0.61825011  0.22063680  0.61039038  1
  H  H142  1  0.62658700  0.55082538  0.59917837  1
  H  H143  1  0.61861733  0.88906401  0.61324167  1
  H  H144  1  0.33676571  0.91481595  1.00102784  1
  H  H145  1  0.79494563  0.25385954  1.00489215  1
  H  H146  1  0.08549702  0.75265879  0.50652333  1
  H  H147  1  0.41273073  0.41485487  0.50388820  1
  H  H148  1  0.90767987  0.91522092  0.00552853  1
  H  H149  1  0.93358403  0.74192686  0.49934445  1
  H  H150  1  0.59098356  0.08261155  0.50415162  1
  H  H151  1  0.65631129  0.91619092  0.50143496  1
  H  H152  1  0.58636972  0.74924766  0.99652369  1
  H  H153  1  0.39080433  0.08570366  0.98476866  1
  H  H154  1  0.79716180  0.58539544  1.00543682  1
  H  H155  1  0.32781896  0.75170761  -0.00063857  1
  H  H156  1  0.31833420  0.56159680  0.50359618  1
  H  H157  1  0.65930271  0.24949157  0.50399432  1
  H  H158  1  0.93538838  0.25001483  0.49903019  1
  H  H159  1  0.60291604  0.25405389  1.00665484  1
  H  H160  1  0.66818431  0.76150318  0.49074740  1
  H  H161  1  0.85114220  0.41643378  0.49468842  1
  H  H162  1  0.10270741  0.91780898  0.49394842  1
  H  H163  1  0.39793849  0.58483236  1.00708892  1
  H  H164  1  0.21039883  0.57759954  1.00676171  1
  H  H165  1  0.14440096  0.24809978  0.51066429  1
  H  H166  1  0.57875471  0.41889074  1.00083300  1
  H  H167  1  0.08212630  0.59493444  0.00356213  1
  H  H168  1  0.20957370  0.41385481  0.50532692  1
  H  H169  1  0.81949944  0.76152118  0.50508836  1
  H  H170  1  0.57078285  0.41722842  0.49848899  1
  H  H171  1  0.38559311  0.75021472  0.51136712  1
  H  H172  1  0.71434788  0.08169415  -0.00643874  1
  H  H173  1  0.95628985  0.08392789  0.49589697  1
  H  H174  1  0.54627752  0.75288510  0.49104313  1
  H  H175  1  0.29784264  0.24133772  0.49581569  1
  H  H176  1  0.90340909  0.08019510  0.99742863  1
  H  H177  1  0.92238482  0.59235622  -0.00112304  1
  H  H178  1  0.67028785  0.58347293  0.49588777  1
  H  H179  1  0.08262314  0.25235787  0.00011885  1
  H  H180  1  0.20005985  0.24977141  1.00710840  1
  H  H181  1  0.47498241  0.58448505  0.51020672  1
  H  H182  1  0.77939005  0.08404693  0.50849030  1
  H  H183  1  0.93012254  0.25901117  0.00384313  1
  H  H184  1  0.18043700  0.60073760  0.51695354  1
  H  H185  1  0.82959216  0.57958305  0.49489195  1
  H  H186  1  0.53727980  0.07794064  1.00726403  1
  H  H187  1  0.47194390  0.24431991  0.50639907  1
  H  H188  1  0.02419039  0.57799411  0.51098298  1
  H  H189  1  0.20934494  0.75203923  0.51005325  1
  H  H190  1  0.04659811  0.41729565  0.49618039  1
  H  H191  1  0.82210059  0.91832239  0.49954417  1
  Pb  Pb192  1  0.24823963  0.04536165  0.75041048  1
  Pb  Pb193  1  0.24229186  0.38251171  0.74566493  1
  Pb  Pb194  1  0.24730797  0.71408036  0.75353834  1
  Pb  Pb195  1  0.74322926  0.04959229  0.75399146  1
  Pb  Pb196  1  0.74696804  0.38008266  0.75010033  1
  Pb  Pb197  1  0.74481187  0.71517919  0.74150756  1
  Pb  Pb198  1  0.25465010  0.28698302  0.25395103  1
  Pb  Pb199  1  0.25626242  0.61639515  0.26129894  1
  Pb  Pb200  1  0.25391248  0.95213353  0.24840358  1
  Pb  Pb201  1  0.75980918  0.28292874  0.24830150  1
  Pb  Pb202  1  0.75173458  0.62090922  0.24229334  1
  Pb  Pb203  1  0.75240249  0.95362546  0.25212494  1
  Pb  Pb204  1  -0.00297746  0.21277326  0.75738049  1
  Pb  Pb205  1  -0.00750004  0.54977097  0.75688933  1
  Pb  Pb206  1  -0.00291741  0.88145414  0.75084047  1
  Pb  Pb207  1  0.49122538  0.21586632  0.74040722  1
  Pb  Pb208  1  0.49906095  0.54574036  0.74160436  1
  Pb  Pb209  1  0.49576332  0.88167139  0.75013170  1
  Pb  Pb210  1  0.00773528  0.11597290  0.25660522  1
  Pb  Pb211  1  0.00422658  0.45408553  0.25395338  1
  Pb  Pb212  1  0.00228780  0.78578981  0.25696631  1
  Pb  Pb213  1  0.50216169  0.12022778  0.24419547  1
  Pb  Pb214  1  0.50965958  0.44992856  0.25343376  1
  Pb  Pb215  1  0.50274362  0.78686940  0.24617187  1
  C  C216  1  0.00286836  0.04513455  0.63137141  1
  C  C217  1  -0.00019569  0.37885422  0.63600609  1
  C  C218  1  -0.00480629  0.71271722  0.63339650  1
  C  C219  1  0.50345639  0.04455239  0.62774594  1
  C  C220  1  0.49353640  0.38104316  0.63169726  1
  C  C221  1  0.49860998  0.71507813  0.63213270  1
  C  C222  1  0.00573453  0.29149973  0.13257259  1
  C  C223  1  -0.00500016  0.62353985  0.13536338  1
  C  C224  1  -0.00118164  0.95339585  0.12679505  1
  C  C225  1  0.49670765  0.28736618  0.12912159  1
  C  C226  1  0.50166090  0.62093642  0.13000266  1
  C  C227  1  0.50207187  0.95321546  0.13234009  1
  C  C228  1  -0.00006609  0.04535324  0.86990270  1
  C  C229  1  0.00014755  0.38004595  0.86768200  1
  C  C230  1  0.00124185  0.71387468  0.87381693  1
  C  C231  1  0.49516239  0.04359905  0.87150219  1
  C  C232  1  0.49783561  0.37721875  0.87017425  1
  C  C233  1  0.50443511  0.71040763  0.86645950  1
  C  C234  1  0.00362538  0.28688450  0.36451291  1
  C  C235  1  0.00309174  0.61905798  0.37121082  1
  C  C236  1  0.00539039  0.95365496  0.37200383  1
  C  C237  1  0.50383341  0.28697743  0.36858363  1
  C  C238  1  0.49764110  0.62020631  0.36921773  1
  C  C239  1  0.50163673  0.95471074  0.36872640  1
  C  C240  1  0.24633329  0.20854837  0.63225088  1
  C  C241  1  0.24998202  0.54647024  0.63434479  1
  C  C242  1  0.24871821  0.88073814  0.63059159  1
  C  C243  1  0.74305678  0.21318995  0.63088216  1
  C  C244  1  0.75050808  0.54632737  0.62358861  1
  C  C245  1  0.74402638  0.88166358  0.63226613  1
  C  C246  1  0.25458870  0.12089421  0.13242764  1
  C  C247  1  0.25185923  0.45501769  0.13023131  1
  C  C248  1  0.24483524  0.78845241  0.13069666  1
  C  C249  1  0.75256582  0.12057236  0.13121160  1
  C  C250  1  0.75220558  0.45495806  0.13472826  1
  C  C251  1  0.75000749  0.78831756  0.13012839  1
  C  C252  1  0.24670708  0.21246575  0.86696733  1
  C  C253  1  0.24443130  0.54208296  0.86885748  1
  C  C254  1  0.25011540  0.87906947  0.87065281  1
  C  C255  1  0.75328000  0.21311191  0.86473903  1
  C  C256  1  0.75243810  0.54359186  0.87020665  1
  C  C257  1  0.75098040  0.87733874  0.86836577  1
  C  C258  1  0.24435956  0.11932929  0.36777149  1
  C  C259  1  0.25605862  0.45276810  0.36575921  1
  C  C260  1  0.25125440  0.78849452  0.36734450  1
  C  C261  1  0.74740020  0.12094885  0.36944391  1
  C  C262  1  0.75441753  0.45367695  0.36918695  1
  C  C263  1  0.75546128  0.78675481  0.36501491  1
  C  C264  1  0.04112520  0.74250548  0.96517211  1
  C  C265  1  0.45694077  0.40524306  0.96296455  1
  C  C266  1  0.29461407  0.90480428  0.96393041  1
  C  C267  1  0.53849313  0.40669397  0.96329538  1
  C  C268  1  0.04111270  0.60152886  0.04208757  1
  C  C269  1  0.43625672  0.74024102  0.54523654  1
  C  C270  1  0.20538036  0.76243848  0.03688222  1
  C  C271  1  0.18975063  0.23817721  0.54549177  1
  C  C272  1  0.57353179  0.26140222  0.45175078  1
  C  C273  1  0.46996771  0.07613558  0.53365688  1
  C  C274  1  0.02972866  0.92219277  0.03208194  1
  C  C275  1  0.28615748  0.42151298  0.03921937  1
  C  C276  1  0.72445708  0.42442764  0.46406527  1
  C  C277  1  0.76752888  0.24184377  0.96069719  1
  C  C278  1  0.92754208  0.59056984  0.45050239  1
  C  C279  1  0.22847371  0.24020219  0.96283912  1
  C  C280  1  0.52605809  0.59338177  0.03360860  1
  C  C281  1  0.01749005  0.40623572  0.53996901  1
  C  C282  1  0.47425059  0.26033821  0.03252558  1
  C  C283  1  0.23721239  0.76254665  0.46582101  1
  C  C284  1  0.80575316  0.42615071  0.45963740  1
  C  C285  1  0.21310431  0.90409441  0.96528204  1
  C  C286  1  0.55500247  0.26243601  0.04017824  1
  C  C287  1  0.97733803  0.92169674  0.46715260  1
  C  C288  1  0.94915179  0.07140354  0.96137232  1
  C  C289  1  0.04608348  0.26152682  0.04071137  1
  C  C290  1  0.54420029  0.73896658  0.95823305  1
  C  C291  1  0.96060563  0.74189221  0.96503827  1
  C  C292  1  0.81757745  0.09146850  0.04704806  1
  C  C293  1  0.78220778  0.90758447  0.53784989  1
  C  C294  1  0.04446870  0.74174321  0.54399908  1
  C  C295  1  0.18964430  0.90587776  0.54410412  1
  C  C296  1  0.53261542  0.40673949  0.53803566  1
  C  C297  1  0.97192032  0.26032621  0.45858161  1
  C  C298  1  0.28693410  0.76180645  0.03710668  1
  C  C299  1  0.23896575  0.42546338  0.46184227  1
  C  C300  1  0.95911101  0.60078491  0.03960945  1
  C  C301  1  0.55252599  0.92532640  0.45721588  1
  C  C302  1  0.31693307  0.76536540  0.45335646  1
  C  C303  1  0.52780711  0.92171203  0.03857050  1
  C  C304  1  0.51721083  0.74206975  0.53476860  1
  C  C305  1  0.03038942  0.07166616  0.96536538  1
  C  C306  1  0.69165167  0.57574205  0.95554891  1
  C  C307  1  0.78774647  0.76424558  0.46103807  1
  C  C308  1  0.69993398  0.90695117  0.53898963  1
  C  C309  1  0.44503720  0.59495817  0.04082549  1
  C  C310  1  0.70262302  0.75785279  0.04099859  1
  C  C311  1  0.57275988  0.59559795  0.45023127  1
  N  N312  1  0.75695726  0.09075625  0.46386136  1
  N  N313  1  0.54872310  0.07510431  0.53861423  1
  N  N314  1  0.73998883  0.08892573  0.03653631  1
  N  N315  1  0.71126762  0.56688852  0.52987595  1
  N  N316  1  0.26883003  0.23925292  0.53804827  1
  N  N317  1  0.49624226  0.25560815  0.46363496  1
  N  N318  1  0.96142189  0.40895536  0.96038741  1
  N  N319  1  0.93920269  0.40496545  0.54887651  1
  N  N320  1  0.47550410  0.92294519  0.46443622  1
  N  N321  1  0.68962472  0.23961181  0.95041770  1
  N  N322  1  0.70856526  0.76126618  0.45514081  1
  N  N323  1  0.51359309  0.08086984  0.96297756  1
  N  N324  1  0.21036951  0.09109319  0.46200567  1
  N  N325  1  0.49642949  0.59315260  0.46602575  1
  N  N326  1  0.31749653  0.42815717  0.45343451  1
  N  N327  1  0.28649054  0.09215092  0.46024161  1
  N  N328  1  0.78427517  0.42607157  0.04046715  1
  N  N329  1  0.96497375  0.74215024  0.54019784  1
  N  N330  1  0.68045441  0.09428537  0.45278460  1
  N  N331  1  0.30667145  0.24115827  0.95397573  1
  N  N332  1  0.06039183  0.07378116  0.54449193  1
  N  N333  1  0.45300791  0.40598998  0.53942806  1
  N  N334  1  0.98292861  0.07631209  0.53858131  1
  N  N335  1  0.30993050  0.56842020  0.95283488  1
  N  N336  1  0.45044360  0.92364432  0.04233317  1
  N  N337  1  0.30364685  0.09712701  0.04122054  1
  N  N338  1  0.77913906  0.24111398  0.53701774  1
  N  N339  1  0.78887571  0.57877973  0.53328857  1
  N  N340  1  0.72687069  0.90983884  0.96274164  1
  N  N341  1  0.78002041  0.75574721  0.03540487  1
  N  N342  1  0.05116243  0.26032413  0.45668750  1
  N  N343  1  0.26576805  0.90906451  0.53250681  1
  N  N344  1  0.76979984  0.57714538  0.96363020  1
  N  N345  1  0.20894283  0.56774014  0.54127872  1
  N  N346  1  0.96638406  0.25997401  0.04215434  1
  N  N347  1  0.23326284  0.57403736  0.96264281  1
  N  N348  1  0.80282981  0.90630669  0.95706526  1
  N  N349  1  0.28967442  0.57520373  0.54321421  1
  N  N350  1  0.00383824  0.58685206  0.46639974  1
  N  N351  1  0.46490533  0.73993335  0.95998060  1
  N  N352  1  0.20871545  0.42244268  0.03883300  1
  N  N353  1  0.70792697  0.42753685  0.04298943  1
  N  N354  1  0.70094890  0.24095192  0.54091387  1
  N  N355  1  0.43627507  0.06825465  0.95681284  1
  N  N356  1  0.05575403  0.92533712  0.46039493  1
  N  N357  1  0.03776112  0.40880720  0.96071052  1
  N  N358  1  0.22751223  0.09366827  0.03681268  1
  N  N359  1  0.95111058  0.92379184  0.03829033  1
  N  N360  1  0.07232375  0.05586051  0.60283391  1
  N  N361  1  0.05616930  0.39055347  0.59323658  1
  N  N362  1  0.06338457  0.72510270  0.60213750  1
  N  N363  1  0.57017722  0.05469299  0.59643159  1
  N  N364  1  0.55805199  0.39145740  0.59531994  1
  N  N365  1  0.55498690  0.72621246  0.58920830  1
  N  N366  1  0.43905759  0.27514050  0.08600095  1
  N  N367  1  0.43136182  0.61223168  0.10174089  1
  N  N368  1  0.43431380  0.94346791  0.10215662  1
  N  N369  1  0.94161000  0.28179581  0.09790548  1
  N  N370  1  0.93177947  0.61449142  0.09794316  1
  N  N371  1  0.93132303  0.94319865  0.09660496  1
  N  N372  1  0.42456656  0.05456074  0.89727655  1
  N  N373  1  0.43261857  0.38763255  0.90674512  1
  N  N374  1  0.44184031  0.72207038  0.90236164  1
  N  N375  1  0.93153044  0.05518253  0.90040258  1
  N  N376  1  0.93658570  0.39139347  0.90272171  1
  N  N377  1  0.93575778  0.72456946  0.90933548  1
  N  N378  1  0.06936818  0.27680777  0.39743122  1
  N  N379  1  0.05137714  0.60732177  0.41833064  1
  N  N380  1  0.07357813  0.94541465  0.40195065  1
  N  N381  1  0.57839953  0.27995171  0.39252891  1
  N  N382  1  0.57338986  0.61108570  0.38987897  1
  N  N383  1  0.57108168  0.94405166  0.39888023  1
  N  N384  1  0.30350155  0.21769758  0.59073086  1
  N  N385  1  0.31343512  0.55110813  0.59761683  1
  N  N386  1  0.30271995  0.89288114  0.58766015  1
  N  N387  1  0.80484280  0.22477448  0.59348820  1
  N  N388  1  0.81389776  0.55890926  0.58882824  1
  N  N389  1  0.80809782  0.89190340  0.59616152  1
  N  N390  1  0.19578211  0.10860525  0.09300336  1
  N  N391  1  0.18712376  0.44342581  0.09689987  1
  N  N392  1  0.18012879  0.77815613  0.09347340  1
  N  N393  1  0.69875222  0.10971870  0.08764600  1
  N  N394  1  0.68666474  0.44547903  0.10120732  1
  N  N395  1  0.68192869  0.77698775  0.09854441  1
  N  N396  1  0.18975001  0.22291328  0.90966803  1
  N  N397  1  0.19172296  0.55434499  0.91289527  1
  N  N398  1  0.18641789  0.88859721  0.90896831  1
  N  N399  1  0.68233950  0.22215216  0.89060189  1
  N  N400  1  0.68072460  0.55551330  0.89757271  1
  N  N401  1  0.69333511  0.89200521  0.90793349  1
  N  N402  1  0.30916554  0.10918989  0.40185112  1
  N  N403  1  0.32626307  0.44489396  0.39319002  1
  N  N404  1  0.32506876  0.78079781  0.39351589  1
  N  N405  1  0.79909305  0.10965381  0.41443942  1
  N  N406  1  0.82307763  0.44426631  0.39957971  1
  N  N407  1  0.81746228  0.77804133  0.40459648  1
  N  N408  1  0.45253432  0.27326164  0.41289130  1
  N  N409  1  0.44917542  0.61033982  0.41659343  1
  N  N410  1  0.44357779  0.94206544  0.40819691  1
  N  N411  1  0.94145966  0.27619265  0.40242813  1
  N  N412  1  0.92731095  0.60928515  0.39117642  1
  N  N413  1  0.94579373  0.93915571  0.41232039  1
  N  N414  1  0.06084406  0.05598953  0.91042301  1
  N  N415  1  0.06332385  0.39069628  0.90344725  1
  N  N416  1  0.06640436  0.72558275  0.90935936  1
  N  N417  1  0.55060897  0.05575796  0.91373791  1
  N  N418  1  0.56273752  0.38899101  0.90440160  1
  N  N419  1  0.56972461  0.72158321  0.90090165  1
  N  N420  1  0.07075071  0.27910307  0.09727955  1
  N  N421  1  0.06207803  0.61552825  0.10188459  1
  N  N422  1  0.05959316  0.94041655  0.08693110  1
  N  N423  1  0.56754755  0.27907533  0.10157041  1
  N  N424  1  0.56003959  0.60897565  0.08747901  1
  N  N425  1  0.56188230  0.93959895  0.09235794  1
  N  N426  1  0.44174085  0.05765336  0.58874893  1
  N  N427  1  0.42909799  0.38997701  0.59708630  1
  N  N428  1  0.42663647  0.72347801  0.60584791  1
  N  N429  1  0.94606503  0.05663287  0.59018380  1
  N  N430  1  0.92977227  0.38823824  0.60875220  1
  N  N431  1  0.93458672  0.72088553  0.59455295  1
  N  N432  1  0.18258517  0.10809550  0.40476562  1
  N  N433  1  0.19997188  0.44043663  0.40851298  1
  N  N434  1  0.19670867  0.77699719  0.41091101  1
  N  N435  1  0.67510505  0.11104619  0.39347794  1
  N  N436  1  0.69369386  0.44107797  0.40947592  1
  N  N437  1  0.68877007  0.77729529  0.39659521  1
  N  N438  1  0.31625497  0.22393496  0.89442380  1
  N  N439  1  0.31626278  0.55147264  0.89386386  1
  N  N440  1  0.31641510  0.88900564  0.90398020  1
  N  N441  1  0.80821176  0.22541173  0.90847331  1
  N  N442  1  0.80856752  0.55537566  0.91185665  1
  N  N443  1  0.81914745  0.88581582  0.89873050  1
  N  N444  1  0.32194712  0.11396476  0.10046713  1
  N  N445  1  0.31542263  0.44097521  0.09422704  1
  N  N446  1  0.31026959  0.77791758  0.09665211  1
  N  N447  1  0.82581429  0.10971045  0.10607811  1
  N  N448  1  0.81315965  0.44297750  0.09720480  1
  N  N449  1  0.80968775  0.77528889  0.09221766  1
  N  N450  1  0.17573101  0.22102525  0.60438395  1
  N  N451  1  0.18611134  0.56041742  0.60100573  1
  N  N452  1  0.17651069  0.88888619  0.60397633  1
  N  N453  1  0.67788866  0.22336253  0.59754949  1
  N  N454  1  0.68683171  0.55489546  0.58784768  1
  N  N455  1  0.67793711  0.89105733  0.59817918  1
  Cl  Cl456  1  0.25851641  0.05104964  0.62017085  1
  Cl  Cl457  1  0.24322211  0.38872424  0.60818489  1
  Cl  Cl458  1  0.24231955  0.71434827  0.61913119  1
  Cl  Cl459  1  0.76233104  0.06462487  0.60394590  1
  Cl  Cl460  1  0.74226845  0.38801714  0.61676178  1
  Cl  Cl461  1  0.74558678  0.72491750  0.60214092  1
  Cl  Cl462  1  0.25342205  0.27998499  0.11954177  1
  Cl  Cl463  1  0.24439208  0.60300699  0.12283862  1
  Cl  Cl464  1  0.24568688  0.94383411  0.11445659  1
  Cl  Cl465  1  0.75918691  0.27269543  0.11293426  1
  Cl  Cl466  1  0.74785425  0.60854557  0.10583427  1
  Cl  Cl467  1  0.74781738  0.95013776  0.12025769  1
  Cl  Cl468  1  0.24387684  0.04817148  0.88287903  1
  Cl  Cl469  1  0.24707564  0.38712332  0.87652719  1
  Cl  Cl470  1  0.25516984  0.71881796  0.88586169  1
  Cl  Cl471  1  0.73308081  0.06263737  0.89380503  1
  Cl  Cl472  1  0.75202523  0.38778861  0.87993282  1
  Cl  Cl473  1  0.75221758  0.71094315  0.87212185  1
  Cl  Cl474  1  0.26648015  0.26991187  0.39652514  1
  Cl  Cl475  1  0.25144531  0.60433991  0.40400953  1
  Cl  Cl476  1  0.25665213  0.94344382  0.37964889  1
  Cl  Cl477  1  0.75802718  0.28053652  0.38023548  1
  Cl  Cl478  1  0.75020430  0.61203797  0.37810871  1
  Cl  Cl479  1  0.75985013  0.94642770  0.38709837  1
  Cl  Cl480  1  -0.01198591  0.21863550  0.62299608  1
  Cl  Cl481  1  0.00279906  0.55910937  0.60549442  1
  Cl  Cl482  1  -0.00703637  0.88768090  0.61754630  1
  Cl  Cl483  1  0.48861787  0.22249727  0.59893267  1
  Cl  Cl484  1  0.49723499  0.55714628  0.60142527  1
  Cl  Cl485  1  0.49079149  0.89179665  0.61942862  1
  Cl  Cl486  1  0.01184065  0.11332580  0.12393447  1
  Cl  Cl487  1  -0.00082257  0.44649310  0.12299774  1
  Cl  Cl488  1  -0.00460928  0.78365096  0.12510614  1
  Cl  Cl489  1  0.51324848  0.10156418  0.10470210  1
  Cl  Cl490  1  0.50213319  0.44608100  0.12142002  1
  Cl  Cl491  1  0.49977157  0.77965500  0.11624110  1
  Cl  Cl492  1  -0.00294631  0.22539619  0.89727259  1
  Cl  Cl493  1  0.00142170  0.56290779  0.89171195  1
  Cl  Cl494  1  0.00190930  0.88782776  0.88586491  1
  Cl  Cl495  1  0.49924244  0.21419513  0.86981617  1
  Cl  Cl496  1  0.49809534  0.54723797  0.86935517  1
  Cl  Cl497  1  0.50834661  0.89137290  0.88361542  1
  Cl  Cl498  1  -0.01668607  0.10379836  0.39850608  1
  Cl  Cl499  1  0.01525256  0.44674448  0.38977660  1
  Cl  Cl500  1  0.00373423  0.77502154  0.39857531  1
  Cl  Cl501  1  0.49232817  0.11458916  0.37780317  1
  Cl  Cl502  1  0.51059841  0.44552102  0.38996356  1
  Cl  Cl503  1  0.50884031  0.77783380  0.38103669  1
  Cl  Cl504  1  0.35743143  0.14840653  0.75224143  1
  Cl  Cl505  1  0.36318582  0.47775821  0.74525925  1
  Cl  Cl506  1  0.35864440  0.81475321  0.74908679  1
  Cl  Cl507  1  0.85739478  0.14788515  0.75111730  1
  Cl  Cl508  1  0.85973115  0.48164331  0.73942199  1
  Cl  Cl509  1  0.86361498  0.81106244  0.74435423  1
  Cl  Cl510  1  0.14004691  0.18772096  0.25538636  1
  Cl  Cl511  1  0.14316547  0.51759889  0.24994437  1
  Cl  Cl512  1  0.14075685  0.85166780  0.25151889  1
  Cl  Cl513  1  0.63855821  0.18792935  0.25525441  1
  Cl  Cl514  1  0.64343977  0.51925015  0.25674270  1
  Cl  Cl515  1  0.64067942  0.85276715  0.25096123  1
  Cl  Cl516  1  0.13748291  0.14808594  0.74632298  1
  Cl  Cl517  1  0.14244500  0.48207455  0.74401198  1
  Cl  Cl518  1  0.13604691  0.81499398  0.74553215  1
  Cl  Cl519  1  0.63738437  0.14386492  0.74425775  1
  Cl  Cl520  1  0.64008801  0.48349228  0.74726167  1
  Cl  Cl521  1  0.64434333  0.81259631  0.74757147  1
  Cl  Cl522  1  0.36320760  0.18480220  0.24729524  1
  Cl  Cl523  1  0.36371447  0.52257401  0.25695751  1
  Cl  Cl524  1  0.36344089  0.85108960  0.25041714  1
  Cl  Cl525  1  0.86023143  0.18591266  0.24626781  1
  Cl  Cl526  1  0.86546939  0.52214823  0.25644706  1
  Cl  Cl527  1  0.86221210  0.85230865  0.25172036  1
  Cl  Cl528  1  0.10740921  0.31416105  0.74863825  1
  Cl  Cl529  1  0.11079295  0.64615624  0.74863320  1
  Cl  Cl530  1  0.10558711  0.98348910  0.74734006  1
  Cl  Cl531  1  0.61013976  0.31202762  0.74699069  1
  Cl  Cl532  1  0.60800329  0.64785130  0.74423280  1
  Cl  Cl533  1  0.61569401  0.97848898  0.74179141  1
  Cl  Cl534  1  0.39153502  0.01851447  0.24227482  1
  Cl  Cl535  1  0.39150681  0.35355217  0.25579580  1
  Cl  Cl536  1  0.39009300  0.68579675  0.24747992  1
  Cl  Cl537  1  0.89085698  0.01905732  0.24641780  1
  Cl  Cl538  1  0.89357126  0.35244867  0.25088924  1
  Cl  Cl539  1  0.88427997  0.68925285  0.26140626  1
  Cl  Cl540  1  0.39141169  0.31351051  0.74519873  1
  Cl  Cl541  1  0.38456968  0.64485251  0.74304344  1
  Cl  Cl542  1  0.39363488  0.98401243  0.75665838  1
  Cl  Cl543  1  0.88562298  0.31391195  0.74768774  1
  Cl  Cl544  1  0.89316833  0.64465749  0.74650145  1
  Cl  Cl545  1  0.88459059  0.98135224  0.75440690  1
  Cl  Cl546  1  0.10856857  0.01903154  0.25654052  1
  Cl  Cl547  1  0.11469299  0.35199322  0.25471936  1
  Cl  Cl548  1  0.10577374  0.68279489  0.25125999  1
  Cl  Cl549  1  0.61415584  0.02075081  0.25922200  1
  Cl  Cl550  1  0.61142529  0.35267503  0.24824616  1
  Cl  Cl551  1  0.61254030  0.68508700  0.25298777  1
