# generated using pymatgen
data_H8PbC4(N3Cl2)2
_symmetry_space_group_name_H-M   'P 1'
_cell_length_a   16.62527433
_cell_length_b   22.50874775
_cell_length_c   21.58860373
_cell_angle_alpha   90.00006189
_cell_angle_beta   89.98090366
_cell_angle_gamma   90.00330298
_symmetry_Int_Tables_number   1
_chemical_formula_structural   H8PbC4(N3Cl2)2
_chemical_formula_sum   'H192 Pb24 C96 N144 Cl96'
_cell_volume   8078.75958550
_cell_formula_units_Z   24
loop_
 _symmetry_equiv_pos_site_id
 _symmetry_equiv_pos_as_xyz
  1  'x, y, z'
loop_
 _atom_site_type_symbol
 _atom_site_label
 _atom_site_symmetry_multiplicity
 _atom_site_fract_x
 _atom_site_fract_y
 _atom_site_fract_z
 _atom_site_occupancy
  H  H0  1  0.01494054  0.02993703  0.67843759  1
  H  H1  1  -0.00996705  0.36499091  0.68132437  1
  H  H2  1  0.00486142  0.69524759  0.68112210  1
  H  H3  1  0.48487178  0.03204758  0.67678386  1
  H  H4  1  0.50032922  0.36393819  0.68080911  1
  H  H5  1  0.49028659  0.69729287  0.68163740  1
  H  H6  1  -0.00854532  0.30299795  0.18023608  1
  H  H7  1  -0.01085681  0.63473302  0.18119288  1
  H  H8  1  0.00667405  0.97095292  0.17581437  1
  H  H9  1  0.51178738  0.30122983  0.17641114  1
  H  H10  1  0.51210507  0.63601883  0.17677080  1
  H  H11  1  0.49075286  0.96882993  0.17544408  1
  H  H12  1  -0.00878425  0.03292470  0.82262156  1
  H  H13  1  -0.01277735  0.36270579  0.82187927  1
  H  H14  1  0.00109004  0.69699492  0.82193642  1
  H  H15  1  0.49635457  0.02959760  0.82230930  1
  H  H16  1  0.51179884  0.36458746  0.82148971  1
  H  H17  1  0.50216813  0.69645846  0.82414823  1
  H  H18  1  0.00572675  0.30387250  0.32091041  1
  H  H19  1  0.00876713  0.63508676  0.32270555  1
  H  H20  1  0.00233173  0.96838443  0.31929680  1
  H  H21  1  0.49231175  0.30356243  0.32060633  1
  H  H22  1  0.50408198  0.63540557  0.32245296  1
  H  H23  1  0.49558592  0.96860044  0.31793736  1
  H  H24  1  0.24017581  0.19895227  0.68060449  1
  H  H25  1  0.24430560  0.53030297  0.67658997  1
  H  H26  1  0.26039424  0.86640825  0.68345120  1
  H  H27  1  0.75966334  0.19642083  0.67609365  1
  H  H28  1  0.74898888  0.53124808  0.67746525  1
  H  H29  1  0.75270506  0.86318082  0.68143592  1
  H  H30  1  0.25991158  0.13745657  0.18085196  1
  H  H31  1  0.24128160  0.46936943  0.17573076  1
  H  H32  1  0.24064978  0.80074605  0.17830894  1
  H  H33  1  0.75227428  0.13385714  0.17863789  1
  H  H34  1  0.75288765  0.47223606  0.17999263  1
  H  H35  1  0.75715900  0.80441711  0.18003545  1
  H  H36  1  0.24106634  0.19634321  0.82597292  1
  H  H37  1  0.24736691  0.53057239  0.82477011  1
  H  H38  1  0.24771458  0.86382159  0.82026462  1
  H  H39  1  0.75410874  0.19871149  0.81945970  1
  H  H40  1  0.75184275  0.53306509  0.81913429  1
  H  H41  1  0.74925000  0.86319108  0.82132030  1
  H  H42  1  0.24470812  0.13655713  0.31783440  1
  H  H43  1  0.25245722  0.46869088  0.32192053  1
  H  H44  1  0.24451288  0.80281278  0.31829198  1
  H  H45  1  0.75881388  0.13558898  0.32572686  1
  H  H46  1  0.75118697  0.47035740  0.32067885  1
  H  H47  1  0.76028161  0.80420336  0.32226890  1
  H  H48  1  0.12186879  0.05865663  0.59478179  1
  H  H49  1  0.12881409  0.38556873  0.62441314  1
  H  H50  1  0.12718478  0.71889442  0.60735030  1
  H  H51  1  0.62742306  0.05123691  0.62807375  1
  H  H52  1  0.63170673  0.38590204  0.61596741  1
  H  H53  1  0.62686111  0.71875831  0.62194393  1
  H  H54  1  0.37473450  0.28205047  0.11824904  1
  H  H55  1  0.37685257  0.61469396  0.11738791  1
  H  H56  1  0.38007232  0.94006711  0.09633854  1
  H  H57  1  0.87699103  0.27518694  0.10282680  1
  H  H58  1  0.88185882  0.60940863  0.09806371  1
  H  H59  1  0.87449453  0.95019790  0.11244245  1
  H  H60  1  0.38675592  0.05952066  0.90283247  1
  H  H61  1  0.37253045  0.38350646  0.87749170  1
  H  H62  1  0.36827650  0.71959367  0.88409165  1
  H  H63  1  0.88177307  0.05744660  0.90458198  1
  H  H64  1  0.87751528  0.39122105  0.90349457  1
  H  H65  1  0.86940994  0.72039964  0.88456499  1
  H  H66  1  0.11862565  0.27706273  0.40161575  1
  H  H67  1  0.11788144  0.60590813  0.40299958  1
  H  H68  1  0.12640349  0.94480049  0.39012500  1
  H  H69  1  0.61907462  0.27732914  0.38795475  1
  H  H70  1  0.61482741  0.61034635  0.40454803  1
  H  H71  1  0.62890633  0.94971778  0.37865988  1
  H  H72  1  0.37987987  0.21556274  0.62411880  1
  H  H73  1  0.38223865  0.54881953  0.62016729  1
  H  H74  1  0.36967200  0.89133070  0.60170707  1
  H  H75  1  0.87640718  0.22268805  0.60003425  1
  H  H76  1  0.88056785  0.55375112  0.61190664  1
  H  H77  1  0.87195792  0.89006207  0.60568324  1
  H  H78  1  0.12097550  0.11573674  0.12455424  1
  H  H79  1  0.12990200  0.43931717  0.09675781  1
  H  H80  1  0.13834143  0.77763300  0.09283427  1
  H  H81  1  0.62304846  0.11476148  0.11485184  1
  H  H82  1  0.62643319  0.44615287  0.11144846  1
  H  H83  1  0.63029210  0.78074520  0.11199065  1
  H  H84  1  0.12761545  0.22585828  0.90299400  1
  H  H85  1  0.12386670  0.55113751  0.89687618  1
  H  H86  1  0.12475078  0.88823390  0.89397526  1
  H  H87  1  0.62225944  0.21833374  0.88325032  1
  H  H88  1  0.61974113  0.55270907  0.88259995  1
  H  H89  1  0.62260591  0.88684903  0.88901065  1
  H  H90  1  0.37408980  0.11336150  0.38274928  1
  H  H91  1  0.36522871  0.44360264  0.40050342  1
  H  H92  1  0.37232104  0.77796317  0.38374782  1
  H  H93  1  0.87054969  0.10794683  0.40509837  1
  H  H94  1  0.86366029  0.44411073  0.39894633  1
  H  H95  1  0.87000632  0.77508724  0.40334422  1
  H  H96  1  0.37097189  0.27954064  0.39529663  1
  H  H97  1  0.36794662  0.61277294  0.38242436  1
  H  H98  1  0.38014291  0.94488752  0.39458322  1
  H  H99  1  0.87189963  0.27992302  0.38182486  1
  H  H100  1  0.87120830  0.61676116  0.38078847  1
  H  H101  1  0.87712393  0.94715449  0.39082311  1
  H  H102  1  0.12791482  0.05035584  0.87735930  1
  H  H103  1  0.12427813  0.38417820  0.87840738  1
  H  H104  1  0.11799788  0.72403716  0.89786123  1
  H  H105  1  0.63383177  0.05225304  0.87839037  1
  H  H106  1  0.61940269  0.38981458  0.90428091  1
  H  H107  1  0.61561226  0.72289548  0.90164843  1
  H  H108  1  0.12541593  0.28232627  0.11683072  1
  H  H109  1  0.12813402  0.61557236  0.12411119  1
  H  H110  1  0.12298931  0.94329882  0.10014542  1
  H  H111  1  0.62138432  0.27307404  0.09531829  1
  H  H112  1  0.62398016  0.60853125  0.09709193  1
  H  H113  1  0.62706223  0.94949273  0.11689746  1
  H  H114  1  0.38428042  0.06121625  0.58975567  1
  H  H115  1  0.38294261  0.38966519  0.60465483  1
  H  H116  1  0.37987788  0.72307520  0.60025483  1
  H  H117  1  0.87609730  0.05278845  0.62488465  1
  H  H118  1  0.88211419  0.38960463  0.59840951  1
  H  H119  1  0.87824514  0.72223643  0.61522567  1
  H  H120  1  0.12473085  0.10951695  0.39223127  1
  H  H121  1  0.11806227  0.45070394  0.37991512  1
  H  H122  1  0.12307641  0.77652588  0.39199825  1
  H  H123  1  0.62374983  0.11326261  0.38456668  1
  H  H124  1  0.61563002  0.44773271  0.38029024  1
  H  H125  1  0.62403802  0.78043614  0.37810903  1
  H  H126  1  0.37516908  0.21828148  0.88593015  1
  H  H127  1  0.37200362  0.55848170  0.89248236  1
  H  H128  1  0.37332229  0.88740513  0.89150979  1
  H  H129  1  0.87133760  0.21928972  0.89461565  1
  H  H130  1  0.86875961  0.55488256  0.89420186  1
  H  H131  1  0.87133488  0.88921051  0.89370862  1
  H  H132  1  0.36773937  0.10948999  0.09838619  1
  H  H133  1  0.37672782  0.44792276  0.11654522  1
  H  H134  1  0.38304278  0.78432329  0.12850695  1
  H  H135  1  0.87145248  0.11081951  0.10444442  1
  H  H136  1  0.87631591  0.44582031  0.11004614  1
  H  H137  1  0.87964344  0.77913356  0.10605691  1
  H  H138  1  0.13387819  0.22530478  0.59680539  1
  H  H139  1  0.13614855  0.55779161  0.59342788  1
  H  H140  1  0.12271393  0.88516273  0.62460237  1
  H  H141  1  0.62809870  0.21877288  0.61287373  1
  H  H142  1  0.63211875  0.55722892  0.60083316  1
  H  H143  1  0.62366480  0.88713335  0.61359520  1
  H  H144  1  0.21391137  0.75300532  -0.01237186  1
  H  H145  1  0.29567447  0.07979355  -0.00489881  1
  H  H146  1  0.45030072  0.74864509  0.49420690  1
  H  H147  1  0.92070019  0.74933895  0.50304269  1
  H  H148  1  0.84025488  0.58200758  0.50616453  1
  H  H149  1  0.32482529  0.57544141  0.99864984  1
  H  H150  1  0.82716037  0.41848586  -0.00084989  1
  H  H151  1  0.79977788  0.41483977  0.50616293  1
  H  H152  1  0.29925935  0.91781988  0.49615685  1
  H  H153  1  0.33436444  0.08611012  0.49546614  1
  H  H154  1  0.39560546  0.75159925  0.99448675  1
  H  H155  1  0.59966871  0.91824279  0.49072880  1
  H  H156  1  0.64491539  0.42107969  0.48846683  1
  H  H157  1  0.81474589  0.24443181  1.00623672  1
  H  H158  1  0.46496921  0.08316952  0.49090861  1
  H  H159  1  0.33153152  0.75005565  0.49579009  1
  H  H160  1  0.95451705  0.58227422  -0.00628343  1
  H  H161  1  0.10682996  0.07972770  -0.00736932  1
  H  H162  1  0.42497402  0.25119723  0.49782518  1
  H  H163  1  0.05530711  0.75335478  1.00151670  1
  H  H164  1  0.67544898  0.74758348  0.00365134  1
  H  H165  1  0.14417257  0.42115770  0.49444747  1
  H  H166  1  0.39659877  0.58437489  0.49069317  1
  H  H167  1  0.45829406  0.08511933  1.00466328  1
  H  H168  1  0.94959653  0.41683939  1.00501255  1
  H  H169  1  0.18169876  0.09040585  0.49835337  1
  H  H170  1  0.94201790  0.24322751  -0.00284862  1
  H  H171  1  0.34318336  0.25031542  0.99311515  1
  H  H172  1  0.43841085  0.91622967  0.50306674  1
  H  H173  1  0.81188560  0.58515504  1.00418321  1
  H  H174  1  0.65624280  0.08733914  0.00080211  1
  H  H175  1  0.18038657  0.76791696  0.49970518  1
  H  H176  1  0.06951260  0.72580839  0.49932601  1
  H  H177  1  0.79832543  0.75171382  0.50561673  1
  H  H178  1  0.65240108  0.08390160  0.49427140  1
  H  H179  1  0.17229963  0.58766952  0.99771570  1
  H  H180  1  0.54884261  0.41667177  1.00987350  1
  H  H181  1  0.04878947  0.24984300  0.50267594  1
  H  H182  1  0.07693910  0.91602426  0.49900150  1
  H  H183  1  0.04600306  0.08311386  0.49429911  1
  H  H184  1  0.44203273  0.42030643  0.49851209  1
  H  H185  1  0.91145202  0.92016821  0.00602209  1
  H  H186  1  0.39553504  0.41181320  0.98601448  1
  H  H187  1  0.20754991  0.25616186  0.49459960  1
  H  H188  1  0.95425371  0.41816012  0.49420287  1
  H  H189  1  0.67451163  0.42528759  0.00374616  1
  H  H190  1  0.66576508  0.24922659  0.50632735  1
  H  H191  1  0.59950845  0.91717611  0.00949530  1
  Pb  Pb192  1  0.25392382  0.04805490  0.74443695  1
  Pb  Pb193  1  0.25403608  0.37923545  0.74744598  1
  Pb  Pb194  1  0.25046424  0.71875097  0.74333755  1
  Pb  Pb195  1  0.75657883  0.04916931  0.75446219  1
  Pb  Pb196  1  0.75511435  0.38458916  0.75376972  1
  Pb  Pb197  1  0.75028671  0.71202164  0.74974452  1
  Pb  Pb198  1  0.24807373  0.28812430  0.25299655  1
  Pb  Pb199  1  0.24886768  0.61888346  0.24846600  1
  Pb  Pb200  1  0.24544475  0.95065172  0.25039070  1
  Pb  Pb201  1  0.74299777  0.28331059  0.24844218  1
  Pb  Pb202  1  0.74436454  0.61966888  0.24850715  1
  Pb  Pb203  1  0.75064740  0.95450953  0.24872002  1
  Pb  Pb204  1  0.00656887  0.21587318  0.74691603  1
  Pb  Pb205  1  0.00653207  0.54833191  0.75005904  1
  Pb  Pb206  1  -0.00308466  0.88197163  0.75434357  1
  Pb  Pb207  1  0.50381924  0.21401830  0.74791450  1
  Pb  Pb208  1  0.49780372  0.54782194  0.74748444  1
  Pb  Pb209  1  0.50528900  0.88281148  0.75008803  1
  Pb  Pb210  1  -0.00207307  0.12055815  0.25791655  1
  Pb  Pb211  1  -0.00580056  0.45197746  0.24686100  1
  Pb  Pb212  1  -0.00491793  0.78334415  0.24732723  1
  Pb  Pb213  1  0.49274175  0.11727266  0.24439476  1
  Pb  Pb214  1  0.49651674  0.45366064  0.25060801  1
  Pb  Pb215  1  0.50071988  0.78727165  0.24996163  1
  C  C216  1  0.00453164  0.04546786  0.63167210  1
  C  C217  1  0.00072594  0.37990604  0.63425650  1
  C  C218  1  0.00418648  0.71088444  0.63346458  1
  C  C219  1  0.49856548  0.04667540  0.62998038  1
  C  C220  1  0.50524091  0.37956126  0.63336095  1
  C  C221  1  0.49926847  0.71235006  0.63438858  1
  C  C222  1  -0.00187448  0.28730591  0.13296083  1
  C  C223  1  0.00009442  0.62048259  0.13385745  1
  C  C224  1  0.00097569  0.95513208  0.12863040  1
  C  C225  1  0.50229168  0.28575810  0.12959575  1
  C  C226  1  0.50397259  0.62033965  0.12988081  1
  C  C227  1  0.49974827  0.95304093  0.12852414  1
  C  C228  1  0.00114105  0.04668158  0.87007809  1
  C  C229  1  -0.00399635  0.37816686  0.86890530  1
  C  C230  1  -0.00358937  0.71303954  0.86908725  1
  C  C231  1  0.50533562  0.04553905  0.86919885  1
  C  C232  1  0.50049236  0.37954248  0.86864954  1
  C  C233  1  0.49473897  0.71277965  0.87101468  1
  C  C234  1  -0.00094623  0.28760568  0.36794905  1
  C  C235  1  -0.00109600  0.61935986  0.36935029  1
  C  C236  1  0.00195044  0.95283296  0.36684413  1
  C  C237  1  0.49371489  0.28720164  0.36785895  1
  C  C238  1  0.49523593  0.61960455  0.36946095  1
  C  C239  1  0.50187668  0.95397070  0.36564519  1
  C  C240  1  0.25175757  0.21316289  0.63335158  1
  C  C241  1  0.25409418  0.54558592  0.62963208  1
  C  C242  1  0.25051200  0.88086164  0.63606982  1
  C  C243  1  0.75432144  0.21279567  0.62916351  1
  C  C244  1  0.75437481  0.54706833  0.63018480  1
  C  C245  1  0.74933194  0.87945138  0.63419609  1
  C  C246  1  0.24924465  0.12145558  0.13414709  1
  C  C247  1  0.24967296  0.45296306  0.12916619  1
  C  C248  1  0.25421892  0.78737994  0.13105290  1
  C  C249  1  0.74826196  0.11976581  0.13076832  1
  C  C250  1  0.75125534  0.45555458  0.13270182  1
  C  C251  1  0.75599646  0.78797277  0.13281973  1
  C  C252  1  0.24834125  0.21314185  0.87267847  1
  C  C253  1  0.24778173  0.54666690  0.87222924  1
  C  C254  1  0.24850152  0.87943572  0.86784306  1
  C  C255  1  0.74947055  0.21246018  0.86742733  1
  C  C256  1  0.74704370  0.54704054  0.86700102  1
  C  C257  1  0.74797520  0.87975158  0.86824702  1
  C  C258  1  0.24736319  0.12095017  0.36549110  1
  C  C259  1  0.24445310  0.45430174  0.36936819  1
  C  C260  1  0.24591131  0.78713560  0.36590777  1
  C  C261  1  0.75047206  0.11980827  0.37267255  1
  C  C262  1  0.74269760  0.45478684  0.36791060  1
  C  C263  1  0.75173062  0.78859251  0.36919004  1
  C  C264  1  0.94449771  0.74391706  0.95844975  1
  C  C265  1  0.52275058  0.25515905  0.03435573  1
  C  C266  1  0.55448121  0.92824962  0.45582184  1
  C  C267  1  0.97375310  0.25694518  0.03885979  1
  C  C268  1  0.05923415  0.07106530  0.95895096  1
  C  C269  1  0.22016960  0.24659529  0.96720798  1
  C  C270  1  0.47486149  0.92034724  0.03310079  1
  C  C271  1  0.01885116  0.58818633  0.46425867  1
  C  C272  1  0.32217833  0.76496305  0.04570502  1
  C  C273  1  0.76877578  0.42597135  0.46333927  1
  C  C274  1  0.52085191  0.40684676  0.96548567  1
  C  C275  1  0.27120352  0.42718051  0.46533178  1
  C  C276  1  0.94194995  0.07523932  0.54616670  1
  C  C277  1  0.79069142  0.42705638  0.04008944  1
  C  C278  1  0.26688861  0.09158078  0.03885673  1
  C  C279  1  0.29441826  0.09400644  0.45640099  1
  C  C280  1  0.69575563  0.57185237  0.95769391  1
  C  C281  1  0.31008774  0.57135873  0.54203056  1
  C  C282  1  0.03284249  0.92412679  0.03391580  1
  C  C283  1  0.69225038  0.75761532  0.45566678  1
  C  C284  1  0.77708724  0.57342053  0.96330748  1
  C  C285  1  0.52268490  0.74361305  0.96645898  1
  C  C286  1  0.98330439  0.59422408  0.03734855  1
  C  C287  1  0.47935936  0.73898347  0.53827621  1
  C  C288  1  0.56504010  0.07570087  0.95540794  1
  C  C289  1  0.19027579  0.42956379  0.45960761  1
  C  C290  1  0.71589181  0.75898846  0.04158188  1
  C  C291  1  0.69862898  0.23638861  0.95852752  1
  C  C292  1  0.52688892  0.58879850  0.03549139  1
  C  C293  1  0.98292748  0.40765395  0.53830666  1
  C  C294  1  0.97855186  0.07348636  0.96667272  1
  C  C295  1  0.95965069  0.73872961  0.54201448  1
  C  C296  1  0.77979398  0.23632695  0.96449174  1
  C  C297  1  0.78222967  0.09431863  0.03573786  1
  C  C298  1  0.56674573  0.07225053  0.54601080  1
  C  C299  1  0.23621965  0.24250145  0.53773612  1
  C  C300  1  0.22694894  0.41971349  0.03525664  1
  C  C301  1  0.70669002  0.90805582  0.96019568  1
  C  C302  1  0.70095668  0.09562706  0.03761273  1
  C  C303  1  0.03811071  0.92613631  0.45981249  1
  C  C304  1  0.77705138  0.08824713  0.46819707  1
  C  C305  1  0.26965481  0.90682554  0.53977278  1
  C  C306  1  0.78696046  0.24300414  0.53425429  1
  C  C307  1  0.24210537  0.76260906  0.03213011  1
  C  C308  1  0.05583390  0.40813247  0.95558623  1
  C  C309  1  0.29171871  0.76013647  0.45722196  1
  C  C310  1  0.47271583  0.92704338  0.46172725  1
  C  C311  1  0.47679099  0.40825287  0.53937412  1
  N  N312  1  0.48933446  0.07556075  0.53400820  1
  N  N313  1  0.55307286  0.92456222  0.04127694  1
  N  N314  1  0.05253382  0.25992933  0.04339221  1
  N  N315  1  0.06171064  0.59703747  0.04575653  1
  N  N316  1  0.02086440  0.25841683  0.46125975  1
  N  N317  1  0.55784885  0.73843212  0.54585557  1
  N  N318  1  0.21178166  0.76030618  0.45965060  1
  N  N319  1  0.69884620  0.09150314  0.46084679  1
  N  N320  1  0.54000024  0.25877424  0.45909903  1
  N  N321  1  0.01990186  0.07594542  0.53685992  1
  N  N322  1  0.30408633  0.42323464  0.04024643  1
  N  N323  1  0.46141518  0.25978118  0.46011146  1
  N  N324  1  0.44577489  0.25838028  0.04062248  1
  N  N325  1  0.48678070  0.07766451  0.96306336  1
  N  N326  1  0.28827434  0.90664746  0.96099038  1
  N  N327  1  0.03972759  0.73657004  0.53936541  1
  N  N328  1  0.97754415  0.40916084  0.96329904  1
  N  N329  1  0.29865941  0.24285709  0.96056657  1
  N  N330  1  0.77036223  0.75792174  0.46372629  1
  N  N331  1  0.52077021  0.59215437  0.46554406  1
  N  N332  1  0.94184938  0.59217398  0.45806300  1
  N  N333  1  0.44947674  0.59067360  0.04066126  1
  N  N334  1  0.23345344  0.57520970  0.53234741  1
  N  N335  1  0.02319469  0.74403026  0.96215796  1
  N  N336  1  0.18873739  0.09286319  0.04802051  1
  N  N337  1  0.19096204  0.90460273  0.54732210  1
  N  N338  1  0.68980994  0.42726916  0.45555400  1
  N  N339  1  0.70817719  0.24126279  0.53956850  1
  N  N340  1  0.95881002  0.92638601  0.46038133  1
  N  N341  1  0.21481757  0.09197120  0.45838582  1
  N  N342  1  0.79891544  0.57376328  0.54098655  1
  N  N343  1  0.06105741  0.40711955  0.54755699  1
  N  N344  1  0.44334986  0.59302908  0.45669301  1
  N  N345  1  0.79505238  0.75827384  0.03921475  1
  N  N346  1  0.31462292  0.23882096  0.54638073  1
  N  N347  1  0.21220547  0.90628961  0.96193881  1
  N  N348  1  0.78466782  0.90941786  0.96268303  1
  N  N349  1  0.78146259  0.90923202  0.54010666  1
  N  N350  1  0.94330111  0.25955087  0.45592481  1
  N  N351  1  0.71110762  0.42610366  0.04182556  1
  N  N352  1  0.20996058  0.56785585  0.96575575  1
  N  N353  1  0.44408748  0.74190892  0.95952854  1
  N  N354  1  0.28779198  0.58170531  0.96085872  1
  N  N355  1  0.72102688  0.57520430  0.53564412  1
  N  N356  1  0.55602939  0.40683040  0.54254027  1
  N  N357  1  0.95413442  0.92732864  0.03922406  1
  N  N358  1  0.70542656  0.90799081  0.54261259  1
  N  N359  1  0.44246146  0.40627888  0.95464285  1
  N  N360  1  0.05977780  0.05570364  0.58880855  1
  N  N361  1  0.07075505  0.38991184  0.60728651  1
  N  N362  1  0.06646777  0.71526649  0.59566311  1
  N  N363  1  0.57256638  0.05565503  0.60580855  1
  N  N364  1  0.57214101  0.38890137  0.60170173  1
  N  N365  1  0.56849692  0.72179206  0.60555733  1
  N  N366  1  0.43299295  0.27740893  0.10129204  1
  N  N367  1  0.43538368  0.61102630  0.10084594  1
  N  N368  1  0.44143854  0.93808003  0.08711776  1
  N  N369  1  0.93849358  0.27384079  0.09345814  1
  N  N370  1  0.94396065  0.60858213  0.09095826  1
  N  N371  1  0.93383781  0.94693841  0.09732180  1
  N  N372  1  0.44886023  0.05614998  0.91078921  1
  N  N373  1  0.43032007  0.38916175  0.89519702  1
  N  N374  1  0.42663048  0.72286179  0.90054988  1
  N  N375  1  0.94357211  0.05877025  0.91308452  1
  N  N376  1  0.93932973  0.38856612  0.91060623  1
  N  N377  1  0.92756510  0.72499388  0.90078463  1
  N  N378  1  0.05667356  0.27690085  0.40870566  1
  N  N379  1  0.05626467  0.60461226  0.41104752  1
  N  N380  1  0.06620593  0.94176943  0.40250361  1
  N  N381  1  0.55894809  0.27480653  0.40111200  1
  N  N382  1  0.55282486  0.60829132  0.41085347  1
  N  N383  1  0.57101754  0.94482956  0.39599329  1
  N  N384  1  0.32228390  0.22098927  0.60629503  1
  N  N385  1  0.32527264  0.55390987  0.60152984  1
  N  N386  1  0.30768992  0.89235966  0.59383070  1
  N  N387  1  0.81582234  0.22563919  0.58965337  1
  N  N388  1  0.82076754  0.55618656  0.59790312  1
  N  N389  1  0.81032570  0.89162614  0.59668731  1
  N  N390  1  0.17911612  0.11150128  0.10726481  1
  N  N391  1  0.19132842  0.43782795  0.08855291  1
  N  N392  1  0.20056686  0.77670824  0.08658206  1
  N  N393  1  0.68109052  0.11142026  0.09828630  1
  N  N394  1  0.68694930  0.44672652  0.09795549  1
  N  N395  1  0.69039543  0.77674087  0.09875114  1
  N  N396  1  0.18860061  0.22803507  0.91300434  1
  N  N397  1  0.18435987  0.55671599  0.90777451  1
  N  N398  1  0.18583891  0.88975863  0.90420814  1
  N  N399  1  0.68084247  0.22226600  0.89986237  1
  N  N400  1  0.67821534  0.55622201  0.89942877  1
  N  N401  1  0.68224020  0.89054935  0.90280716  1
  N  N402  1  0.31488674  0.11030339  0.39835940  1
  N  N403  1  0.30384907  0.44206207  0.41085450  1
  N  N404  1  0.31279875  0.77492952  0.39895566  1
  N  N405  1  0.80937344  0.10603191  0.41390214  1
  N  N406  1  0.80193713  0.44243507  0.40881948  1
  N  N407  1  0.80845588  0.77917027  0.41099336  1
  N  N408  1  0.43204234  0.27785536  0.40532001  1
  N  N409  1  0.42669181  0.60959005  0.39845720  1
  N  N410  1  0.44126240  0.94306352  0.40513152  1
  N  N411  1  0.93026560  0.27649901  0.39732311  1
  N  N412  1  0.92934756  0.61144755  0.39754476  1
  N  N413  1  0.93809156  0.94297796  0.40216225  1
  N  N414  1  0.07207508  0.05446072  0.89781588  1
  N  N415  1  0.06730376  0.38958344  0.89704016  1
  N  N416  1  0.05649836  0.72368308  0.90764472  1
  N  N417  1  0.57671262  0.05694306  0.89684463  1
  N  N418  1  0.55743347  0.39084976  0.91198410  1
  N  N419  1  0.55434201  0.72576241  0.91174955  1
  N  N420  1  0.06590577  0.27860872  0.10198492  1
  N  N421  1  0.07020981  0.61290922  0.10622442  1
  N  N422  1  0.06220585  0.94112620  0.08934077  1
  N  N423  1  0.55974698  0.27173813  0.08772160  1
  N  N424  1  0.56260690  0.60664012  0.08885363  1
  N  N425  1  0.56892962  0.94517172  0.09984339  1
  N  N426  1  0.44621072  0.05692623  0.58519782  1
  N  N427  1  0.44436692  0.39179022  0.59466989  1
  N  N428  1  0.44157708  0.72346869  0.59240589  1
  N  N429  1  0.93241883  0.05707793  0.60501816  1
  N  N430  1  0.94433572  0.39112197  0.59129916  1
  N  N431  1  0.93798270  0.72489913  0.60038330  1
  N  N432  1  0.18590431  0.11201509  0.40322199  1
  N  N433  1  0.17486313  0.44627660  0.39887115  1
  N  N434  1  0.18384606  0.78077594  0.40369386  1
  N  N435  1  0.68177826  0.11153467  0.40187009  1
  N  N436  1  0.67399634  0.44627419  0.39719877  1
  N  N437  1  0.68053604  0.77616056  0.39719334  1
  N  N438  1  0.31658062  0.22208506  0.90228436  1
  N  N439  1  0.31198447  0.55786709  0.90634096  1
  N  N440  1  0.31247743  0.89005764  0.90277922  1
  N  N441  1  0.81068801  0.22148607  0.90638956  1
  N  N442  1  0.80817476  0.55763431  0.90562919  1
  N  N443  1  0.81015768  0.89146062  0.90409968  1
  N  N444  1  0.30552511  0.10894457  0.09150846  1
  N  N445  1  0.31838795  0.44414253  0.10006540  1
  N  N446  1  0.32831787  0.77965785  0.10615618  1
  N  N447  1  0.81084446  0.10879673  0.09165628  1
  N  N448  1  0.81594895  0.44349208  0.09700230  1
  N  N449  1  0.81844983  0.77641209  0.09651447  1
  N  N450  1  0.19628978  0.22647595  0.59047230  1
  N  N451  1  0.19849043  0.55855846  0.58820705  1
  N  N452  1  0.18097311  0.88903132  0.60758815  1
  N  N453  1  0.68740631  0.22287019  0.59821603  1
  N  N454  1  0.69372351  0.55916116  0.59181165  1
  N  N455  1  0.68386391  0.88971398  0.60095171  1
  Cl  Cl456  1  0.24983951  0.06285632  0.59929907  1
  Cl  Cl457  1  0.25880131  0.38673654  0.61595712  1
  Cl  Cl458  1  0.25132496  0.72817365  0.60400242  1
  Cl  Cl459  1  0.75156268  0.05806156  0.62072453  1
  Cl  Cl460  1  0.75957427  0.38781324  0.61208866  1
  Cl  Cl461  1  0.75707865  0.72381504  0.61210555  1
  Cl  Cl462  1  0.25010821  0.28044614  0.12025814  1
  Cl  Cl463  1  0.25221281  0.60775328  0.11225219  1
  Cl  Cl464  1  0.25207583  0.94709381  0.11956310  1
  Cl  Cl465  1  0.74992045  0.27803068  0.11430857  1
  Cl  Cl466  1  0.75468016  0.60882159  0.11300907  1
  Cl  Cl467  1  0.75098827  0.94841841  0.11646034  1
  Cl  Cl468  1  0.26673875  0.06114038  0.87988579  1
  Cl  Cl469  1  0.24883051  0.38360014  0.88089681  1
  Cl  Cl470  1  0.24000678  0.71957427  0.87906113  1
  Cl  Cl471  1  0.75935606  0.05567002  0.88707754  1
  Cl  Cl472  1  0.74760558  0.39344283  0.89659341  1
  Cl  Cl473  1  0.73966653  0.71911260  0.88144758  1
  Cl  Cl474  1  0.24305276  0.27738236  0.39044293  1
  Cl  Cl475  1  0.24390205  0.61456503  0.37959205  1
  Cl  Cl476  1  0.25474018  0.94541626  0.38705736  1
  Cl  Cl477  1  0.74316812  0.27855139  0.38532783  1
  Cl  Cl478  1  0.74185025  0.61615544  0.38217025  1
  Cl  Cl479  1  0.75432441  0.95222518  0.37915202  1
  Cl  Cl480  1  0.00976495  0.22227355  0.60599234  1
  Cl  Cl481  1  0.00599839  0.55490434  0.61659458  1
  Cl  Cl482  1  -0.00502331  0.88611423  0.62122199  1
  Cl  Cl483  1  0.50476588  0.21665779  0.61370537  1
  Cl  Cl484  1  0.50873769  0.55317864  0.61534101  1
  Cl  Cl485  1  0.49483001  0.89017639  0.61575264  1
  Cl  Cl486  1  -0.00702000  0.11447267  0.12713888  1
  Cl  Cl487  1  -0.00068804  0.44131671  0.10696782  1
  Cl  Cl488  1  0.01155256  0.77816031  0.10777160  1
  Cl  Cl489  1  0.48941390  0.10755790  0.10654420  1
  Cl  Cl490  1  0.50501608  0.44361528  0.11396186  1
  Cl  Cl491  1  0.50960854  0.78254712  0.11723954  1
  Cl  Cl492  1  -0.00111446  0.22284556  0.88108565  1
  Cl  Cl493  1  -0.00121391  0.55216141  0.88757145  1
  Cl  Cl494  1  -0.00277482  0.88861728  0.89097232  1
  Cl  Cl495  1  0.49829411  0.21506451  0.87955275  1
  Cl  Cl496  1  0.49434696  0.55309904  0.88013784  1
  Cl  Cl497  1  0.49824383  0.88727906  0.88604379  1
  Cl  Cl498  1  0.00191087  0.10707388  0.39770659  1
  Cl  Cl499  1  -0.01467508  0.44565722  0.38195443  1
  Cl  Cl500  1  -0.00227351  0.76764565  0.39239046  1
  Cl  Cl501  1  0.49622617  0.10889959  0.38799674  1
  Cl  Cl502  1  0.48700345  0.44373809  0.38512313  1
  Cl  Cl503  1  0.49427667  0.77654192  0.38333053  1
  Cl  Cl504  1  0.36517896  0.14694135  0.74275443  1
  Cl  Cl505  1  0.36109377  0.48069403  0.75108625  1
  Cl  Cl506  1  0.35745228  0.81186492  0.75296745  1
  Cl  Cl507  1  0.85684684  0.14729782  0.74588550  1
  Cl  Cl508  1  0.85770613  0.47835634  0.74875265  1
  Cl  Cl509  1  0.86119281  0.81344180  0.75338630  1
  Cl  Cl510  1  0.13680063  0.18682707  0.24844892  1
  Cl  Cl511  1  0.13761529  0.51914027  0.24939196  1
  Cl  Cl512  1  0.14359673  0.85337656  0.25150393  1
  Cl  Cl513  1  0.64010679  0.18730514  0.25553208  1
  Cl  Cl514  1  0.63809031  0.51968827  0.25210838  1
  Cl  Cl515  1  0.63937075  0.85335236  0.25408587  1
  Cl  Cl516  1  0.14182513  0.14818296  0.75242776  1
  Cl  Cl517  1  0.14139316  0.47935816  0.74968574  1
  Cl  Cl518  1  0.13827939  0.80955009  0.74262929  1
  Cl  Cl519  1  0.63742110  0.14467107  0.74966970  1
  Cl  Cl520  1  0.64163936  0.47823807  0.74935117  1
  Cl  Cl521  1  0.63735175  0.81200508  0.74639878  1
  Cl  Cl522  1  0.35807834  0.18505799  0.25326427  1
  Cl  Cl523  1  0.36007220  0.51897963  0.24683197  1
  Cl  Cl524  1  0.36438308  0.85439872  0.24764604  1
  Cl  Cl525  1  0.85971999  0.18584524  0.25672705  1
  Cl  Cl526  1  0.85702507  0.51886074  0.25095974  1
  Cl  Cl527  1  0.86064240  0.85174163  0.24900438  1
  Cl  Cl528  1  0.11256368  0.31229044  0.74694175  1
  Cl  Cl529  1  0.10709985  0.64540071  0.75086325  1
  Cl  Cl530  1  0.11582974  0.97907562  0.75177404  1
  Cl  Cl531  1  0.60799511  0.31398290  0.74951821  1
  Cl  Cl532  1  0.61322588  0.64574176  0.74809223  1
  Cl  Cl533  1  0.60952769  0.97853754  0.74870790  1
  Cl  Cl534  1  0.39445587  0.02038137  0.25133351  1
  Cl  Cl535  1  0.38943061  0.35093532  0.24333369  1
  Cl  Cl536  1  0.38461322  0.68877527  0.24431446  1
  Cl  Cl537  1  0.89003503  0.01837887  0.24876443  1
  Cl  Cl538  1  0.89170450  0.35276950  0.25164694  1
  Cl  Cl539  1  0.89452541  0.68722293  0.25291727  1
  Cl  Cl540  1  0.38861849  0.31150512  0.75422819  1
  Cl  Cl541  1  0.39195475  0.64635831  0.75234930  1
  Cl  Cl542  1  0.38856680  0.98055025  0.74757204  1
  Cl  Cl543  1  0.89128994  0.31494213  0.74801528  1
  Cl  Cl544  1  0.88839814  0.64566836  0.75167375  1
  Cl  Cl545  1  0.89346231  0.98247247  0.74973984  1
  Cl  Cl546  1  0.11040955  0.02023823  0.25230309  1
  Cl  Cl547  1  0.11006577  0.35373883  0.24884662  1
  Cl  Cl548  1  0.11391908  0.68740006  0.24680294  1
  Cl  Cl549  1  0.61321541  0.02193288  0.24743727  1
  Cl  Cl550  1  0.60938108  0.35342379  0.25159441  1
  Cl  Cl551  1  0.60591545  0.68394514  0.25204314  1
