# generated using pymatgen
data_H8PbC4(N3Cl2)2
_symmetry_space_group_name_H-M   'P 1'
_cell_length_a   16.62397383
_cell_length_b   22.50764837
_cell_length_c   21.59069094
_cell_angle_alpha   90.00074138
_cell_angle_beta   89.98355473
_cell_angle_gamma   89.99295620
_symmetry_Int_Tables_number   1
_chemical_formula_structural   H8PbC4(N3Cl2)2
_chemical_formula_sum   'H192 Pb24 C96 N144 Cl96'
_cell_volume   8078.51411023
_cell_formula_units_Z   24
loop_
 _symmetry_equiv_pos_site_id
 _symmetry_equiv_pos_as_xyz
  1  'x, y, z'
loop_
 _atom_site_type_symbol
 _atom_site_label
 _atom_site_symmetry_multiplicity
 _atom_site_fract_x
 _atom_site_fract_y
 _atom_site_fract_z
 _atom_site_occupancy
  H  H0  1  -0.00884864  0.03181405  0.68081624  1
  H  H1  1  0.00338516  0.36446221  0.68122336  1
  H  H2  1  -0.00732262  0.69824605  0.68353955  1
  H  H3  1  0.50501754  0.03069132  0.67744624  1
  H  H4  1  0.49490090  0.36449686  0.68014512  1
  H  H5  1  0.50778919  0.69770199  0.67680989  1
  H  H6  1  -0.00653896  0.30422865  0.17861664  1
  H  H7  1  0.01038342  0.63554091  0.17783950  1
  H  H8  1  0.00341717  0.97021871  0.17883538  1
  H  H9  1  0.49384911  0.30073260  0.18039891  1
  H  H10  1  0.48799886  0.63526863  0.18149373  1
  H  H11  1  0.49337147  0.96808282  0.17888042  1
  H  H12  1  0.00098684  0.03194132  0.82161451  1
  H  H13  1  -0.00076061  0.36428430  0.82052331  1
  H  H14  1  0.00439529  0.69717237  0.82197299  1
  H  H15  1  0.49950114  0.03166633  0.81820877  1
  H  H16  1  0.51097012  0.36462607  0.82006077  1
  H  H17  1  0.49668998  0.69704992  0.82245334  1
  H  H18  1  -0.00277379  0.30180628  0.31606701  1
  H  H19  1  -0.00345509  0.63317481  0.32028222  1
  H  H20  1  0.00730017  0.97241386  0.32047750  1
  H  H21  1  0.50191959  0.30150707  0.32009908  1
  H  H22  1  0.49628292  0.63655137  0.32285312  1
  H  H23  1  0.49212989  0.97032636  0.32184699  1
  H  H24  1  0.23644823  0.19515652  0.67747976  1
  H  H25  1  0.26006707  0.53120492  0.67549204  1
  H  H26  1  0.23669626  0.86529998  0.68033005  1
  H  H27  1  0.76482884  0.19948912  0.68108384  1
  H  H28  1  0.75072894  0.52946012  0.67656677  1
  H  H29  1  0.75192212  0.86476305  0.67964138  1
  H  H30  1  0.24576998  0.13560458  0.18318634  1
  H  H31  1  0.23926023  0.46543959  0.17733833  1
  H  H32  1  0.24026409  0.80275665  0.17884618  1
  H  H33  1  0.74103465  0.13592010  0.17611919  1
  H  H34  1  0.74470287  0.47120261  0.18002176  1
  H  H35  1  0.75912366  0.80267873  0.17716720  1
  H  H36  1  0.25433433  0.19571083  0.82070045  1
  H  H37  1  0.25474139  0.52842487  0.81874565  1
  H  H38  1  0.25579769  0.86548039  0.81868397  1
  H  H39  1  0.74203537  0.19571982  0.82306172  1
  H  H40  1  0.74271402  0.53239515  0.82396907  1
  H  H41  1  0.74911851  0.86308294  0.82155572  1
  H  H42  1  0.25431960  0.13561614  0.32163038  1
  H  H43  1  0.25353211  0.47114322  0.32111562  1
  H  H44  1  0.23992116  0.80155179  0.32433880  1
  H  H45  1  0.75211571  0.13529557  0.32126646  1
  H  H46  1  0.74575079  0.47126347  0.31990679  1
  H  H47  1  0.76170863  0.80195105  0.31787811  1
  H  H48  1  0.12571961  0.05278945  0.61805639  1
  H  H49  1  0.12536577  0.38964324  0.60685674  1
  H  H50  1  0.12016290  0.71827730  0.61629614  1
  H  H51  1  0.62589054  0.05670551  0.60456541  1
  H  H52  1  0.63105583  0.38337081  0.62346584  1
  H  H53  1  0.61650918  0.72490928  0.59368808  1
  H  H54  1  0.38297759  0.27575289  0.09731095  1
  H  H55  1  0.37737228  0.60901430  0.09991114  1
  H  H56  1  0.38938619  0.94258000  0.09562176  1
  H  H57  1  0.87843153  0.27669591  0.10171020  1
  H  H58  1  0.86975514  0.61811708  0.12384435  1
  H  H59  1  0.88278665  0.94438393  0.10672993  1
  H  H60  1  0.37442213  0.05393902  0.88897204  1
  H  H61  1  0.37159916  0.38378365  0.87525359  1
  H  H62  1  0.37256034  0.72260292  0.89331318  1
  H  H63  1  0.86834396  0.05386966  0.88501014  1
  H  H64  1  0.87540481  0.38485360  0.88958387  1
  H  H65  1  0.86919225  0.72021373  0.87992643  1
  H  H66  1  0.12292579  0.28133465  0.38482809  1
  H  H67  1  0.13382585  0.61451445  0.37762779  1
  H  H68  1  0.11833646  0.94231515  0.40091021  1
  H  H69  1  0.62258890  0.27825581  0.39150454  1
  H  H70  1  0.63269300  0.61659122  0.38073192  1
  H  H71  1  0.62624977  0.95012948  0.38342806  1
  H  H72  1  0.37732307  0.21426802  0.62763010  1
  H  H73  1  0.36594724  0.56123556  0.59372519  1
  H  H74  1  0.37524090  0.88449652  0.62412800  1
  H  H75  1  0.86554701  0.22296571  0.59462647  1
  H  H76  1  0.86520590  0.55696486  0.59980752  1
  H  H77  1  0.87193212  0.89065134  0.60491868  1
  H  H78  1  0.12730125  0.11248035  0.10758795  1
  H  H79  1  0.13156731  0.44167718  0.09420355  1
  H  H80  1  0.13494354  0.77346938  0.09338141  1
  H  H81  1  0.63408240  0.10808558  0.09227041  1
  H  H82  1  0.63570021  0.44257070  0.09690560  1
  H  H83  1  0.63018962  0.78171244  0.11349137  1
  H  H84  1  0.11881893  0.21908593  0.87760554  1
  H  H85  1  0.12801016  0.55063622  0.88686310  1
  H  H86  1  0.11801070  0.88485800  0.87699425  1
  H  H87  1  0.62364395  0.22259382  0.89783412  1
  H  H88  1  0.63320650  0.56012996  0.90631430  1
  H  H89  1  0.61604268  0.88495732  0.88436619  1
  H  H90  1  0.37290626  0.11147122  0.39732980  1
  H  H91  1  0.36957822  0.44396780  0.39805139  1
  H  H92  1  0.38000530  0.78440717  0.37818935  1
  H  H93  1  0.87335492  0.11108905  0.39398883  1
  H  H94  1  0.86917459  0.44652799  0.39165028  1
  H  H95  1  0.87235317  0.77729712  0.39910654  1
  H  H96  1  0.37331945  0.28001858  0.38672933  1
  H  H97  1  0.38609733  0.60713848  0.40361546  1
  H  H98  1  0.37806290  0.94479567  0.40013841  1
  H  H99  1  0.87292672  0.28024576  0.38582801  1
  H  H100  1  0.88573960  0.60903827  0.40033700  1
  H  H101  1  0.87112031  0.95151393  0.37738176  1
  H  H102  1  0.11581336  0.05824469  0.89994555  1
  H  H103  1  0.12419690  0.38634379  0.88989190  1
  H  H104  1  0.11666343  0.72466450  0.90224831  1
  H  H105  1  0.62359851  0.05459853  0.89044644  1
  H  H106  1  0.61654842  0.39211192  0.90622780  1
  H  H107  1  0.62170635  0.72047118  0.89110372  1
  H  H108  1  0.12638061  0.28288269  0.11516795  1
  H  H109  1  0.11558965  0.60640876  0.09489422  1
  H  H110  1  0.13229075  0.94503929  0.11223763  1
  H  H111  1  0.63009144  0.28146658  0.12003893  1
  H  H112  1  0.62474081  0.61633286  0.12191098  1
  H  H113  1  0.63497552  0.95194975  0.12725459  1
  H  H114  1  0.37696486  0.05366236  0.60989450  1
  H  H115  1  0.38335895  0.38997946  0.60053611  1
  H  H116  1  0.37020257  0.71604875  0.62003332  1
  H  H117  1  0.87831499  0.05664649  0.59912223  1
  H  H118  1  0.87623381  0.38696287  0.61329992  1
  H  H119  1  0.87036472  0.71937166  0.61182687  1
  H  H120  1  0.12419308  0.11213721  0.38800433  1
  H  H121  1  0.12123884  0.44725973  0.38258287  1
  H  H122  1  0.13556562  0.77092632  0.40798923  1
  H  H123  1  0.62434963  0.11410933  0.39056214  1
  H  H124  1  0.62043601  0.44537536  0.38833144  1
  H  H125  1  0.62527523  0.78182996  0.37792031  1
  H  H126  1  0.36631205  0.22482104  0.90077878  1
  H  H127  1  0.37785376  0.55582221  0.89016450  1
  H  H128  1  0.36473433  0.88963299  0.90087914  1
  H  H129  1  0.87218447  0.22029843  0.88759377  1
  H  H130  1  0.87943240  0.55119885  0.88109904  1
  H  H131  1  0.86297240  0.88924130  0.90128152  1
  H  H132  1  0.37643310  0.11326237  0.11644774  1
  H  H133  1  0.37685478  0.44915393  0.12407755  1
  H  H134  1  0.37941739  0.78358860  0.12403884  1
  H  H135  1  0.87962399  0.11799562  0.12093463  1
  H  H136  1  0.88123072  0.44802001  0.12233236  1
  H  H137  1  0.87870696  0.77773619  0.10333598  1
  H  H138  1  0.13320250  0.22585512  0.59250688  1
  H  H139  1  0.12097824  0.55054781  0.62097784  1
  H  H140  1  0.13030084  0.89346584  0.59504308  1
  H  H141  1  0.62196701  0.21364143  0.63202183  1
  H  H142  1  0.61720006  0.55324100  0.61575545  1
  H  H143  1  0.62378464  0.88745397  0.61371055  1
  H  H144  1  0.90092505  0.08284833  0.99213522  1
  H  H145  1  0.64831177  0.58211877  0.50715941  1
  H  H146  1  0.80215770  0.75273042  0.50573283  1
  H  H147  1  0.45561470  0.25166026  -0.00394142  1
  H  H148  1  0.42156453  0.75169348  0.99739831  1
  H  H149  1  0.29518378  0.91738288  1.00559706  1
  H  H150  1  0.44734332  0.41707106  0.49347387  1
  H  H151  1  0.07929540  0.74044581  0.50254377  1
  H  H152  1  0.13965286  0.58241914  0.51086184  1
  H  H153  1  0.59612472  0.92067059  0.49050742  1
  H  H154  1  0.95010046  0.58098903  0.50726607  1
  H  H155  1  0.04763998  0.75139253  1.00425610  1
  H  H156  1  0.91899652  0.74240669  0.49962174  1
  H  H157  1  0.16752188  0.08388229  0.49367695  1
  H  H158  1  0.18451155  0.08384706  0.00023474  1
  H  H159  1  0.43811382  0.91739622  0.50715296  1
  H  H160  1  0.36192621  0.74938914  0.48638092  1
  H  H161  1  0.07855297  0.25866688  0.49822465  1
  H  H162  1  0.66510399  0.74980263  0.00085512  1
  H  H163  1  0.17208130  0.57444459  0.99949027  1
  H  H164  1  0.53874908  0.41173216  1.00635918  1
  H  H165  1  0.14510712  0.25197449  0.98949259  1
  H  H166  1  0.21316113  0.74952802  -0.00573607  1
  H  H167  1  0.44809805  0.58416883  -0.00579781  1
  H  H168  1  0.04275436  0.57772634  -0.00912655  1
  H  H169  1  0.91861368  0.41351536  1.00135173  1
  H  H170  1  0.42267360  0.08126402  0.99819926  1
  H  H171  1  0.36650078  0.24676909  0.51409298  1
  H  H172  1  0.88785377  0.58791207  0.01360398  1
  H  H173  1  0.60967636  0.41131375  0.50910680  1
  H  H174  1  0.04979669  0.92398136  0.50403460  1
  H  H175  1  0.89537562  0.91973363  0.48923555  1
  H  H176  1  0.92160736  0.41655905  0.50321781  1
  H  H177  1  0.78859991  0.24812439  0.49018218  1
  H  H178  1  0.35822506  0.42061214  1.00791013  1
  H  H179  1  0.09167754  0.91842756  0.00591601  1
  H  H180  1  0.57711807  0.24694938  0.50140270  1
  H  H181  1  0.20797553  0.91684395  0.49543159  1
  H  H182  1  0.21394134  0.75736650  0.50850125  1
  H  H183  1  0.32518692  0.57249894  0.99761287  1
  H  H184  1  0.91880987  0.25319785  0.49754482  1
  H  H185  1  0.70957304  0.41725684  -0.00327143  1
  H  H186  1  0.64576661  0.91555706  0.99333966  1
  H  H187  1  0.46223957  0.91533785  -0.00982855  1
  H  H188  1  0.30574971  0.41660662  0.50144299  1
  H  H189  1  0.93424514  0.91352644  -0.00201881  1
  H  H190  1  0.29925916  0.24747323  1.00318084  1
  H  H191  1  0.21036522  0.24447990  0.49259916  1
  Pb  Pb192  1  0.24411841  0.04841313  0.75228819  1
  Pb  Pb193  1  0.24754875  0.38021370  0.73981199  1
  Pb  Pb194  1  0.24527958  0.71474334  0.75244272  1
  Pb  Pb195  1  0.74447500  0.04793478  0.74535563  1
  Pb  Pb196  1  0.74703092  0.37951556  0.76186960  1
  Pb  Pb197  1  0.74309599  0.71400149  0.74545091  1
  Pb  Pb198  1  0.25221992  0.28749637  0.24660233  1
  Pb  Pb199  1  0.25860578  0.61673867  0.24417701  1
  Pb  Pb200  1  0.25371026  0.95306860  0.25125389  1
  Pb  Pb201  1  0.75654982  0.28494949  0.25008730  1
  Pb  Pb202  1  0.75240549  0.62177249  0.25852486  1
  Pb  Pb203  1  0.75413974  0.95453762  0.24878992  1
  Pb  Pb204  1  -0.00569976  0.21493885  0.74017424  1
  Pb  Pb205  1  -0.00454622  0.54713279  0.75008151  1
  Pb  Pb206  1  -0.00817472  0.88207782  0.74747344  1
  Pb  Pb207  1  0.49661650  0.21295610  0.76234536  1
  Pb  Pb208  1  0.49755556  0.54670927  0.75276099  1
  Pb  Pb209  1  0.49435053  0.88137230  0.75054913  1
  Pb  Pb210  1  0.00346037  0.12021366  0.24852538  1
  Pb  Pb211  1  0.00239112  0.45485889  0.24832924  1
  Pb  Pb212  1  0.00786077  0.78298333  0.25274525  1
  Pb  Pb213  1  0.50263173  0.12009334  0.24791642  1
  Pb  Pb214  1  0.50836294  0.45079817  0.24824724  1
  Pb  Pb215  1  0.50421917  0.78852173  0.24513520  1
  C  C216  1  -0.00159433  0.04680670  0.63330317  1
  C  C217  1  0.00187080  0.38009283  0.63367231  1
  C  C218  1  -0.00541273  0.71247916  0.63547305  1
  C  C219  1  0.50241835  0.04680394  0.63039893  1
  C  C220  1  0.50351091  0.37936030  0.63269414  1
  C  C221  1  0.49827806  0.71259524  0.62974305  1
  C  C222  1  -0.00012685  0.28827858  0.13170100  1
  C  C223  1  -0.00215424  0.62060698  0.13083241  1
  C  C224  1  0.00675377  0.95367922  0.13155707  1
  C  C225  1  0.50197865  0.28637386  0.13286416  1
  C  C226  1  0.49679542  0.62022875  0.13423098  1
  C  C227  1  0.50598837  0.95436457  0.13161216  1
  C  C228  1  -0.00531229  0.04771841  0.86888869  1
  C  C229  1  -0.00093140  0.37873318  0.86834985  1
  C  C230  1  -0.00296161  0.71293077  0.86900602  1
  C  C231  1  0.49916970  0.04689967  0.86586845  1
  C  C232  1  0.49999580  0.37941890  0.86712734  1
  C  C233  1  0.49647532  0.71287112  0.86983296  1
  C  C234  1  -0.00219983  0.28732716  0.36403926  1
  C  C235  1  0.00508563  0.61920548  0.36789374  1
  C  C236  1  -0.00085465  0.95635487  0.36760152  1
  C  C237  1  0.49977251  0.28647599  0.36775751  1
  C  C238  1  0.50495026  0.62043636  0.36953966  1
  C  C239  1  0.49917052  0.95484092  0.36927809  1
  C  C240  1  0.24891804  0.21058823  0.63068013  1
  C  C241  1  0.24834146  0.54694182  0.62892593  1
  C  C242  1  0.24705518  0.87984024  0.63306074  1
  C  C243  1  0.75077474  0.21219251  0.63386485  1
  C  C244  1  0.74383721  0.54587494  0.62964739  1
  C  C245  1  0.74952640  0.88019135  0.63233093  1
  C  C246  1  0.25012367  0.12030999  0.13560365  1
  C  C247  1  0.25023563  0.45212713  0.12987703  1
  C  C248  1  0.25121426  0.78743580  0.13190919  1
  C  C249  1  0.75148862  0.12065954  0.12927056  1
  C  C250  1  0.75364833  0.45539459  0.13308583  1
  C  C251  1  0.75542116  0.78742213  0.12972035  1
  C  C252  1  0.24681100  0.21202351  0.86781096  1
  C  C253  1  0.25408087  0.54435226  0.86631726  1
  C  C254  1  0.24574313  0.87992411  0.86608067  1
  C  C255  1  0.74605903  0.21259460  0.86981427  1
  C  C256  1  0.75166877  0.54758357  0.87100014  1
  C  C257  1  0.74224732  0.87909101  0.86875043  1
  C  C258  1  0.25000794  0.11973549  0.36892960  1
  C  C259  1  0.24841360  0.45533616  0.36827218  1
  C  C260  1  0.25195908  0.78584308  0.37114006  1
  C  C261  1  0.74967042  0.12039549  0.36883381  1
  C  C262  1  0.74530916  0.45489137  0.36696289  1
  C  C263  1  0.75303375  0.78695066  0.36517135  1
  C  C264  1  0.26494539  0.90647291  0.96229520  1
  C  C265  1  0.77304108  0.57693821  0.53441731  1
  C  C266  1  0.47960188  0.40564786  0.53567972  1
  C  C267  1  0.97282824  0.25760380  0.03770544  1
  C  C268  1  0.45357020  0.26032622  0.45979877  1
  C  C269  1  0.03954833  0.26521666  0.45843031  1
  C  C270  1  0.71601893  0.24465118  0.96246409  1
  C  C271  1  0.55891656  0.59332164  0.45742046  1
  C  C272  1  0.76161480  0.23714236  0.53471637  1
  C  C273  1  0.31009193  0.42899996  0.04123572  1
  C  C274  1  0.06382482  0.59564771  0.45629975  1
  C  C275  1  0.57165831  0.93062385  0.04590212  1
  C  C276  1  0.26772852  0.57974861  0.53288985  1
  C  C277  1  0.70900566  0.76016127  0.03742053  1
  C  C278  1  0.78344698  0.09191667  0.46196114  1
  C  C279  1  0.21038238  0.56923440  0.95893629  1
  C  C280  1  0.19550534  0.42424510  0.45713478  1
  C  C281  1  0.95747851  0.26367908  0.45843625  1
  C  C282  1  0.96168798  0.40626111  0.54153911  1
  C  C283  1  0.56116087  0.40296089  0.54334641  1
  C  C284  1  0.01533228  0.59067878  0.03464779  1
  C  C285  1  0.19054679  0.24189659  0.95460673  1
  C  C286  1  0.70546921  0.42515922  0.45889647  1
  C  C287  1  0.70565891  0.90749800  0.54065388  1
  C  C288  1  0.44310588  0.73667823  0.54141227  1
  C  C289  1  0.95920787  0.40401742  0.96309125  1
  C  C290  1  0.95669149  0.73476953  0.53998836  1
  C  C291  1  0.49143924  0.92728598  0.03361932  1
  C  C292  1  0.77303245  0.76133840  0.46153095  1
  C  C293  1  0.53524571  0.07820607  0.53824874  1
  C  C294  1  0.53980431  0.74171393  0.96262936  1
  C  C295  1  0.68213657  0.23357387  0.54910912  1
  C  C296  1  0.47740281  0.59371292  0.03815890  1
  C  C297  1  0.79066022  0.75933627  0.03537747  1
  C  C298  1  0.22012045  0.09413727  0.04114567  1
  C  C299  1  0.97073521  0.92473177  0.03812760  1
  C  C300  1  0.98305866  0.59286916  0.46543505  1
  C  C301  1  0.80897896  0.09464376  0.04223430  1
  C  C302  1  0.04069062  0.40436678  0.96161036  1
  C  C303  1  0.46190475  0.07205203  0.95906655  1
  C  C304  1  0.53506186  0.25871394  0.46312667  1
  C  C305  1  0.93970414  0.74359908  0.95645086  1
  C  C306  1  0.94159243  0.92858114  0.45469136  1
  C  C307  1  0.03858048  0.73398989  0.54139198  1
  C  C308  1  0.80619096  0.57420739  0.95881937  1
  C  C309  1  0.31463948  0.23808531  0.54677951  1
  C  C310  1  0.22937634  0.42631510  0.03260953  1
  C  C311  1  0.47131530  0.92757097  0.46513191  1
  N  N312  1  0.55060552  0.92796010  0.45785017  1
  N  N313  1  0.54111376  0.07302314  0.95979608  1
  N  N314  1  0.29000722  0.57269314  0.95876092  1
  N  N315  1  0.97384153  0.07405103  0.53707697  1
  N  N316  1  0.77080257  0.90670066  0.96422112  1
  N  N317  1  0.81313907  0.42620218  0.04712991  1
  N  N318  1  0.28550506  0.09297269  0.46338046  1
  N  N319  1  0.23617974  0.24245287  0.53579178  1
  N  N320  1  0.73254069  0.09042233  0.03189676  1
  N  N321  1  0.93720487  0.59495851  0.04549543  1
  N  N322  1  0.43757863  0.40295254  0.95308471  1
  N  N323  1  0.48246858  0.26162419  0.03800907  1
  N  N324  1  0.55994209  0.26374659  0.04408834  1
  N  N325  1  0.31489235  0.76180853  0.04637888  1
  N  N326  1  0.46054290  0.74195515  0.96190823  1
  N  N327  1  0.45796012  0.07702087  0.53843748  1
  N  N328  1  0.30978641  0.90343984  0.54653282  1
  N  N329  1  0.69466399  0.76109314  0.45376513  1
  N  N330  1  0.18624136  0.90480553  0.95454069  1
  N  N331  1  0.26967717  0.24387212  0.96147194  1
  N  N332  1  0.01821175  0.74373126  0.96302456  1
  N  N333  1  0.29947344  0.09454847  0.04375697  1
  N  N334  1  0.48211104  0.58911914  0.46604367  1
  N  N335  1  0.51973090  0.74110865  0.53223329  1
  N  N336  1  0.72945814  0.57737289  0.96800055  1
  N  N337  1  0.23779637  0.75766863  0.03764182  1
  N  N338  1  0.04099608  0.40715181  0.53932364  1
  N  N339  1  0.23263001  0.90694379  0.53820945  1
  N  N340  1  0.27410602  0.42439435  0.46148037  1
  N  N341  1  0.23644661  0.75170290  0.46445573  1
  N  N342  1  0.78329260  0.42549506  0.46125654  1
  N  N343  1  0.69312848  0.90504883  0.95756954  1
  N  N344  1  0.05031494  0.92528205  0.04117059  1
  N  N345  1  0.94676306  0.07421023  0.95753525  1
  N  N346  1  0.02072568  0.92532108  0.46194964  1
  N  N347  1  0.69459012  0.57447724  0.54094610  1
  N  N348  1  0.19014528  0.57482848  0.54309691  1
  N  N349  1  0.55594424  0.59505282  0.04575034  1
  N  N350  1  0.05006321  0.26014811  0.04087225  1
  N  N351  1  0.79326649  0.24427086  0.96043149  1
  N  N352  1  0.05011105  0.07236882  0.54310849  1
  N  N353  1  0.78344349  0.90812607  0.53663314  1
  N  N354  1  0.02488389  0.07587862  0.96395369  1
  N  N355  1  0.70627422  0.09293483  0.46213388  1
  N  N356  1  0.31346941  0.76432153  0.45650839  1
  N  N357  1  0.51438069  0.40642679  0.96227119  1
  N  N358  1  0.73578871  0.42450907  0.03973182  1
  N  N359  1  0.20749241  0.09325855  0.45867062  1
  N  N360  1  0.06641597  0.05610195  0.60298310  1
  N  N361  1  0.06420681  0.39103176  0.59706998  1
  N  N362  1  0.06083534  0.72040010  0.60114019  1
  N  N363  1  0.56547290  0.05993296  0.59343050  1
  N  N364  1  0.57411100  0.38692604  0.60395438  1
  N  N365  1  0.55408984  0.72573674  0.58849612  1
  N  N366  1  0.44530578  0.27633775  0.09113944  1
  N  N367  1  0.43918407  0.60855882  0.09231765  1
  N  N368  1  0.45127221  0.94242324  0.08823981  1
  N  N369  1  0.93974807  0.27448970  0.09218785  1
  N  N370  1  0.92690715  0.61398813  0.10436539  1
  N  N371  1  0.94356616  0.94143915  0.09444568  1
  N  N372  1  0.43444386  0.05641358  0.90161054  1
  N  N373  1  0.42890445  0.38850811  0.89356633  1
  N  N374  1  0.43305518  0.72356484  0.90488978  1
  N  N375  1  0.92756345  0.05673249  0.90017696  1
  N  N376  1  0.93442314  0.38806999  0.90369131  1
  N  N377  1  0.92647879  0.72502710  0.89809285  1
  N  N378  1  0.06331035  0.27951962  0.39941174  1
  N  N379  1  0.07664165  0.61115666  0.39683259  1
  N  N380  1  0.05625171  0.94600862  0.40892515  1
  N  N381  1  0.56243751  0.27542141  0.40424676  1
  N  N382  1  0.57541800  0.61170353  0.39849321  1
  N  N383  1  0.56710067  0.94507145  0.39900920  1
  N  N384  1  0.32193102  0.22038270  0.60606138  1
  N  N385  1  0.30428164  0.56237507  0.58590410  1
  N  N386  1  0.31804591  0.88776997  0.60592011  1
  N  N387  1  0.80365724  0.22351732  0.58888591  1
  N  N388  1  0.80403348  0.55922917  0.58936718  1
  N  N389  1  0.81080141  0.89055185  0.59500771  1
  N  N390  1  0.18846399  0.10962374  0.09713875  1
  N  N391  1  0.19349646  0.44029134  0.08604609  1
  N  N392  1  0.19753788  0.77547259  0.08856756  1
  N  N393  1  0.69654035  0.10723901  0.08746893  1
  N  N394  1  0.69815838  0.44472037  0.09076096  1
  N  N395  1  0.68860902  0.77774780  0.09723134  1
  N  N396  1  0.17632978  0.22374504  0.89612830  1
  N  N397  1  0.18782367  0.55388665  0.90108061  1
  N  N398  1  0.17604042  0.88845445  0.89413182  1
  N  N399  1  0.68406606  0.22562511  0.90798430  1
  N  N400  1  0.69545423  0.56033255  0.91206342  1
  N  N401  1  0.67482933  0.88857033  0.89949140  1
  N  N402  1  0.31150335  0.10922795  0.40702638  1
  N  N403  1  0.30798100  0.44527779  0.40745352  1
  N  N404  1  0.32321432  0.77615681  0.39640212  1
  N  N405  1  0.81307495  0.10855934  0.40596107  1
  N  N406  1  0.80801630  0.44452188  0.40273270  1
  N  N407  1  0.81090960  0.77662267  0.40729113  1
  N  N408  1  0.43258957  0.27691696  0.40199798  1
  N  N409  1  0.44838829  0.60669144  0.40999509  1
  N  N410  1  0.43910074  0.94352613  0.40989780  1
  N  N411  1  0.93289254  0.27737687  0.39954401  1
  N  N412  1  0.94744438  0.60802108  0.40911004  1
  N  N413  1  0.92834164  0.94567493  0.39574957  1
  N  N414  1  0.05407948  0.05979564  0.90833961  1
  N  N415  1  0.06446682  0.38928423  0.90446847  1
  N  N416  1  0.05470640  0.72286388  0.90995656  1
  N  N417  1  0.56249292  0.05726222  0.90154579  1
  N  N418  1  0.55398341  0.38935175  0.91099809  1
  N  N419  1  0.56205301  0.72410404  0.90552708  1
  N  N420  1  0.06722304  0.27959094  0.10059822  1
  N  N421  1  0.05367401  0.60653715  0.08756370  1
  N  N422  1  0.07234185  0.94437732  0.09836702  1
  N  N423  1  0.57163868  0.27787717  0.10369331  1
  N  N424  1  0.56613451  0.61151872  0.10540695  1
  N  N425  1  0.57962083  0.94687312  0.10571342  1
  N  N426  1  0.43719826  0.05716571  0.59715003  1
  N  N427  1  0.44499488  0.39094643  0.59165164  1
  N  N428  1  0.42715897  0.71989549  0.60112169  1
  N  N429  1  0.94058856  0.05815228  0.59265918  1
  N  N430  1  0.93611946  0.38990004  0.59917475  1
  N  N431  1  0.93055860  0.72168263  0.59887271  1
  N  N432  1  0.18423325  0.10932210  0.40152554  1
  N  N433  1  0.17925374  0.44284250  0.39925973  1
  N  N434  1  0.19756458  0.77483762  0.41460525  1
  N  N435  1  0.68485748  0.11110055  0.40281396  1
  N  N436  1  0.68004854  0.44264552  0.40172473  1
  N  N437  1  0.68397945  0.77689492  0.39393309  1
  N  N438  1  0.30431067  0.22213683  0.90883422  1
  N  N439  1  0.31695014  0.55400773  0.90240745  1
  N  N440  1  0.30275058  0.89137716  0.90841616  1
  N  N441  1  0.81223473  0.22396945  0.90152232  1
  N  N442  1  0.82247884  0.55637361  0.89958579  1
  N  N443  1  0.80093981  0.89066991  0.90899515  1
  N  N444  1  0.31629185  0.11041832  0.10300117  1
  N  N445  1  0.32171401  0.44484471  0.10289203  1
  N  N446  1  0.32246829  0.77839858  0.10567093  1
  N  N447  1  0.82309764  0.11250192  0.10171567  1
  N  N448  1  0.82353513  0.44383289  0.10568011  1
  N  N449  1  0.81847686  0.77568533  0.09115016  1
  N  N450  1  0.19543351  0.22155864  0.58670672  1
  N  N451  1  0.17780179  0.55436719  0.60211251  1
  N  N452  1  0.19267539  0.89086511  0.58989470  1
  N  N453  1  0.67641514  0.21887404  0.60903399  1
  N  N454  1  0.67603490  0.55486025  0.59952213  1
  N  N455  1  0.68299818  0.89068598  0.59870906  1
  Cl  Cl456  1  0.24921716  0.05328046  0.61739664  1
  Cl  Cl457  1  0.25734642  0.39201505  0.60258235  1
  Cl  Cl458  1  0.24360031  0.72527924  0.61304290  1
  Cl  Cl459  1  0.75424955  0.05318936  0.61318833  1
  Cl  Cl460  1  0.75485375  0.38522286  0.63217430  1
  Cl  Cl461  1  0.74435543  0.72042463  0.61003541  1
  Cl  Cl462  1  0.26048375  0.27456589  0.10633418  1
  Cl  Cl463  1  0.24785874  0.60659642  0.10310781  1
  Cl  Cl464  1  0.26075688  0.94162687  0.11539707  1
  Cl  Cl465  1  0.75503688  0.28173576  0.11875262  1
  Cl  Cl466  1  0.74797845  0.61893445  0.12851482  1
  Cl  Cl467  1  0.76180957  0.94713460  0.11872442  1
  Cl  Cl468  1  0.24198421  0.05539739  0.88659374  1
  Cl  Cl469  1  0.24672743  0.38304778  0.87126874  1
  Cl  Cl470  1  0.24108384  0.72493569  0.89682700  1
  Cl  Cl471  1  0.74722144  0.05184944  0.87782457  1
  Cl  Cl472  1  0.73506181  0.39469178  0.90024145  1
  Cl  Cl473  1  0.74380593  0.71980786  0.87807987  1
  Cl  Cl474  1  0.24705816  0.27762421  0.38502887  1
  Cl  Cl475  1  0.26210988  0.61142284  0.37863480  1
  Cl  Cl476  1  0.24162325  0.93841274  0.39565746  1
  Cl  Cl477  1  0.74919402  0.28028650  0.38385488  1
  Cl  Cl478  1  0.75971289  0.60873073  0.39295531  1
  Cl  Cl479  1  0.74730052  0.95147150  0.38040274  1
  Cl  Cl480  1  0.00391705  0.22647020  0.60483167  1
  Cl  Cl481  1  -0.01047775  0.55403348  0.61779076  1
  Cl  Cl482  1  0.00635757  0.89587552  0.60402841  1
  Cl  Cl483  1  0.49836552  0.21573872  0.63209972  1
  Cl  Cl484  1  0.49194948  0.55562111  0.62201890  1
  Cl  Cl485  1  0.50128142  0.88926799  0.61664867  1
  Cl  Cl486  1  0.00405628  0.11361898  0.11603979  1
  Cl  Cl487  1  0.00969232  0.44637863  0.11364256  1
  Cl  Cl488  1  0.01364959  0.77371828  0.10442970  1
  Cl  Cl489  1  0.50422820  0.11260587  0.11409296  1
  Cl  Cl490  1  0.51703959  0.43648815  0.10413877  1
  Cl  Cl491  1  0.50317719  0.77956438  0.11165541  1
  Cl  Cl492  1  -0.00503820  0.21798425  0.87255951  1
  Cl  Cl493  1  0.00633662  0.55441797  0.88566796  1
  Cl  Cl494  1  -0.01350470  0.88717991  0.88583351  1
  Cl  Cl495  1  0.48904674  0.22755947  0.89925786  1
  Cl  Cl496  1  0.50226777  0.55766872  0.88985729  1
  Cl  Cl497  1  0.48917793  0.88430788  0.88572414  1
  Cl  Cl498  1  0.00078875  0.11298185  0.37981154  1
  Cl  Cl499  1  -0.00696657  0.44648534  0.38002854  1
  Cl  Cl500  1  0.00915767  0.77468925  0.38810035  1
  Cl  Cl501  1  0.49675628  0.11295788  0.38040291  1
  Cl  Cl502  1  0.49247279  0.44347374  0.38204204  1
  Cl  Cl503  1  0.50134216  0.78800493  0.37476599  1
  Cl  Cl504  1  0.36216837  0.14551206  0.75012455  1
  Cl  Cl505  1  0.35892424  0.48030054  0.74993283  1
  Cl  Cl506  1  0.35901104  0.81305761  0.74671107  1
  Cl  Cl507  1  0.85991810  0.14642566  0.75194659  1
  Cl  Cl508  1  0.85934694  0.48009401  0.75597009  1
  Cl  Cl509  1  0.86172932  0.81187932  0.74722342  1
  Cl  Cl510  1  0.14052871  0.18721254  0.25274483  1
  Cl  Cl511  1  0.13974909  0.52087730  0.25469355  1
  Cl  Cl512  1  0.14198444  0.85170199  0.25060188  1
  Cl  Cl513  1  0.63991445  0.18759734  0.24917054  1
  Cl  Cl514  1  0.64119629  0.52049051  0.25016711  1
  Cl  Cl515  1  0.64017749  0.85496577  0.24861568  1
  Cl  Cl516  1  0.14276676  0.14582568  0.74988972  1
  Cl  Cl517  1  0.13875138  0.48007348  0.74448808  1
  Cl  Cl518  1  0.13968821  0.81188667  0.75343129  1
  Cl  Cl519  1  0.63690128  0.14549164  0.74939918  1
  Cl  Cl520  1  0.63761916  0.48101723  0.74954840  1
  Cl  Cl521  1  0.64278762  0.81231840  0.75238137  1
  Cl  Cl522  1  0.36038739  0.18516101  0.25120972  1
  Cl  Cl523  1  0.36014979  0.52068736  0.23927056  1
  Cl  Cl524  1  0.36208654  0.85146527  0.25177090  1
  Cl  Cl525  1  0.86316458  0.18747702  0.24819713  1
  Cl  Cl526  1  0.86307179  0.52090643  0.24610527  1
  Cl  Cl527  1  0.86059426  0.85283287  0.24885896  1
  Cl  Cl528  1  0.11151343  0.31262825  0.74736098  1
  Cl  Cl529  1  0.11412535  0.64407069  0.74802068  1
  Cl  Cl530  1  0.11146188  0.97804085  0.75274629  1
  Cl  Cl531  1  0.60950466  0.31285949  0.75014105  1
  Cl  Cl532  1  0.60622244  0.64870747  0.74799267  1
  Cl  Cl533  1  0.61179900  0.97795631  0.75374620  1
  Cl  Cl534  1  0.39119886  0.01829323  0.24959797  1
  Cl  Cl535  1  0.38912309  0.35447088  0.24893332  1
  Cl  Cl536  1  0.39073018  0.68838117  0.25000687  1
  Cl  Cl537  1  0.89243110  0.01980132  0.25077563  1
  Cl  Cl538  1  0.89162759  0.35393430  0.24810837  1
  Cl  Cl539  1  0.88840453  0.68788357  0.24499449  1
  Cl  Cl540  1  0.38709132  0.31358981  0.75345349  1
  Cl  Cl541  1  0.38302035  0.64622667  0.75398433  1
  Cl  Cl542  1  0.39156619  0.97750582  0.74579420  1
  Cl  Cl543  1  0.88940174  0.31360968  0.75279833  1
  Cl  Cl544  1  0.89372689  0.64667622  0.75422221  1
  Cl  Cl545  1  0.89210924  0.97824293  0.75114737  1
  Cl  Cl546  1  0.11306175  0.01810411  0.24894075  1
  Cl  Cl547  1  0.11424641  0.35370228  0.24877885  1
  Cl  Cl548  1  0.10838795  0.68564362  0.24926052  1
  Cl  Cl549  1  0.61370582  0.01905780  0.24869629  1
  Cl  Cl550  1  0.60929953  0.35535917  0.24742635  1
  Cl  Cl551  1  0.61228796  0.68658492  0.25198400  1
