# generated using pymatgen
data_H8PbC4(N3Cl2)2
_symmetry_space_group_name_H-M   'P 1'
_cell_length_a   16.63284112
_cell_length_b   22.52224368
_cell_length_c   21.59562134
_cell_angle_alpha   89.99751596
_cell_angle_beta   90.00039732
_cell_angle_gamma   90.01073780
_symmetry_Int_Tables_number   1
_chemical_formula_structural   H8PbC4(N3Cl2)2
_chemical_formula_sum   'H192 Pb24 C96 N144 Cl96'
_cell_volume   8089.91182196
_cell_formula_units_Z   24
loop_
 _symmetry_equiv_pos_site_id
 _symmetry_equiv_pos_as_xyz
  1  'x, y, z'
loop_
 _atom_site_type_symbol
 _atom_site_label
 _atom_site_symmetry_multiplicity
 _atom_site_fract_x
 _atom_site_fract_y
 _atom_site_fract_z
 _atom_site_occupancy
  H  H0  1  0.01441049  0.03060679  0.67667384  1
  H  H1  1  0.01238758  0.35991840  0.67433112  1
  H  H2  1  0.00940694  0.69872366  0.68151832  1
  H  H3  1  0.49004106  0.02661894  0.67999569  1
  H  H4  1  0.50869205  0.35685187  0.67737927  1
  H  H5  1  0.49875003  0.69605375  0.67232951  1
  H  H6  1  0.01189968  0.30653114  0.16992368  1
  H  H7  1  0.00067929  0.63515923  0.18332213  1
  H  H8  1  -0.00335410  0.97074637  0.17934129  1
  H  H9  1  0.49458265  0.30392980  0.18577685  1
  H  H10  1  0.49283415  0.63603478  0.17658176  1
  H  H11  1  0.49820547  0.97265345  0.17762430  1
  H  H12  1  0.00159944  0.02348826  0.82684931  1
  H  H13  1  -0.00130954  0.36070333  0.81971195  1
  H  H14  1  -0.01884641  0.68868587  0.82646680  1
  H  H15  1  0.49837647  0.03171925  0.82319292  1
  H  H16  1  0.49133224  0.36541851  0.82085439  1
  H  H17  1  0.51818517  0.69753968  0.82102564  1
  H  H18  1  -0.01704677  0.30094705  0.32351368  1
  H  H19  1  0.00659609  0.64396517  0.32141507  1
  H  H20  1  -0.01903621  0.96289347  0.31550071  1
  H  H21  1  0.51101685  0.30708339  0.32632895  1
  H  H22  1  0.49118803  0.64098394  0.32487406  1
  H  H23  1  0.48243086  0.96307248  0.34639413  1
  H  H24  1  0.24854932  0.19749609  0.67384292  1
  H  H25  1  0.23697912  0.52720217  0.67363934  1
  H  H26  1  0.26862853  0.86617905  0.65671983  1
  H  H27  1  0.75063245  0.19539660  0.67654652  1
  H  H28  1  0.74776287  0.52890750  0.68222722  1
  H  H29  1  0.77350140  0.86465982  0.68524367  1
  H  H30  1  0.24303439  0.13501762  0.17714633  1
  H  H31  1  0.25534745  0.47263830  0.17304353  1
  H  H32  1  0.25092970  0.80585929  0.17230372  1
  H  H33  1  0.74632284  0.13562489  0.17717182  1
  H  H34  1  0.74586675  0.47170832  0.17955843  1
  H  H35  1  0.75513829  0.81167823  0.17979396  1
  H  H36  1  0.26838765  0.19117868  0.82481937  1
  H  H37  1  0.26069474  0.52563693  0.82555340  1
  H  H38  1  0.25646370  0.86138168  0.81704089  1
  H  H39  1  0.73299685  0.19669067  0.82579222  1
  H  H40  1  0.73285313  0.53140667  0.82344660  1
  H  H41  1  0.75640640  0.86286930  0.82341921  1
  H  H42  1  0.26324314  0.14239494  0.31903628  1
  H  H43  1  0.24796009  0.46699880  0.32280030  1
  H  H44  1  0.25535580  0.80392832  0.32365723  1
  H  H45  1  0.73833883  0.13965407  0.32311072  1
  H  H46  1  0.75364523  0.47166867  0.32571757  1
  H  H47  1  0.74618723  0.80400256  0.31976841  1
  H  H48  1  0.11807561  0.06214175  0.59320398  1
  H  H49  1  0.11827147  0.39300019  0.59319753  1
  H  H50  1  0.12236906  0.72459524  0.59997814  1
  H  H51  1  0.62031223  0.05707889  0.61993828  1
  H  H52  1  0.62220111  0.38796491  0.59892038  1
  H  H53  1  0.62400496  0.71958822  0.60655530  1
  H  H54  1  0.37255794  0.28221594  0.11369994  1
  H  H55  1  0.37363281  0.60696281  0.10414680  1
  H  H56  1  0.38987272  0.94460421  0.09460633  1
  H  H57  1  0.87462058  0.28254476  0.11436475  1
  H  H58  1  0.87403435  0.61235172  0.11263568  1
  H  H59  1  0.88412880  0.94128827  0.10245710  1
  H  H60  1  0.39130105  0.05582162  0.90445811  1
  H  H61  1  0.37950579  0.39419843  0.89966325  1
  H  H62  1  0.37419460  0.71254452  0.87130778  1
  H  H63  1  0.89285534  0.05636136  0.90785179  1
  H  H64  1  0.88272403  0.39006185  0.89724270  1
  H  H65  1  0.88384623  0.72608465  0.91196378  1
  H  H66  1  0.11894547  0.28535557  0.37955100  1
  H  H67  1  0.11554582  0.61007155  0.40178112  1
  H  H68  1  0.11385972  0.94283762  0.37808946  1
  H  H69  1  0.61780104  0.27289728  0.40647512  1
  H  H70  1  0.61534618  0.61383932  0.39493308  1
  H  H71  1  0.58500336  0.92811818  0.42910592  1
  H  H72  1  0.37784567  0.22254995  0.60946738  1
  H  H73  1  0.38197014  0.55026664  0.62955149  1
  H  H74  1  0.40634377  0.88433166  0.60376454  1
  H  H75  1  0.87543980  0.22328172  0.60703279  1
  H  H76  1  0.87791108  0.55130049  0.61587475  1
  H  H77  1  0.88706134  0.88468548  0.60536777  1
  H  H78  1  0.11314314  0.11500421  0.11172800  1
  H  H79  1  0.12153829  0.44680568  0.11412024  1
  H  H80  1  0.12625321  0.77926028  0.10344715  1
  H  H81  1  0.61002723  0.11431656  0.12193388  1
  H  H82  1  0.62092075  0.45064617  0.11045268  1
  H  H83  1  0.62531681  0.77969346  0.12030983  1
  H  H84  1  0.12752830  0.21456241  0.87684760  1
  H  H85  1  0.13057923  0.55305688  0.88820213  1
  H  H86  1  0.12184923  0.88561643  0.87822989  1
  H  H87  1  0.63571573  0.22887966  0.91340591  1
  H  H88  1  0.63060761  0.55852918  0.90930515  1
  H  H89  1  0.61985450  0.88612780  0.88067311  1
  H  H90  1  0.37768889  0.11244276  0.39549350  1
  H  H91  1  0.37443342  0.44507446  0.38893205  1
  H  H92  1  0.37567207  0.77635434  0.39636206  1
  H  H93  1  0.87796579  0.11828991  0.37708851  1
  H  H94  1  0.88055616  0.44324427  0.39318519  1
  H  H95  1  0.87485730  0.78043443  0.38576480  1
  H  H96  1  0.37204866  0.28468052  0.38043859  1
  H  H97  1  0.36725053  0.61304311  0.39557468  1
  H  H98  1  0.34182631  0.94356236  0.39583633  1
  H  H99  1  0.87258213  0.27613955  0.40451274  1
  H  H100  1  0.86946009  0.61845030  0.37454983  1
  H  H101  1  0.86624930  0.94874049  0.39657885  1
  H  H102  1  0.13844650  0.05141294  0.88204248  1
  H  H103  1  0.13039780  0.38534839  0.88400062  1
  H  H104  1  0.12537838  0.70953861  0.87231907  1
  H  H105  1  0.63711983  0.05013983  0.87590007  1
  H  H106  1  0.62673440  0.38604738  0.88147467  1
  H  H107  1  0.61677572  0.72411041  0.90951026  1
  H  H108  1  0.12045554  0.27281729  0.09075295  1
  H  H109  1  0.12249868  0.60936053  0.10929414  1
  H  H110  1  0.13085520  0.95492809  0.12088120  1
  H  H111  1  0.62189492  0.28235698  0.11915516  1
  H  H112  1  0.62202691  0.61289601  0.10949243  1
  H  H113  1  0.63612398  0.94975308  0.12272316  1
  H  H114  1  0.37243414  0.05525464  0.60410917  1
  H  H115  1  0.37553928  0.38512036  0.61810379  1
  H  H116  1  0.37543178  0.72064823  0.60400327  1
  H  H117  1  0.87331421  0.05135529  0.62396699  1
  H  H118  1  0.87301278  0.37990974  0.61958708  1
  H  H119  1  0.87501337  0.71970912  0.61910916  1
  H  H120  1  0.12940685  0.11616145  0.37861863  1
  H  H121  1  0.12554774  0.44360312  0.39452088  1
  H  H122  1  0.12682428  0.77911610  0.38971731  1
  H  H123  1  0.63221143  0.11017783  0.40549832  1
  H  H124  1  0.63215566  0.44280199  0.39730107  1
  H  H125  1  0.62611516  0.77867489  0.39480892  1
  H  H126  1  0.37140954  0.22587945  0.90907632  1
  H  H127  1  0.37937831  0.55475160  0.89871079  1
  H  H128  1  0.36894866  0.89062690  0.89784041  1
  H  H129  1  0.87736798  0.21528414  0.87157743  1
  H  H130  1  0.87374770  0.54815162  0.87114654  1
  H  H131  1  0.86703726  0.89331211  0.90126107  1
  H  H132  1  0.36176358  0.10957497  0.10562962  1
  H  H133  1  0.36910445  0.44311422  0.09698100  1
  H  H134  1  0.37368843  0.77742540  0.10123107  1
  H  H135  1  0.85762235  0.10852315  0.09810906  1
  H  H136  1  0.87037181  0.44709067  0.11113991  1
  H  H137  1  0.87354253  0.78014284  0.10553880  1
  H  H138  1  0.12904644  0.22668259  0.60176624  1
  H  H139  1  0.14218564  0.55924120  0.58352886  1
  H  H140  1  0.16084608  0.89431805  0.57548103  1
  H  H141  1  0.62662673  0.22438951  0.60867269  1
  H  H142  1  0.62969406  0.55670919  0.60807536  1
  H  H143  1  0.63994353  0.88178554  0.62602973  1
  H  H144  1  0.83295785  0.74840154  0.49518799  1
  H  H145  1  0.66364946  0.42191188  -0.00026993  1
  H  H146  1  0.43390092  0.07434978  0.49914226  1
  H  H147  1  0.15450276  0.41613783  0.00662402  1
  H  H148  1  0.53500722  0.75021719  1.00995859  1
  H  H149  1  0.66649142  0.90267069  0.51009316  1
  H  H150  1  0.66249536  0.73658302  0.01299602  1
  H  H151  1  0.31506663  0.08587412  0.50363098  1
  H  H152  1  0.33405926  0.41475322  0.50118990  1
  H  H153  1  0.71935453  0.25116740  1.01094351  1
  H  H154  1  0.50971857  0.90591608  0.53023903  1
  H  H155  1  0.82546131  0.89933430  0.49467629  1
  H  H156  1  0.83495442  0.41365069  0.49696671  1
  H  H157  1  0.41708869  0.58690529  0.50006411  1
  H  H158  1  0.96678911  0.08472700  1.00773089  1
  H  H159  1  0.64441771  0.91616616  0.98978966  1
  H  H160  1  0.81303986  0.75519865  0.00179915  1
  H  H161  1  0.17170817  0.58408626  0.99482136  1
  H  H162  1  0.97006302  0.74499558  1.00764175  1
  H  H163  1  0.04560906  0.58405007  0.50203383  1
  H  H164  1  0.58134559  0.25803351  0.00576408  1
  H  H165  1  0.62686634  0.08252055  0.00216675  1
  H  H166  1  0.68673533  0.58797256  0.50162595  1
  H  H167  1  0.29021368  0.25145134  1.00689451  1
  H  H168  1  0.89896413  0.25192785  0.00437168  1
  H  H169  1  0.42098946  0.25854717  0.00241045  1
  H  H170  1  0.04125070  0.09368682  0.49170521  1
  H  H171  1  0.46135512  0.08166001  1.01191520  1
  H  H172  1  0.23032375  0.58520237  0.48944970  1
  H  H173  1  0.22600292  0.91924229  0.46871227  1
  H  H174  1  0.70365825  0.08251731  0.51009035  1
  H  H175  1  0.11339362  0.75365551  0.97524655  1
  H  H176  1  0.82666349  0.41986242  -0.00011981  1
  H  H177  1  0.89166576  0.58285877  0.48580540  1
  H  H178  1  0.93037688  0.93704887  0.50707997  1
  H  H179  1  0.85581548  0.09217437  0.48719588  1
  H  H180  1  0.58350572  0.09662910  0.51094014  1
  H  H181  1  0.33770507  0.25316800  0.50343345  1
  H  H182  1  0.07501104  0.90478918  0.48268103  1
  H  H183  1  0.16441463  0.09349056  0.48812615  1
  H  H184  1  0.10599143  0.92210571  1.00759772  1
  H  H185  1  0.80084725  0.92559544  1.00694911  1
  H  H186  1  0.55423479  0.41655813  0.49840953  1
  H  H187  1  0.79322998  0.07783640  -0.00765871  1
  H  H188  1  0.86293761  0.57910830  -0.01325048  1
  H  H189  1  0.32252095  0.74868752  -0.00222325  1
  H  H190  1  0.09788647  0.25808639  0.49535647  1
  H  H191  1  0.30868949  0.08032794  -0.00567177  1
  Pb  Pb192  1  0.25617853  0.05055237  0.74410814  1
  Pb  Pb193  1  0.25353470  0.38271261  0.74986664  1
  Pb  Pb194  1  0.25089170  0.71508744  0.74469861  1
  Pb  Pb195  1  0.75491233  0.04797825  0.75195796  1
  Pb  Pb196  1  0.75416054  0.38165683  0.75071535  1
  Pb  Pb197  1  0.75639860  0.71621705  0.76163855  1
  Pb  Pb198  1  0.24712924  0.28624724  0.24346158  1
  Pb  Pb199  1  0.24286421  0.61459493  0.24908458  1
  Pb  Pb200  1  0.25286292  0.95314730  0.23811387  1
  Pb  Pb201  1  0.74767524  0.28368555  0.25216828  1
  Pb  Pb202  1  0.74614613  0.61922731  0.25030452  1
  Pb  Pb203  1  0.74281394  0.94946795  0.26037473  1
  Pb  Pb204  1  0.00404842  0.21467143  0.74255745  1
  Pb  Pb205  1  0.00617433  0.54768895  0.73911592  1
  Pb  Pb206  1  0.00778312  0.88329610  0.73933397  1
  Pb  Pb207  1  0.50485025  0.21658238  0.76092084  1
  Pb  Pb208  1  0.50701917  0.55145784  0.75671139  1
  Pb  Pb209  1  0.50099298  0.88014137  0.75738936  1
  Pb  Pb210  1  -0.00266978  0.11743193  0.24368752  1
  Pb  Pb211  1  -0.00532328  0.45005317  0.25203910  1
  Pb  Pb212  1  -0.00015764  0.78659227  0.24444965  1
  Pb  Pb213  1  0.49706018  0.11712024  0.26029124  1
  Pb  Pb214  1  0.49973746  0.45202501  0.25340966  1
  Pb  Pb215  1  0.49351573  0.78311472  0.24904745  1
  C  C216  1  0.00139788  0.04685672  0.63035215  1
  C  C217  1  0.00077895  0.37714090  0.62851964  1
  C  C218  1  0.00239697  0.71366371  0.63400835  1
  C  C219  1  0.49369653  0.04424632  0.63319202  1
  C  C220  1  0.50252063  0.37544439  0.63128978  1
  C  C221  1  0.49944332  0.71210123  0.62480846  1
  C  C222  1  0.00169681  0.28881947  0.12395980  1
  C  C223  1  -0.00088024  0.61966616  0.13573680  1
  C  C224  1  0.00486745  0.95570280  0.13216560  1
  C  C225  1  0.49643255  0.28990438  0.13767822  1
  C  C226  1  0.49646564  0.61927260  0.12974548  1
  C  C227  1  0.50802866  0.95616484  0.13118400  1
  C  C228  1  0.01058751  0.04205852  0.87270228  1
  C  C229  1  0.00388443  0.37749538  0.86667606  1
  C  C230  1  -0.00282282  0.70797665  0.87098051  1
  C  C231  1  0.50932628  0.04568213  0.87058321  1
  C  C232  1  0.49961370  0.38130603  0.86761070  1
  C  C233  1  0.50274493  0.71188280  0.86753707  1
  C  C234  1  -0.00769839  0.28763696  0.37119278  1
  C  C235  1  -0.00265306  0.62583111  0.36751178  1
  C  C236  1  -0.01265104  0.94975657  0.36373078  1
  C  C237  1  0.49984285  0.28915997  0.37188664  1
  C  C238  1  0.49073456  0.62391169  0.37183225  1
  C  C239  1  0.47024648  0.94624844  0.39276527  1
  C  C240  1  0.25236639  0.21467948  0.62703697  1
  C  C241  1  0.25360429  0.54420047  0.62840307  1
  C  C242  1  0.27893120  0.88122576  0.60943593  1
  C  C243  1  0.75119597  0.21355177  0.63023334  1
  C  C244  1  0.75218013  0.54494603  0.63494881  1
  C  C245  1  0.76665596  0.87640427  0.63672567  1
  C  C246  1  0.23962286  0.12039840  0.12943235  1
  C  C247  1  0.24819621  0.45489601  0.12674117  1
  C  C248  1  0.25045165  0.78851241  0.12543514  1
  C  C249  1  0.73775349  0.11992024  0.13000958  1
  C  C250  1  0.74580323  0.45652406  0.13177665  1
  C  C251  1  0.75181555  0.79232627  0.13370254  1
  C  C252  1  0.25629474  0.20933922  0.87042770  1
  C  C253  1  0.25646407  0.54314981  0.87213055  1
  C  C254  1  0.24920730  0.87772122  0.86399614  1
  C  C255  1  0.74833608  0.21266657  0.87175544  1
  C  C256  1  0.74681461  0.54639922  0.86988560  1
  C  C257  1  0.74696130  0.87951955  0.87018491  1
  C  C258  1  0.25605570  0.12542300  0.36584667  1
  C  C259  1  0.24994338  0.45201155  0.37040582  1
  C  C260  1  0.25236685  0.78652648  0.37027229  1
  C  C261  1  0.75029921  0.12396764  0.36985926  1
  C  C262  1  0.75585750  0.45309810  0.37202017  1
  C  C263  1  0.74903486  0.78797649  0.36711589  1
  C  C264  1  0.28472349  0.75366625  0.46212143  1
  C  C265  1  0.27222155  0.09284001  0.03407272  1
  C  C266  1  0.54101831  0.73964106  0.53379506  1
  C  C267  1  0.49084332  0.07153186  0.96821808  1
  C  C268  1  0.46461095  0.58684839  0.03756077  1
  C  C269  1  0.51731814  0.25370803  0.46541029  1
  C  C270  1  0.71179632  0.89524925  0.54545271  1
  C  C271  1  0.77064300  0.91200626  0.96453168  1
  C  C272  1  0.29286175  0.42508742  0.46371114  1
  C  C273  1  0.19060282  0.09524997  0.03788664  1
  C  C274  1  0.51043995  0.73921229  0.96455000  1
  C  C275  1  0.96863519  0.26198542  0.46816109  1
  C  C276  1  0.46078420  0.74011585  0.53315370  1
  C  C277  1  0.29143407  0.57751004  0.96475001  1
  C  C278  1  0.21649907  0.24800180  0.53405642  1
  C  C279  1  0.25782638  0.90852816  0.51139803  1
  C  C280  1  0.27710932  0.42116251  0.03257847  1
  C  C281  1  0.97815312  0.92546588  0.03701747  1
  C  C282  1  0.04966990  0.26518065  0.46112719  1
  C  C283  1  0.45896358  0.26689720  0.04237369  1
  C  C284  1  0.02443312  0.25326881  0.02951066  1
  C  C285  1  0.76091279  0.09052045  0.03410542  1
  C  C286  1  0.81238435  0.57141139  0.95564050  1
  C  C287  1  0.67950214  0.09357222  0.04211116  1
  C  C288  1  0.71392644  0.24779992  0.54013504  1
  C  C289  1  0.95928506  0.93431005  0.46203381  1
  C  C290  1  0.81900256  0.24010478  0.95381301  1
  C  C291  1  0.79315871  0.89504450  0.53811300  1
  C  C292  1  0.70428033  0.43136164  0.03797216  1
  C  C293  1  0.79144593  0.75939806  0.45786427  1
  C  C294  1  0.47635438  0.41326675  0.96176677  1
  C  C295  1  0.56370084  0.92920636  0.04409487  1
  C  C296  1  0.57158315  0.07006196  0.95763431  1
  C  C297  1  0.70317146  0.75440721  0.04776273  1
  C  C298  1  0.78644631  0.43008832  0.03810399  1
  C  C299  1  0.54095722  0.26699805  0.04416442  1
  C  C300  1  0.72237372  0.57473158  0.54162591  1
  C  C301  1  0.73124137  0.09450241  0.46611021  1
  C  C302  1  0.40493793  0.91528855  0.47639326  1
  C  C303  1  0.33995316  0.90405253  0.52028703  1
  C  C304  1  0.54287536  0.07892984  0.54587173  1
  C  C305  1  0.01475338  0.07915154  0.53540404  1
  C  C306  1  0.73237654  0.57523318  0.96688478  1
  C  C307  1  0.93819432  0.59290750  0.45189568  1
  C  C308  1  0.05923634  0.93024358  0.04199584  1
  C  C309  1  0.21122882  0.42476479  0.46405642  1
  C  C310  1  0.01742735  0.41204712  0.53458923  1
  C  C311  1  0.28461174  0.09458675  0.46002078  1
  N  N312  1  0.71706153  0.42185116  0.46427262  1
  N  N313  1  0.45484637  0.59470060  0.46255714  1
  N  N314  1  0.71212222  0.75872848  0.46125819  1
  N  N315  1  0.55339049  0.41031931  0.95707096  1
  N  N316  1  0.20661468  0.76028954  0.03351869  1
  N  N317  1  0.80937115  0.09750273  0.45538822  1
  N  N318  1  0.03805394  0.92907304  0.45434515  1
  N  N319  1  0.78255671  0.75648217  0.04312557  1
  N  N320  1  0.20737477  0.75480539  0.46146656  1
  N  N321  1  0.27314240  0.90990411  0.95846665  1
  N  N322  1  0.94668102  0.25876412  0.03759218  1
  N  N323  1  0.69184320  0.90892911  0.95630470  1
  N  N324  1  0.01700579  0.58992745  0.45990832  1
  N  N325  1  0.07034120  0.07420957  0.95755924  1
  N  N326  1  0.44049408  0.25807891  0.45830747  1
  N  N327  1  0.79112879  0.24718467  0.53827440  1
  N  N328  1  0.43323993  0.73673832  0.95155497  1
  N  N329  1  0.52532744  0.41014597  0.54008517  1
  N  N330  1  0.74205064  0.24428966  0.96695168  1
  N  N331  1  0.80153494  0.57246571  0.54368998  1
  N  N332  1  0.44756225  0.40869251  0.54506747  1
  N  N333  1  0.53294000  0.59468279  0.46382376  1
  N  N334  1  0.19120465  0.24067650  0.95296822  1
  N  N335  1  0.95837354  0.59367560  0.04274313  1
  N  N336  1  0.54173855  0.58906158  0.03791711  1
  N  N337  1  0.03486838  0.59270600  0.04155625  1
  N  N338  1  0.19846135  0.42365310  0.03945301  1
  N  N339  1  0.98872169  0.74895786  0.96193020  1
  N  N340  1  0.28509193  0.75789707  0.03473021  1
  N  N341  1  0.21251348  0.57548713  0.96069776  1
  N  N342  1  0.97586764  0.40889176  0.96082295  1
  N  N343  1  0.94079203  0.40747115  0.54195077  1
  N  N344  1  0.29546330  0.24551201  0.53747358  1
  N  N345  1  0.48453446  0.90903532  0.48593919  1
  N  N346  1  0.46356223  0.07621468  0.54070313  1
  N  N347  1  0.06526414  0.73558436  0.95127230  1
  N  N348  1  0.95089735  0.74021680  0.54413476  1
  N  N349  1  0.79537896  0.42127209  0.46088255  1
  N  N350  1  0.32542250  0.57434602  0.54887481  1
  N  N351  1  0.26792448  0.24413505  0.96289201  1
  N  N352  1  0.24981425  0.57762313  0.53491359  1
  N  N353  1  0.05213884  0.40670542  0.95652494  1
  N  N354  1  0.93692734  0.07506384  0.54547279  1
  N  N355  1  0.48714268  0.92670212  0.03409270  1
  N  N356  1  0.19747043  0.90801395  0.95210619  1
  N  N357  1  0.02692292  0.74164842  0.53807833  1
  N  N358  1  0.99293554  0.07641604  0.96482362  1
  N  N359  1  0.20546870  0.09480762  0.45300913  1
  N  N360  1  0.05589853  0.06176057  0.58710861  1
  N  N361  1  0.05647762  0.39403477  0.58639829  1
  N  N362  1  0.06018383  0.72550154  0.59360507  1
  N  N363  1  0.56162068  0.06004829  0.60332970  1
  N  N364  1  0.56029479  0.38752991  0.59121044  1
  N  N365  1  0.56548781  0.72305602  0.58979080  1
  N  N366  1  0.43268512  0.28089477  0.10093002  1
  N  N367  1  0.43396787  0.60510015  0.09268222  1
  N  N368  1  0.45251855  0.94388476  0.08947529  1
  N  N369  1  0.93202483  0.28160775  0.09584422  1
  N  N370  1  0.93482905  0.60997312  0.10095970  1
  N  N371  1  0.94548337  0.94082973  0.09139552  1
  N  N372  1  0.45299925  0.05611374  0.91314884  1
  N  N373  1  0.44104895  0.39561658  0.90824508  1
  N  N374  1  0.43028768  0.71984957  0.89108711  1
  N  N375  1  0.95510039  0.05470524  0.91459441  1
  N  N376  1  0.94467064  0.39120398  0.90518941  1
  N  N377  1  0.94636005  0.72203229  0.91594415  1
  N  N378  1  0.06275784  0.28097956  0.39964981  1
  N  N379  1  0.05347566  0.61341910  0.40897594  1
  N  N380  1  0.05453634  0.93500622  0.39253385  1
  N  N381  1  0.55591766  0.27214805  0.41358595  1
  N  N382  1  0.55459784  0.61207507  0.40687130  1
  N  N383  1  0.52415015  0.93357403  0.43603348  1
  N  N384  1  0.31822882  0.22403102  0.59447312  1
  N  N385  1  0.32715437  0.55551145  0.60769570  1
  N  N386  1  0.35047763  0.88679036  0.58209833  1
  N  N387  1  0.81475131  0.22573722  0.59580672  1
  N  N388  1  0.81857546  0.55398967  0.60249173  1
  N  N389  1  0.82630271  0.88358783  0.59538963  1
  N  N390  1  0.17160193  0.11158441  0.09578442  1
  N  N391  1  0.18006926  0.44511585  0.09720523  1
  N  N392  1  0.18611225  0.77730301  0.09101802  1
  N  N393  1  0.66660967  0.11157064  0.10174688  1
  N  N394  1  0.68052107  0.44755909  0.09640621  1
  N  N395  1  0.68387938  0.77552986  0.10425637  1
  N  N396  1  0.18458031  0.22069844  0.89499118  1
  N  N397  1  0.18999875  0.55317788  0.90396718  1
  N  N398  1  0.18089389  0.88771534  0.89388174  1
  N  N399  1  0.69762205  0.22452090  0.91710662  1
  N  N400  1  0.69279716  0.56008677  0.91537602  1
  N  N401  1  0.67766047  0.88759149  0.89873570  1
  N  N402  1  0.31645319  0.11205263  0.40542960  1
  N  N403  1  0.31571100  0.44207531  0.40425851  1
  N  N404  1  0.31516396  0.77277416  0.40730255  1
  N  N405  1  0.82100102  0.11716447  0.39671345  1
  N  N406  1  0.82016441  0.44121452  0.40567856  1
  N  N407  1  0.81553048  0.77709878  0.40028788  1
  N  N408  1  0.42969194  0.28057338  0.39877045  1
  N  N409  1  0.42758018  0.61355947  0.40742666  1
  N  N410  1  0.39728827  0.93608344  0.41715608  1
  N  N411  1  0.93404149  0.27529705  0.41389215  1
  N  N412  1  0.92588268  0.61345658  0.39395589  1
  N  N413  1  0.92762122  0.94765653  0.40618456  1
  N  N414  1  0.08078488  0.05459171  0.89952278  1
  N  N415  1  0.07084487  0.38678952  0.89836256  1
  N  N416  1  0.07018719  0.72004576  0.89163743  1
  N  N417  1  0.58184445  0.05432569  0.89722352  1
  N  N418  1  0.56809401  0.39027320  0.89709178  1
  N  N419  1  0.55473235  0.72433361  0.91335525  1
  N  N420  1  0.05891128  0.27161487  0.08268705  1
  N  N421  1  0.06134859  0.60898239  0.09904394  1
  N  N422  1  0.07436322  0.94890206  0.10234991  1
  N  N423  1  0.56285335  0.28118185  0.10362369  1
  N  N424  1  0.56189901  0.60954749  0.09666377  1
  N  N425  1  0.57925094  0.94639877  0.10354089  1
  N  N426  1  0.43341859  0.05131116  0.59368952  1
  N  N427  1  0.43413665  0.38922538  0.60273512  1
  N  N428  1  0.43464537  0.72386656  0.58890833  1
  N  N429  1  0.93013860  0.05494248  0.60467647  1
  N  N430  1  0.93044352  0.38525202  0.60173022  1
  N  N431  1  0.93431671  0.72268900  0.60357948  1
  N  N432  1  0.18798422  0.11684688  0.39599521  1
  N  N433  1  0.18573538  0.44083710  0.40770500  1
  N  N434  1  0.18695088  0.77547153  0.40295830  1
  N  N435  1  0.69408283  0.11021470  0.41279021  1
  N  N436  1  0.69319403  0.44046798  0.40811143  1
  N  N437  1  0.68766504  0.77648478  0.40437212  1
  N  N438  1  0.30937407  0.22288045  0.91393754  1
  N  N439  1  0.31874713  0.55781034  0.90994687  1
  N  N440  1  0.30683114  0.89119219  0.90400715  1
  N  N441  1  0.82311868  0.22187825  0.89428530  1
  N  N442  1  0.81976618  0.55371757  0.89413552  1
  N  N443  1  0.80553920  0.89393714  0.91105529  1
  N  N444  1  0.30161499  0.10908823  0.09208539  1
  N  N445  1  0.30808602  0.44015628  0.08666332  1
  N  N446  1  0.31299519  0.77688035  0.08968326  1
  N  N447  1  0.79589788  0.10705526  0.08947593  1
  N  N448  1  0.81075539  0.44551056  0.09685785  1
  N  N449  1  0.81226339  0.78322533  0.09498931  1
  N  N450  1  0.18966402  0.22926035  0.58963223  1
  N  N451  1  0.20481542  0.55638229  0.58172441  1
  N  N452  1  0.22240642  0.89434776  0.56713706  1
  N  N453  1  0.68644246  0.22745723  0.59542469  1
  N  N454  1  0.69084111  0.55800515  0.59712420  1
  N  N455  1  0.69700483  0.88359987  0.60671033  1
  Cl  Cl456  1  0.24475502  0.06352133  0.60291143  1
  Cl  Cl457  1  0.24567888  0.38744187  0.61626932  1
  Cl  Cl458  1  0.24613228  0.72132277  0.61324225  1
  Cl  Cl459  1  0.74327076  0.06046155  0.61811664  1
  Cl  Cl460  1  0.74419750  0.38802031  0.61741825  1
  Cl  Cl461  1  0.75174199  0.72025247  0.62995742  1
  Cl  Cl462  1  0.24756669  0.27603913  0.10448567  1
  Cl  Cl463  1  0.24613986  0.60681622  0.11346559  1
  Cl  Cl464  1  0.26709958  0.94763159  0.11165807  1
  Cl  Cl465  1  0.74685450  0.27135709  0.11129287  1
  Cl  Cl466  1  0.74935727  0.61361095  0.11689808  1
  Cl  Cl467  1  0.76292632  0.94040955  0.12033579  1
  Cl  Cl468  1  0.26766514  0.05777984  0.87738641  1
  Cl  Cl469  1  0.25513042  0.39250186  0.88680259  1
  Cl  Cl470  1  0.24900092  0.71222456  0.88066185  1
  Cl  Cl471  1  0.77340977  0.05507572  0.88634608  1
  Cl  Cl472  1  0.75865139  0.38691203  0.88596104  1
  Cl  Cl473  1  0.75903328  0.72876700  0.90441733  1
  Cl  Cl474  1  0.24753705  0.27788035  0.37529024  1
  Cl  Cl475  1  0.23869044  0.60441042  0.39667629  1
  Cl  Cl476  1  0.22968332  0.95713376  0.37313005  1
  Cl  Cl477  1  0.74388433  0.27560482  0.38406097  1
  Cl  Cl478  1  0.73836166  0.61146541  0.38443467  1
  Cl  Cl479  1  0.73526758  0.94232518  0.39379822  1
  Cl  Cl480  1  0.00510536  0.22458407  0.60803233  1
  Cl  Cl481  1  0.02048822  0.55999020  0.59822921  1
  Cl  Cl482  1  0.02683364  0.89462905  0.60031176  1
  Cl  Cl483  1  0.50149647  0.22125946  0.62620595  1
  Cl  Cl484  1  0.50777751  0.55483879  0.62223368  1
  Cl  Cl485  1  0.52111703  0.89398576  0.62216891  1
  Cl  Cl486  1  -0.01818582  0.10953450  0.10395702  1
  Cl  Cl487  1  -0.00212684  0.44322786  0.12152879  1
  Cl  Cl488  1  -0.00353409  0.77064714  0.10353657  1
  Cl  Cl489  1  0.48422309  0.10635090  0.12832694  1
  Cl  Cl490  1  0.49247335  0.44791643  0.12195601  1
  Cl  Cl491  1  0.49706389  0.77648776  0.11310574  1
  Cl  Cl492  1  0.00180512  0.21593419  0.87563888  1
  Cl  Cl493  1  0.00877174  0.55610563  0.87006034  1
  Cl  Cl494  1  -0.00819205  0.88953379  0.87351649  1
  Cl  Cl495  1  0.50094408  0.22890595  0.89682407  1
  Cl  Cl496  1  0.50523818  0.55515696  0.88872950  1
  Cl  Cl497  1  0.49285235  0.88811391  0.88469186  1
  Cl  Cl498  1  0.00566318  0.10984194  0.37924107  1
  Cl  Cl499  1  0.00157005  0.44504089  0.38651270  1
  Cl  Cl500  1  0.00205651  0.78235030  0.37495776  1
  Cl  Cl501  1  0.50402284  0.10482154  0.39970799  1
  Cl  Cl502  1  0.51010680  0.44143143  0.39117375  1
  Cl  Cl503  1  0.50168375  0.78272052  0.38170520  1
  Cl  Cl504  1  0.35712176  0.14795948  0.73974683  1
  Cl  Cl505  1  0.36399145  0.48069275  0.74408773  1
  Cl  Cl506  1  0.36032424  0.81751759  0.74005391  1
  Cl  Cl507  1  0.86498573  0.14843499  0.74983382  1
  Cl  Cl508  1  0.86615781  0.48218019  0.74943417  1
  Cl  Cl509  1  0.86030124  0.81224176  0.75644602  1
  Cl  Cl510  1  0.13873058  0.18369489  0.24747676  1
  Cl  Cl511  1  0.14500314  0.51679200  0.25008607  1
  Cl  Cl512  1  0.14218975  0.85097275  0.24350366  1
  Cl  Cl513  1  0.63683911  0.18219406  0.24745693  1
  Cl  Cl514  1  0.64303643  0.51350925  0.25372659  1
  Cl  Cl515  1  0.64354406  0.85131940  0.24652837  1
  Cl  Cl516  1  0.14064080  0.14846478  0.75474098  1
  Cl  Cl517  1  0.14507033  0.48499951  0.75080713  1
  Cl  Cl518  1  0.14027234  0.81677674  0.75212228  1
  Cl  Cl519  1  0.64029579  0.14705523  0.75625912  1
  Cl  Cl520  1  0.64293161  0.48283369  0.75428711  1
  Cl  Cl521  1  0.63825194  0.81376472  0.75868445  1
  Cl  Cl522  1  0.36187422  0.18696782  0.24727154  1
  Cl  Cl523  1  0.36243148  0.51953631  0.25420373  1
  Cl  Cl524  1  0.35835075  0.85083177  0.25472225  1
  Cl  Cl525  1  0.85994515  0.18308725  0.25437782  1
  Cl  Cl526  1  0.86090569  0.51965278  0.25337430  1
  Cl  Cl527  1  0.86384564  0.85384437  0.25290426  1
  Cl  Cl528  1  0.11158522  0.31719962  0.75167915  1
  Cl  Cl529  1  0.11128516  0.65146728  0.75249979  1
  Cl  Cl530  1  0.10500982  0.98360107  0.75344835  1
  Cl  Cl531  1  0.61117569  0.31459261  0.75543733  1
  Cl  Cl532  1  0.60553516  0.65076167  0.74705051  1
  Cl  Cl533  1  0.61780100  0.97860627  0.75728756  1
  Cl  Cl534  1  0.39080257  0.01429055  0.27035124  1
  Cl  Cl535  1  0.38470125  0.35300746  0.25893672  1
  Cl  Cl536  1  0.39010076  0.68575917  0.24918621  1
  Cl  Cl537  1  0.89229616  0.01750973  0.24865007  1
  Cl  Cl538  1  0.88719741  0.34892984  0.24341615  1
  Cl  Cl539  1  0.88487392  0.68765862  0.25079705  1
  Cl  Cl540  1  0.39019549  0.31533427  0.74899028  1
  Cl  Cl541  1  0.38650923  0.64676728  0.75062454  1
  Cl  Cl542  1  0.39275383  0.98251864  0.74630130  1
  Cl  Cl543  1  0.88873323  0.31338997  0.74258235  1
  Cl  Cl544  1  0.88991782  0.64645277  0.74783305  1
  Cl  Cl545  1  0.88199259  0.97526395  0.73110733  1
  Cl  Cl546  1  0.11405431  0.01977517  0.24411360  1
  Cl  Cl547  1  0.10673953  0.34898872  0.25113627  1
  Cl  Cl548  1  0.10913215  0.68365640  0.24927894  1
  Cl  Cl549  1  0.60950490  0.01689695  0.24911828  1
  Cl  Cl550  1  0.60821062  0.34882402  0.24862685  1
  Cl  Cl551  1  0.60720004  0.68326053  0.24807910  1
