# generated using pymatgen
data_H8PbC4(N3Cl2)2
_symmetry_space_group_name_H-M   'P 1'
_cell_length_a   16.62168027
_cell_length_b   22.50283996
_cell_length_c   21.58853454
_cell_angle_alpha   90.00043119
_cell_angle_beta   90.00619229
_cell_angle_gamma   89.99908553
_symmetry_Int_Tables_number   1
_chemical_formula_structural   H8PbC4(N3Cl2)2
_chemical_formula_sum   'H192 Pb24 C96 N144 Cl96'
_cell_volume   8074.86770447
_cell_formula_units_Z   24
loop_
 _symmetry_equiv_pos_site_id
 _symmetry_equiv_pos_as_xyz
  1  'x, y, z'
loop_
 _atom_site_type_symbol
 _atom_site_label
 _atom_site_symmetry_multiplicity
 _atom_site_fract_x
 _atom_site_fract_y
 _atom_site_fract_z
 _atom_site_occupancy
  H  H0  1  0.01236650  0.03419657  0.68055268  1
  H  H1  1  0.00069150  0.36406387  0.67711621  1
  H  H2  1  0.00721925  0.69993435  0.68114464  1
  H  H3  1  0.48800376  0.03264286  0.67734911  1
  H  H4  1  0.50560650  0.36557869  0.68008262  1
  H  H5  1  0.49291011  0.70002564  0.68128186  1
  H  H6  1  -0.00845727  0.30214818  0.17718297  1
  H  H7  1  -0.00387097  0.63502268  0.18165035  1
  H  H8  1  0.00629713  0.96813988  0.18143783  1
  H  H9  1  0.50080568  0.30243599  0.17654808  1
  H  H10  1  0.50420045  0.63432009  0.18158528  1
  H  H11  1  0.50822727  0.96589048  0.17675117  1
  H  H12  1  0.00365642  0.03514279  0.82126720  1
  H  H13  1  0.00531906  0.36599968  0.82214505  1
  H  H14  1  -0.00079488  0.69830090  0.82010722  1
  H  H15  1  0.49552299  0.02980730  0.82093119  1
  H  H16  1  0.50420191  0.36578274  0.82137880  1
  H  H17  1  0.50348320  0.69800079  0.81832133  1
  H  H18  1  0.00043776  0.30245644  0.31958188  1
  H  H19  1  0.00094462  0.63323113  0.31982555  1
  H  H20  1  0.00323597  0.96921328  0.31804376  1
  H  H21  1  0.50321399  0.30105905  0.31847211  1
  H  H22  1  0.50794964  0.63444370  0.32205502  1
  H  H23  1  0.49252229  0.96766994  0.31697865  1
  H  H24  1  0.24735142  0.20021683  0.68122684  1
  H  H25  1  0.24689615  0.53237269  0.67656835  1
  H  H26  1  0.24847672  0.86335061  0.68256301  1
  H  H27  1  0.75675532  0.19854961  0.68093605  1
  H  H28  1  0.74667124  0.53274075  0.68207418  1
  H  H29  1  0.76071776  0.86306654  0.68258413  1
  H  H30  1  0.25960387  0.13489378  0.17993375  1
  H  H31  1  0.24133182  0.46655525  0.17718336  1
  H  H32  1  0.26146221  0.80219739  0.18024185  1
  H  H33  1  0.73845685  0.13414884  0.17780497  1
  H  H34  1  0.74653861  0.46735386  0.17775858  1
  H  H35  1  0.74168054  0.80220974  0.18141921  1
  H  H36  1  0.24653810  0.19863153  0.82289928  1
  H  H37  1  0.24840613  0.53192515  0.81885822  1
  H  H38  1  0.24605288  0.86464025  0.81874913  1
  H  H39  1  0.75531629  0.19851971  0.82197947  1
  H  H40  1  0.74366144  0.53040627  0.82083986  1
  H  H41  1  0.74988062  0.86649107  0.82084708  1
  H  H42  1  0.25009631  0.13478838  0.31872121  1
  H  H43  1  0.24902066  0.46774276  0.32047544  1
  H  H44  1  0.25098818  0.79866167  0.31713275  1
  H  H45  1  0.75290399  0.13508981  0.32295084  1
  H  H46  1  0.74426387  0.46944013  0.32242534  1
  H  H47  1  0.75010907  0.80053439  0.31868369  1
  H  H48  1  0.12216685  0.05958028  0.59716458  1
  H  H49  1  0.11899722  0.38893561  0.60277883  1
  H  H50  1  0.12013633  0.71989586  0.60206489  1
  H  H51  1  0.62901916  0.05099897  0.62646344  1
  H  H52  1  0.61457240  0.39158154  0.59795859  1
  H  H53  1  0.62785135  0.71680597  0.62127916  1
  H  H54  1  0.37889784  0.28280381  0.10256547  1
  H  H55  1  0.36920885  0.61578786  0.12282892  1
  H  H56  1  0.37090985  0.94813484  0.12156873  1
  H  H57  1  0.88089055  0.27454493  0.09681171  1
  H  H58  1  0.87214077  0.61070060  0.11047510  1
  H  H59  1  0.86989067  0.94970814  0.12105000  1
  H  H60  1  0.38057227  0.05630299  0.90020389  1
  H  H61  1  0.37282806  0.38521012  0.88300405  1
  H  H62  1  0.37090134  0.71876195  0.88352382  1
  H  H63  1  0.87631369  0.05536123  0.89006901  1
  H  H64  1  0.86993867  0.38390278  0.88185000  1
  H  H65  1  0.87290374  0.72046912  0.89025098  1
  H  H66  1  0.12489857  0.27939882  0.39208897  1
  H  H67  1  0.12407189  0.61162657  0.39183104  1
  H  H68  1  0.12425247  0.94413030  0.39237317  1
  H  H69  1  0.62729444  0.27910594  0.39114315  1
  H  H70  1  0.62058665  0.60953037  0.40147140  1
  H  H71  1  0.62723215  0.94978529  0.37585826  1
  H  H72  1  0.37211691  0.22003915  0.61265201  1
  H  H73  1  0.37818186  0.55383989  0.61197404  1
  H  H74  1  0.37456872  0.88705886  0.61445318  1
  H  H75  1  0.87284280  0.22280778  0.60212418  1
  H  H76  1  0.87557683  0.55323672  0.61268304  1
  H  H77  1  0.87056080  0.88822461  0.60062578  1
  H  H78  1  0.12230958  0.11714142  0.12246251  1
  H  H79  1  0.13134852  0.44297845  0.09755670  1
  H  H80  1  0.12817771  0.78087881  0.11705969  1
  H  H81  1  0.62864830  0.10735325  0.09626410  1
  H  H82  1  0.63127596  0.44233606  0.09935482  1
  H  H83  1  0.63109291  0.77914589  0.09985046  1
  H  H84  1  0.12178514  0.22229294  0.89349742  1
  H  H85  1  0.13141620  0.55277652  0.89436953  1
  H  H86  1  0.13248778  0.88810850  0.89670750  1
  H  H87  1  0.62099967  0.21871368  0.88199011  1
  H  H88  1  0.63215742  0.55570698  0.90178217  1
  H  H89  1  0.62971287  0.88845431  0.89622478  1
  H  H90  1  0.37410083  0.11336339  0.38970281  1
  H  H91  1  0.38268806  0.44866968  0.38174460  1
  H  H92  1  0.37537313  0.77907503  0.38794388  1
  H  H93  1  0.87158351  0.11075660  0.39731989  1
  H  H94  1  0.88277758  0.44910306  0.37695624  1
  H  H95  1  0.87398421  0.77813567  0.39180973  1
  H  H96  1  0.37868107  0.27923058  0.38998147  1
  H  H97  1  0.37301182  0.61422361  0.38288924  1
  H  H98  1  0.37939904  0.94436912  0.39569346  1
  H  H99  1  0.87623121  0.27900052  0.39216899  1
  H  H100  1  0.87468938  0.61410942  0.38705460  1
  H  H101  1  0.87444633  0.94756590  0.38381284  1
  H  H102  1  0.12502552  0.05618183  0.89603523  1
  H  H103  1  0.11720085  0.39038644  0.90357297  1
  H  H104  1  0.12253353  0.72060036  0.89082110  1
  H  H105  1  0.62851533  0.05206385  0.88443216  1
  H  H106  1  0.62115490  0.38961238  0.89711208  1
  H  H107  1  0.61974576  0.72165032  0.89586700  1
  H  H108  1  0.12797389  0.28401556  0.11762401  1
  H  H109  1  0.12123494  0.61269815  0.11067279  1
  H  H110  1  0.11753091  0.94279411  0.10160373  1
  H  H111  1  0.62735410  0.27622445  0.10928627  1
  H  H112  1  0.61716637  0.61032956  0.10305330  1
  H  H113  1  0.61718022  0.94455656  0.09549684  1
  H  H114  1  0.38483366  0.06141505  0.59161856  1
  H  H115  1  0.36735223  0.38442590  0.62275098  1
  H  H116  1  0.38002863  0.72050902  0.60238810  1
  H  H117  1  0.87528769  0.05210180  0.62394128  1
  H  H118  1  0.87053493  0.38683187  0.61169909  1
  H  H119  1  0.87214143  0.71810592  0.62159396  1
  H  H120  1  0.12574092  0.11327929  0.38978266  1
  H  H121  1  0.13403307  0.44506817  0.39757047  1
  H  H122  1  0.12523637  0.77827986  0.38841111  1
  H  H123  1  0.62326086  0.11292224  0.38876004  1
  H  H124  1  0.63655178  0.44235812  0.40531819  1
  H  H125  1  0.62557075  0.77683082  0.39096018  1
  H  H126  1  0.37111632  0.22284387  0.89195938  1
  H  H127  1  0.38091082  0.55011291  0.88341059  1
  H  H128  1  0.38041795  0.88372826  0.87777823  1
  H  H129  1  0.86815225  0.22392001  0.90246301  1
  H  H130  1  0.87956097  0.55178665  0.87842425  1
  H  H131  1  0.87814699  0.88904904  0.88916357  1
  H  H132  1  0.36762958  0.10757803  0.09582520  1
  H  H133  1  0.37795437  0.44964102  0.12052252  1
  H  H134  1  0.37646396  0.77816398  0.10175988  1
  H  H135  1  0.87501201  0.11681991  0.11892370  1
  H  H136  1  0.87927657  0.44538616  0.11404033  1
  H  H137  1  0.87830962  0.78090261  0.12215492  1
  H  H138  1  0.12258436  0.22092638  0.61063041  1
  H  H139  1  0.12915224  0.55580145  0.60036560  1
  H  H140  1  0.12453270  0.88886472  0.61079873  1
  H  H141  1  0.62480617  0.21945291  0.61528855  1
  H  H142  1  0.62695865  0.55611014  0.60530299  1
  H  H143  1  0.62358511  0.88346594  0.62315323  1
  H  H144  1  0.05702314  0.74431932  0.49191911  1
  H  H145  1  0.44882990  0.07732015  1.00389967  1
  H  H146  1  0.05178754  0.08734342  0.49712598  1
  H  H147  1  0.55827078  0.75214739  1.00211743  1
  H  H148  1  0.69907640  0.75229879  -0.00541848  1
  H  H149  1  0.91557526  0.58674606  0.50025236  1
  H  H150  1  0.84540689  0.41674235  0.00729525  1
  H  H151  1  0.58593779  0.25572410  0.00280664  1
  H  H152  1  0.66123464  0.08507402  0.49643161  1
  H  H153  1  0.40075208  0.41684375  0.99600186  1
  H  H154  1  0.70143211  0.58048565  1.00412161  1
  H  H155  1  0.17609828  0.74248974  0.49156787  1
  H  H156  1  0.07597011  0.74877816  1.00105438  1
  H  H157  1  0.04997985  0.91654974  -0.00484943  1
  H  H158  1  0.29244547  0.08215941  -0.00367652  1
  H  H159  1  0.80007351  0.91195996  0.49455947  1
  H  H160  1  0.89663911  0.08139624  0.51052451  1
  H  H161  1  0.44251948  0.74495496  0.49241054  1
  H  H162  1  0.91871874  0.08522505  0.99562635  1
  H  H163  1  0.54572225  0.41923088  0.49270448  1
  H  H164  1  0.55553589  0.58251406  -0.00476821  1
  H  H165  1  0.70908914  0.41742988  0.50611566  1
  H  H166  1  0.31898667  0.07225724  0.48811441  1
  H  H167  1  0.90741008  0.41503787  0.50425720  1
  H  H168  1  0.32852622  0.91118708  0.50148938  1
  H  H169  1  0.57583803  0.24962906  0.49458725  1
  H  H170  1  0.35844619  0.91337583  0.99164037  1
  H  H171  1  0.38760047  0.41381937  0.51302327  1
  H  H172  1  0.19127923  0.41464709  0.50480747  1
  H  H173  1  0.18597845  0.58025498  1.00387685  1
  H  H174  1  0.44177048  0.91967182  0.50487384  1
  H  H175  1  0.19411076  0.91265034  1.00590352  1
  H  H176  1  0.06628679  0.92816737  0.49953167  1
  H  H177  1  0.46265405  0.08593818  0.49257480  1
  H  H178  1  0.91515164  0.91887306  0.49633763  1
  H  H179  1  0.39134228  0.58507996  0.01027067  1
  H  H180  1  0.34004960  0.58273039  0.50532873  1
  H  H181  1  0.18158577  0.11296196  0.49704469  1
  H  H182  1  0.60131691  0.91874736  0.48877661  1
  H  H183  1  0.16944240  0.25329976  0.99724520  1
  H  H184  1  0.17913555  0.89976924  0.50257791  1
  H  H185  1  0.07182084  0.08911176  0.99743128  1
  H  H186  1  0.91703279  0.74845325  0.99510336  1
  H  H187  1  0.91967114  0.58227326  0.00168030  1
  H  H188  1  0.32803415  0.24919284  0.50037600  1
  H  H189  1  0.43049913  0.24640495  0.00289116  1
  H  H190  1  0.83304033  0.91685653  0.99490014  1
  H  H191  1  0.32768065  0.75550732  0.50045689  1
  Pb  Pb192  1  0.25197769  0.05056803  0.74583195  1
  Pb  Pb193  1  0.24783903  0.37846338  0.75210680  1
  Pb  Pb194  1  0.25104046  0.71336900  0.74234223  1
  Pb  Pb195  1  0.75006369  0.04504481  0.74957557  1
  Pb  Pb196  1  0.75335613  0.38124542  0.74611582  1
  Pb  Pb197  1  0.74964422  0.71158021  0.75787101  1
  Pb  Pb198  1  0.25102831  0.28786182  0.24823804  1
  Pb  Pb199  1  0.25204553  0.61846657  0.25307899  1
  Pb  Pb200  1  0.24698076  0.95121101  0.25363569  1
  Pb  Pb201  1  0.75149173  0.28638969  0.24887074  1
  Pb  Pb202  1  0.74981919  0.62036093  0.24489555  1
  Pb  Pb203  1  0.75063224  0.95515345  0.24625549  1
  Pb  Pb204  1  -0.00382016  0.21378883  0.75334902  1
  Pb  Pb205  1  0.00464310  0.54725533  0.74860729  1
  Pb  Pb206  1  -0.00039663  0.88067586  0.74698981  1
  Pb  Pb207  1  0.50337832  0.21533085  0.75123067  1
  Pb  Pb208  1  0.50044145  0.54548170  0.75079317  1
  Pb  Pb209  1  0.50113235  0.87908901  0.74922608  1
  Pb  Pb210  1  -0.00059078  0.12223290  0.25202449  1
  Pb  Pb211  1  0.00151620  0.45390367  0.25158433  1
  Pb  Pb212  1  -0.00004104  0.78514298  0.24956692  1
  Pb  Pb213  1  0.49893114  0.11931083  0.24516029  1
  Pb  Pb214  1  0.50670207  0.45215418  0.25249404  1
  Pb  Pb215  1  0.50292455  0.78625630  0.24655784  1
  C  C216  1  0.00362480  0.04847000  0.63285250  1
  C  C217  1  -0.00383975  0.37950698  0.62973983  1
  C  C218  1  -0.00000421  0.71314762  0.63321994  1
  C  C219  1  0.50039501  0.04745778  0.63044594  1
  C  C220  1  0.49510258  0.38014575  0.63267996  1
  C  C221  1  0.50008281  0.71271737  0.63325028  1
  C  C222  1  0.00049837  0.28706369  0.13018363  1
  C  C223  1  -0.00353212  0.61965803  0.13404263  1
  C  C224  1  -0.00248069  0.95351515  0.13403730  1
  C  C225  1  0.50233723  0.28690201  0.12882398  1
  C  C226  1  0.49650535  0.62007731  0.13384803  1
  C  C227  1  0.49844489  0.95269484  0.12919069  1
  C  C228  1  0.00175678  0.04923903  0.86939726  1
  C  C229  1  -0.00243685  0.38010462  0.86962735  1
  C  C230  1  -0.00225288  0.71368428  0.86784797  1
  C  C231  1  0.50120877  0.04522980  0.86834581  1
  C  C232  1  0.49876879  0.38044375  0.86902570  1
  C  C233  1  0.49781677  0.71271526  0.86595154  1
  C  C234  1  0.00052780  0.28697138  0.36717397  1
  C  C235  1  -0.00061663  0.61953832  0.36790535  1
  C  C236  1  0.00125104  0.95391578  0.36583456  1
  C  C237  1  0.50339975  0.28600367  0.36623304  1
  C  C238  1  0.50016655  0.61965510  0.36930386  1
  C  C239  1  0.50008541  0.95360777  0.36477651  1
  C  C240  1  0.24785696  0.21388367  0.63316187  1
  C  C241  1  0.25194138  0.54753782  0.62911284  1
  C  C242  1  0.24842899  0.87907731  0.63488893  1
  C  C243  1  0.75141174  0.21359308  0.63333365  1
  C  C244  1  0.74980133  0.54707433  0.63416521  1
  C  C245  1  0.75133170  0.87827988  0.63538287  1
  C  C246  1  0.25019554  0.12038776  0.13255764  1
  C  C247  1  0.25050865  0.45299149  0.12964169  1
  C  C248  1  0.25507600  0.78726167  0.13290599  1
  C  C249  1  0.74764615  0.11990254  0.13054710  1
  C  C250  1  0.75286709  0.45201296  0.13033474  1
  C  C251  1  0.75076437  0.78734476  0.13408917  1
  C  C252  1  0.24608828  0.21445534  0.87025134  1
  C  C253  1  0.25309577  0.54507928  0.86701260  1
  C  C254  1  0.25328502  0.87920004  0.86639568  1
  C  C255  1  0.74817900  0.21365516  0.86914275  1
  C  C256  1  0.75159681  0.54526787  0.86821868  1
  C  C257  1  0.75304475  0.88116942  0.86866769  1
  C  C258  1  0.24983137  0.12033329  0.36676583  1
  C  C259  1  0.25499969  0.45364363  0.36825804  1
  C  C260  1  0.24992366  0.78448177  0.36535402  1
  C  C261  1  0.74867842  0.12003654  0.37053960  1
  C  C262  1  0.75439474  0.45441935  0.36953820  1
  C  C263  1  0.74996413  0.78573529  0.36652585  1
  C  C264  1  0.95461055  0.92683727  0.45692175  1
  C  C265  1  0.29147997  0.90580690  0.54273065  1
  C  C266  1  0.77103609  0.90373886  0.53899064  1
  C  C267  1  0.20631698  0.23850886  0.53948656  1
  C  C268  1  0.52398294  0.59205619  0.46490821  1
  C  C269  1  0.56676728  0.07352297  0.54542505  1
  C  C270  1  0.44848250  0.40677642  0.96049491  1
  C  C271  1  0.44052577  0.59531487  0.04421121  1
  C  C272  1  0.47396146  0.92855883  0.46191787  1
  C  C273  1  0.94469707  0.40536151  0.95879289  1
  C  C274  1  0.22712830  0.90394038  0.96340738  1
  C  C275  1  0.22307605  0.57029151  0.96383669  1
  C  C276  1  0.80992760  0.57280179  0.95634532  1
  C  C277  1  0.52473525  0.74009692  0.96061151  1
  C  C278  1  0.21853732  0.57575852  0.53361932  1
  C  C279  1  0.28856444  0.24328386  0.96336671  1
  C  C280  1  0.78401042  0.09181721  0.46572817  1
  C  C281  1  0.55540735  0.92913122  0.45445369  1
  C  C282  1  0.03033727  0.40912761  0.53503142  1
  C  C283  1  0.52206904  0.59372640  0.03699596  1
  C  C284  1  0.22779857  0.42643153  0.46477599  1
  C  C285  1  0.02485884  0.73621574  0.53503180  1
  C  C286  1  0.30778442  0.42923359  0.04143520  1
  C  C287  1  0.03714332  0.73920784  0.96167801  1
  C  C288  1  0.72714866  0.09152734  0.03479200  1
  C  C289  1  0.94413103  0.73555043  0.54356713  1
  C  C290  1  0.81602952  0.42679206  0.45580743  1
  C  C291  1  0.96012205  0.59277722  0.04092084  1
  C  C292  1  0.51607160  0.40790342  0.53616180  1
  C  C293  1  0.55573427  0.73427015  0.54337710  1
  C  C294  1  0.95688362  0.59570144  0.46228872  1
  C  C295  1  0.30903190  0.42836611  0.45804821  1
  C  C296  1  0.43920694  0.92876184  0.04127295  1
  C  C297  1  0.22822737  0.42693759  0.03400348  1
  C  C298  1  0.94402916  0.07178624  0.54493920  1
  C  C299  1  0.97915284  0.25694802  0.03518963  1
  C  C300  1  0.30425067  0.56878740  0.95796959  1
  C  C301  1  0.03847893  0.59498626  0.46215491  1
  C  C302  1  0.69670771  0.24180214  0.95783899  1
  C  C303  1  0.51943106  0.92755107  0.03276098  1
  C  C304  1  0.47510343  0.73586780  0.53509578  1
  C  C305  1  0.29079424  0.76312491  0.45967015  1
  C  C306  1  0.01882954  0.92696981  0.03819628  1
  C  C307  1  0.53001425  0.40792871  0.96396551  1
  C  C308  1  0.30883461  0.90324175  0.95639403  1
  C  C309  1  0.28152194  0.75894203  0.03816635  1
  C  C310  1  0.73009044  0.76164645  0.03797928  1
  C  C311  1  0.28801534  0.23884033  0.53863167  1
  N  N312  1  0.54455469  0.25473824  0.03976663  1
  N  N313  1  0.77992679  0.24042444  0.53769418  1
  N  N314  1  0.44664676  0.59363802  0.45987124  1
  N  N315  1  0.71156306  0.75971143  0.46047285  1
  N  N316  1  0.29028774  0.10285092  0.46072271  1
  N  N317  1  0.96260568  0.25920157  0.46059141  1
  N  N318  1  0.79358222  0.57281195  0.54166515  1
  N  N319  1  0.72232699  0.42511030  0.03492307  1
  N  N320  1  0.21144144  0.90709168  0.54222159  1
  N  N321  1  0.53880623  0.26169363  0.45863552  1
  N  N322  1  0.26626414  0.09328288  0.03792944  1
  N  N323  1  0.78766416  0.76047877  0.46081449  1
  N  N324  1  0.20412197  0.76010331  0.04166928  1
  N  N325  1  0.95154752  0.40718686  0.53923826  1
  N  N326  1  0.03435312  0.92563704  0.45906930  1
  N  N327  1  0.71736103  0.57349191  0.53910032  1
  N  N328  1  0.95735689  0.73968407  0.95992909  1
  N  N329  1  0.80424528  0.09494002  0.04060649  1
  N  N330  1  0.70489032  0.09308371  0.46153741  1
  N  N331  1  0.03732792  0.06786026  0.96443505  1
  N  N332  1  0.21103537  0.76309972  0.45907506  1
  N  N333  1  0.46036733  0.26121993  0.45955195  1
  N  N334  1  0.43738761  0.40560872  0.54576468  1
  N  N335  1  0.77373756  0.24382635  0.96552437  1
  N  N336  1  0.46692985  0.26834695  0.03408792  1
  N  N337  1  0.55463668  0.07151761  0.95759905  1
  N  N338  1  0.02179766  0.40836779  0.96686554  1
  N  N339  1  0.03881049  0.25951893  0.46060598  1
  N  N340  1  0.73779859  0.42471327  0.46457050  1
  N  N341  1  0.80049790  0.42562136  0.04159442  1
  N  N342  1  0.29728203  0.57449209  0.53875799  1
  N  N343  1  0.80883799  0.76133007  0.04529292  1
  N  N344  1  0.20924081  0.09473919  0.45901780  1
  N  N345  1  0.95815076  0.07070806  0.96155191  1
  N  N346  1  0.18881816  0.09695780  0.04522688  1
  N  N347  1  0.44574217  0.73868685  0.95674295  1
  N  N348  1  0.69266670  0.90362044  0.54694822  1
  N  N349  1  0.20931427  0.24291020  0.96246799  1
  N  N350  1  0.71571525  0.90661541  0.96324853  1
  N  N351  1  0.93993192  0.92889445  0.04465386  1
  N  N352  1  0.02306938  0.07251132  0.53628510  1
  N  N353  1  0.79380841  0.90684726  0.95935331  1
  N  N354  1  0.47692668  0.07309860  0.96173684  1
  N  N355  1  0.70339442  0.23888554  0.54191384  1
  N  N356  1  0.03954764  0.59340616  0.04038269  1
  N  N357  1  0.48898570  0.07667833  0.53462147  1
  N  N358  1  0.73112763  0.57362615  0.96300309  1
  N  N359  1  0.05628125  0.26018583  0.04070505  1
  N  N360  1  0.05996852  0.05940396  0.59114647  1
  N  N361  1  0.05819185  0.39195710  0.59097577  1
  N  N362  1  0.05899289  0.72232020  0.59235294  1
  N  N363  1  0.57379283  0.05633521  0.60503749  1
  N  N364  1  0.55244121  0.39219361  0.59003770  1
  N  N365  1  0.57039873  0.72060907  0.60246402  1
  N  N366  1  0.43980139  0.27725248  0.09226452  1
  N  N367  1  0.42660299  0.61154121  0.10453314  1
  N  N368  1  0.42685001  0.94400904  0.10099176  1
  N  N369  1  0.94242983  0.27306601  0.08872986  1
  N  N370  1  0.93236019  0.60871771  0.09822815  1
  N  N371  1  0.92848979  0.94535829  0.10484234  1
  N  N372  1  0.44246338  0.05501867  0.90849361  1
  N  N373  1  0.43071247  0.38961827  0.90010404  1
  N  N374  1  0.43078394  0.72175993  0.89777088  1
  N  N375  1  0.93644674  0.05816373  0.90326528  1
  N  N376  1  0.92759486  0.38853084  0.89945120  1
  N  N377  1  0.93337780  0.72419918  0.90203829  1
  N  N378  1  0.06398676  0.27696060  0.40290622  1
  N  N379  1  0.06382736  0.60928152  0.40516320  1
  N  N380  1  0.06304955  0.94586717  0.40351286  1
  N  N381  1  0.56632956  0.27521457  0.40187311  1
  N  N382  1  0.55906286  0.60770146  0.41055337  1
  N  N383  1  0.57005234  0.94473819  0.39416559  1
  N  N384  1  0.31277259  0.22331808  0.59815196  1
  N  N385  1  0.31860138  0.55706888  0.59753129  1
  N  N386  1  0.31446992  0.89075830  0.60042997  1
  N  N387  1  0.81091883  0.22484056  0.59410576  1
  N  N388  1  0.81511184  0.55651670  0.60045042  1
  N  N389  1  0.80876442  0.88897215  0.59308863  1
  N  N390  1  0.17972471  0.11275253  0.10464885  1
  N  N391  1  0.19252520  0.44121590  0.08757090  1
  N  N392  1  0.18764145  0.77791093  0.10215867  1
  N  N393  1  0.68994325  0.10659813  0.08853793  1
  N  N394  1  0.69321228  0.44107952  0.09057317  1
  N  N395  1  0.69303901  0.77711965  0.09202172  1
  N  N396  1  0.18251224  0.22494761  0.90509160  1
  N  N397  1  0.19224813  0.55518423  0.90569318  1
  N  N398  1  0.19366384  0.88931366  0.90685992  1
  N  N399  1  0.67857271  0.22348185  0.89918048  1
  N  N400  1  0.69434282  0.55441561  0.90950544  1
  N  N401  1  0.69097383  0.89075011  0.90643888  1
  N  N402  1  0.31352552  0.10699966  0.40083409  1
  N  N403  1  0.32493777  0.44467494  0.39922169  1
  N  N404  1  0.31524987  0.77756970  0.40201975  1
  N  N405  1  0.81128772  0.10840510  0.40926841  1
  N  N406  1  0.82642435  0.44414801  0.39662866  1
  N  N407  1  0.81312323  0.77640480  0.40262812  1
  N  N408  1  0.43919982  0.27686448  0.40189773  1
  N  N409  1  0.43181006  0.61080922  0.39883973  1
  N  N410  1  0.44055307  0.94368634  0.40550782  1
  N  N411  1  0.93726337  0.27563857  0.40253722  1
  N  N412  1  0.93375388  0.61093562  0.40237297  1
  N  N413  1  0.93395070  0.94263821  0.39882491  1
  N  N414  1  0.06414885  0.05853875  0.90639288  1
  N  N415  1  0.05487381  0.39211632  0.91004862  1
  N  N416  1  0.06231403  0.72345832  0.90435316  1
  N  N417  1  0.56921131  0.05584487  0.89889230  1
  N  N418  1  0.56032178  0.39213073  0.90890593  1
  N  N419  1  0.55840813  0.72409000  0.90529706  1
  N  N420  1  0.06958584  0.27927718  0.10131988  1
  N  N421  1  0.06026066  0.60999030  0.09870928  1
  N  N422  1  0.05554437  0.94175374  0.09267017  1
  N  N423  1  0.56732583  0.27609371  0.09532941  1
  N  N424  1  0.55576353  0.60927933  0.09327925  1
  N  N425  1  0.55564667  0.94207184  0.08629574  1
  N  N426  1  0.44701175  0.05860747  0.58662869  1
  N  N427  1  0.42517588  0.38828140  0.60497741  1
  N  N428  1  0.44104315  0.72235229  0.59253045  1
  N  N429  1  0.93217656  0.05610618  0.60456624  1
  N  N430  1  0.92989448  0.38842877  0.59751938  1
  N  N431  1  0.92966131  0.72195194  0.60276407  1
  N  N432  1  0.18597096  0.11608935  0.40300526  1
  N  N433  1  0.19529445  0.44263443  0.40763821  1
  N  N434  1  0.18608624  0.77283663  0.39973328  1
  N  N435  1  0.68275960  0.11082816  0.40298186  1
  N  N436  1  0.69887995  0.44404292  0.41186752  1
  N  N437  1  0.68644575  0.77538648  0.40206118  1
  N  N438  1  0.31139953  0.22594548  0.90618242  1
  N  N439  1  0.32217066  0.55356085  0.89941442  1
  N  N440  1  0.32299985  0.88806920  0.89582415  1
  N  N441  1  0.80603274  0.22584965  0.90909094  1
  N  N442  1  0.82245258  0.55625262  0.89723900  1
  N  N443  1  0.81812633  0.89140009  0.90222231  1
  N  N444  1  0.30532285  0.10848749  0.09023200  1
  N  N445  1  0.32154243  0.44514243  0.10074401  1
  N  N446  1  0.31534267  0.77536416  0.09273238  1
  N  N447  1  0.81688501  0.11300000  0.10174038  1
  N  N448  1  0.81991904  0.44223323  0.09922642  1
  N  N449  1  0.81981921  0.77724382  0.10559321  1
  N  N450  1  0.18246832  0.22380220  0.59663815  1
  N  N451  1  0.19001470  0.55905091  0.58959801  1
  N  N452  1  0.18520841  0.88621047  0.59847288  1
  N  N453  1  0.68463611  0.22278462  0.60138408  1
  N  N454  1  0.68856460  0.55772305  0.59634738  1
  N  N455  1  0.68196290  0.88761296  0.60701022  1
  Cl  Cl456  1  0.25355937  0.06041049  0.60012191  1
  Cl  Cl457  1  0.24137898  0.38644597  0.61689458  1
  Cl  Cl458  1  0.24800462  0.72200741  0.60436411  1
  Cl  Cl459  1  0.75226627  0.05425373  0.61541261  1
  Cl  Cl460  1  0.73992355  0.39244302  0.60582773  1
  Cl  Cl461  1  0.75073012  0.71730627  0.63063772  1
  Cl  Cl462  1  0.25632249  0.27984706  0.11250589  1
  Cl  Cl463  1  0.24359977  0.61532048  0.12166458  1
  Cl  Cl464  1  0.23885820  0.94691096  0.12085913  1
  Cl  Cl465  1  0.75117561  0.27849322  0.11716063  1
  Cl  Cl466  1  0.74266180  0.60744917  0.10666420  1
  Cl  Cl467  1  0.74376907  0.94876774  0.11435439  1
  Cl  Cl468  1  0.25640101  0.06059452  0.89300559  1
  Cl  Cl469  1  0.24241486  0.38335602  0.88304470  1
  Cl  Cl470  1  0.24585489  0.71914869  0.87320857  1
  Cl  Cl471  1  0.75329786  0.05198755  0.88177455  1
  Cl  Cl472  1  0.74541868  0.38607089  0.87796211  1
  Cl  Cl473  1  0.74577880  0.71941359  0.89393925  1
  Cl  Cl474  1  0.25215491  0.27796213  0.38159663  1
  Cl  Cl475  1  0.24840852  0.61362097  0.38831715  1
  Cl  Cl476  1  0.24850176  0.94239673  0.39608963  1
  Cl  Cl477  1  0.75008785  0.28390036  0.38232238  1
  Cl  Cl478  1  0.74443124  0.61215866  0.37505599  1
  Cl  Cl479  1  0.75510569  0.95117452  0.38161349  1
  Cl  Cl480  1  -0.00433274  0.21653152  0.62104533  1
  Cl  Cl481  1  0.00207985  0.55130233  0.61367440  1
  Cl  Cl482  1  -0.00015796  0.89388218  0.60394377  1
  Cl  Cl483  1  0.50149567  0.21800168  0.61769540  1
  Cl  Cl484  1  0.50280391  0.55213184  0.61754899  1
  Cl  Cl485  1  0.49534589  0.88659854  0.61526363  1
  Cl  Cl486  1  -0.00081510  0.11304775  0.11522525  1
  Cl  Cl487  1  0.00240492  0.44678091  0.12098130  1
  Cl  Cl488  1  0.00331302  0.77888032  0.11472219  1
  Cl  Cl489  1  0.49070588  0.10871340  0.10614128  1
  Cl  Cl490  1  0.50963109  0.44356350  0.12075264  1
  Cl  Cl491  1  0.50582444  0.77984599  0.11232775  1
  Cl  Cl492  1  -0.00371693  0.21807270  0.88837208  1
  Cl  Cl493  1  0.00422722  0.55261669  0.88043741  1
  Cl  Cl494  1  0.00437814  0.88900588  0.88230632  1
  Cl  Cl495  1  0.49447066  0.22267038  0.88971163  1
  Cl  Cl496  1  0.51018879  0.55411319  0.88571752  1
  Cl  Cl497  1  0.50834035  0.88545846  0.88025570  1
  Cl  Cl498  1  0.00254023  0.10622030  0.39325831  1
  Cl  Cl499  1  0.00837636  0.44597098  0.38685978  1
  Cl  Cl500  1  0.00146736  0.78071017  0.38425523  1
  Cl  Cl501  1  0.49547021  0.11103589  0.39159345  1
  Cl  Cl502  1  0.51386165  0.44387679  0.38998832  1
  Cl  Cl503  1  0.49925028  0.77714849  0.38046853  1
  Cl  Cl504  1  0.35796719  0.14350265  0.75180421  1
  Cl  Cl505  1  0.36291265  0.47742828  0.74778749  1
  Cl  Cl506  1  0.36190917  0.81160773  0.75050882  1
  Cl  Cl507  1  0.86148183  0.14438915  0.75168555  1
  Cl  Cl508  1  0.85839435  0.47576772  0.75090832  1
  Cl  Cl509  1  0.86324976  0.81187113  0.75389781  1
  Cl  Cl510  1  0.13959055  0.18666527  0.24662852  1
  Cl  Cl511  1  0.13670733  0.52283178  0.25128923  1
  Cl  Cl512  1  0.13669694  0.85616212  0.25302999  1
  Cl  Cl513  1  0.63462755  0.18794844  0.25311469  1
  Cl  Cl514  1  0.64049813  0.51982229  0.24637941  1
  Cl  Cl515  1  0.63944492  0.85437750  0.25258956  1
  Cl  Cl516  1  0.14000869  0.14239760  0.74948812  1
  Cl  Cl517  1  0.13946447  0.47976462  0.74702064  1
  Cl  Cl518  1  0.13780298  0.81321653  0.74649343  1
  Cl  Cl519  1  0.63567087  0.14444224  0.75079636  1
  Cl  Cl520  1  0.63616271  0.47767222  0.74986457  1
  Cl  Cl521  1  0.63854527  0.81208866  0.74875347  1
  Cl  Cl522  1  0.36378424  0.18718253  0.25246622  1
  Cl  Cl523  1  0.35924599  0.52295342  0.25104851  1
  Cl  Cl524  1  0.35807797  0.85562081  0.25242835  1
  Cl  Cl525  1  0.86109796  0.18579522  0.24980546  1
  Cl  Cl526  1  0.86374664  0.52143731  0.25070884  1
  Cl  Cl527  1  0.86388546  0.85638364  0.24592312  1
  Cl  Cl528  1  0.11143889  0.31103155  0.74827716  1
  Cl  Cl529  1  0.10844111  0.64529652  0.74866231  1
  Cl  Cl530  1  0.11246860  0.97971191  0.74892612  1
  Cl  Cl531  1  0.60476287  0.31139834  0.74960283  1
  Cl  Cl532  1  0.61161041  0.64575965  0.74784450  1
  Cl  Cl533  1  0.61173487  0.97922919  0.74579075  1
  Cl  Cl534  1  0.38713168  0.02119852  0.25101177  1
  Cl  Cl535  1  0.38987017  0.35441790  0.25145566  1
  Cl  Cl536  1  0.38500125  0.68964729  0.25240007  1
  Cl  Cl537  1  0.88927757  0.02140046  0.24775860  1
  Cl  Cl538  1  0.88738179  0.35514214  0.25097372  1
  Cl  Cl539  1  0.88798116  0.68934540  0.24760795  1
  Cl  Cl540  1  0.38507982  0.31132925  0.74776097  1
  Cl  Cl541  1  0.38673576  0.64490005  0.75190922  1
  Cl  Cl542  1  0.38816048  0.97892174  0.74808759  1
  Cl  Cl543  1  0.88755671  0.31213833  0.75008817  1
  Cl  Cl544  1  0.88743592  0.64458836  0.75105618  1
  Cl  Cl545  1  0.89004663  0.97989494  0.74832275  1
  Cl  Cl546  1  0.11213596  0.02219585  0.25433957  1
  Cl  Cl547  1  0.11307160  0.35364844  0.24746569  1
  Cl  Cl548  1  0.11127744  0.68967059  0.25191619  1
  Cl  Cl549  1  0.61171868  0.02129929  0.25279819  1
  Cl  Cl550  1  0.60969654  0.35441794  0.25026790  1
  Cl  Cl551  1  0.60872912  0.68714094  0.24786064  1
