# generated using pymatgen
data_H8PbC4(N3Cl2)2
_symmetry_space_group_name_H-M   'P 1'
_cell_length_a   16.63493379
_cell_length_b   22.53182632
_cell_length_c   21.60063683
_cell_angle_alpha   89.99894132
_cell_angle_beta   90.01484400
_cell_angle_gamma   90.02005628
_symmetry_Int_Tables_number   1
_chemical_formula_structural   H8PbC4(N3Cl2)2
_chemical_formula_sum   'H192 Pb24 C96 N144 Cl96'
_cell_volume   8096.25140734
_cell_formula_units_Z   24
loop_
 _symmetry_equiv_pos_site_id
 _symmetry_equiv_pos_as_xyz
  1  'x, y, z'
loop_
 _atom_site_type_symbol
 _atom_site_label
 _atom_site_symmetry_multiplicity
 _atom_site_fract_x
 _atom_site_fract_y
 _atom_site_fract_z
 _atom_site_occupancy
  H  H0  1  0.00278414  0.02068211  0.66879238  1
  H  H1  1  -0.01487831  0.36565757  0.67554505  1
  H  H2  1  0.01060604  0.69493503  0.67501588  1
  H  H3  1  0.49072771  0.02974815  0.68017134  1
  H  H4  1  0.50382478  0.35419100  0.67686556  1
  H  H5  1  0.49594538  0.69645384  0.67329000  1
  H  H6  1  -0.00688967  0.29693321  0.18523420  1
  H  H7  1  -0.01828571  0.63426111  0.14868648  1
  H  H8  1  -0.01172658  0.97600279  0.18068594  1
  H  H9  1  0.51439920  0.30534917  0.18066570  1
  H  H10  1  0.50377842  0.63956352  0.17835684  1
  H  H11  1  0.51905235  0.97706212  0.17640500  1
  H  H12  1  -0.00846942  0.03583796  0.81484319  1
  H  H13  1  0.02144010  0.36628157  0.82763411  1
  H  H14  1  0.01436863  0.68912617  0.82485366  1
  H  H15  1  0.50101838  0.02258000  0.82258239  1
  H  H16  1  0.48800667  0.36086272  0.81915496  1
  H  H17  1  0.49831020  0.69834259  0.81562655  1
  H  H18  1  -0.00859412  0.30894722  0.32245677  1
  H  H19  1  0.00469901  0.64001314  0.31737430  1
  H  H20  1  -0.01560979  0.97189249  0.32591093  1
  H  H21  1  0.49773096  0.30478719  0.32584646  1
  H  H22  1  0.47152038  0.63347883  0.34236597  1
  H  H23  1  0.51730396  0.97233945  0.32036295  1
  H  H24  1  0.24631482  0.19823805  0.67932889  1
  H  H25  1  0.27543932  0.53238240  0.65915925  1
  H  H26  1  0.25704605  0.85803306  0.67649497  1
  H  H27  1  0.76360437  0.19246805  0.67303839  1
  H  H28  1  0.76733582  0.52915038  0.68613845  1
  H  H29  1  0.74526703  0.86336017  0.67979671  1
  H  H30  1  0.26144297  0.13690498  0.17659976  1
  H  H31  1  0.25256673  0.47926479  0.17100674  1
  H  H32  1  0.24628784  0.80178735  0.17682892  1
  H  H33  1  0.74921639  0.13432465  0.18360659  1
  H  H34  1  0.75365143  0.47138929  0.17860706  1
  H  H35  1  0.76174597  0.80145215  0.17962743  1
  H  H36  1  0.23478069  0.18853345  0.82490306  1
  H  H37  1  0.25802625  0.52210521  0.82160625  1
  H  H38  1  0.23010836  0.86038758  0.82596764  1
  H  H39  1  0.75472210  0.18564259  0.82754405  1
  H  H40  1  0.77812091  0.52789309  0.83753593  1
  H  H41  1  0.76758978  0.86957261  0.81906040  1
  H  H42  1  0.26200993  0.14527299  0.32513007  1
  H  H43  1  0.27344283  0.47189704  0.32531007  1
  H  H44  1  0.22780216  0.80785601  0.32835396  1
  H  H45  1  0.75479509  0.14000616  0.32184439  1
  H  H46  1  0.73631866  0.47067978  0.32277971  1
  H  H47  1  0.76703372  0.80131393  0.32407944  1
  H  H48  1  0.13037992  0.05351371  0.60523322  1
  H  H49  1  0.12046068  0.38521945  0.62086962  1
  H  H50  1  0.12520193  0.72624469  0.59959253  1
  H  H51  1  0.63090280  0.04842396  0.62799969  1
  H  H52  1  0.62961934  0.38825374  0.61261649  1
  H  H53  1  0.62684387  0.71878527  0.60957802  1
  H  H54  1  0.37448744  0.28171563  0.12681557  1
  H  H55  1  0.36215177  0.61935142  0.13049914  1
  H  H56  1  0.37905587  0.95273193  0.12861013  1
  H  H57  1  0.86848057  0.28447377  0.11348372  1
  H  H58  1  0.84206785  0.61244456  0.10047924  1
  H  H59  1  0.87030340  0.95540822  0.10403084  1
  H  H60  1  0.37753275  0.05538344  0.89076045  1
  H  H61  1  0.37369210  0.39113024  0.89719530  1
  H  H62  1  0.38396281  0.72536430  0.89490757  1
  H  H63  1  0.87621350  0.05661405  0.89594115  1
  H  H64  1  0.87651752  0.38082919  0.87048593  1
  H  H65  1  0.88503431  0.71714490  0.88956290  1
  H  H66  1  0.13463129  0.28934677  0.37041188  1
  H  H67  1  0.10794986  0.61313022  0.40061849  1
  H  H68  1  0.12307877  0.94766064  0.38078611  1
  H  H69  1  0.63140549  0.27992178  0.38593343  1
  H  H70  1  0.58519329  0.60535093  0.41852547  1
  H  H71  1  0.62053646  0.93914946  0.40441697  1
  H  H72  1  0.36107667  0.22630461  0.60081338  1
  H  H73  1  0.41300419  0.55288378  0.60624870  1
  H  H74  1  0.37278071  0.88927917  0.60037481  1
  H  H75  1  0.86195164  0.22576024  0.58684461  1
  H  H76  1  0.89004600  0.55091803  0.60987927  1
  H  H77  1  0.88191386  0.88265194  0.62298211  1
  H  H78  1  0.12484155  0.11757458  0.12313717  1
  H  H79  1  0.12875544  0.45128886  0.10102780  1
  H  H80  1  0.11600537  0.77698559  0.11233428  1
  H  H81  1  0.61873164  0.11154985  0.11689444  1
  H  H82  1  0.62950537  0.44596411  0.11044482  1
  H  H83  1  0.62263832  0.78391550  0.12744347  1
  H  H84  1  0.13057872  0.22443948  0.90732466  1
  H  H85  1  0.13776060  0.55146212  0.89569142  1
  H  H86  1  0.13261910  0.89558929  0.91354896  1
  H  H87  1  0.63212497  0.22163331  0.89335277  1
  H  H88  1  0.66564961  0.55933225  0.91398609  1
  H  H89  1  0.63326550  0.88177266  0.88146988  1
  H  H90  1  0.35854741  0.10897738  0.41267772  1
  H  H91  1  0.36789390  0.43877237  0.41468315  1
  H  H92  1  0.37117135  0.78489370  0.37540945  1
  H  H93  1  0.86868278  0.10742565  0.39759029  1
  H  H94  1  0.87513087  0.45106653  0.37675512  1
  H  H95  1  0.86467113  0.77419020  0.41173512  1
  H  H96  1  0.38436258  0.27262896  0.40046852  1
  H  H97  1  0.33722848  0.61327181  0.40010232  1
  H  H98  1  0.37665172  0.94936698  0.36846449  1
  H  H99  1  0.89037965  0.27704935  0.40571844  1
  H  H100  1  0.86422578  0.62128320  0.36646054  1
  H  H101  1  0.87844254  0.93970346  0.40967381  1
  H  H102  1  0.12404928  0.05340662  0.88077214  1
  H  H103  1  0.11621640  0.39592363  0.91518346  1
  H  H104  1  0.13294732  0.72092016  0.89960146  1
  H  H105  1  0.62640996  0.05135364  0.89002276  1
  H  H106  1  0.62172425  0.38463526  0.87925940  1
  H  H107  1  0.63136959  0.71683447  0.88179421  1
  H  H108  1  0.11769556  0.28110859  0.11390984  1
  H  H109  1  0.08579268  0.59979235  0.06782829  1
  H  H110  1  0.11601186  0.94162866  0.11816923  1
  H  H111  1  0.61946787  0.27635660  0.09703495  1
  H  H112  1  0.60468833  0.60484579  0.09402418  1
  H  H113  1  0.62225146  0.94513560  0.09157257  1
  H  H114  1  0.38589896  0.06216394  0.59628844  1
  H  H115  1  0.38189929  0.38231850  0.60628271  1
  H  H116  1  0.37864298  0.72560059  0.59932712  1
  H  H117  1  0.88228052  0.05536330  0.60071375  1
  H  H118  1  0.87501924  0.38783170  0.59380284  1
  H  H119  1  0.87766231  0.71929918  0.61378166  1
  H  H120  1  0.11812550  0.11972862  0.36986909  1
  H  H121  1  0.12758472  0.44987887  0.36727209  1
  H  H122  1  0.12875594  0.77041815  0.41161926  1
  H  H123  1  0.62150773  0.11643672  0.38296462  1
  H  H124  1  0.62889941  0.44121393  0.40246864  1
  H  H125  1  0.62271315  0.78327871  0.36864864  1
  H  H126  1  0.37445350  0.21408371  0.87308639  1
  H  H127  1  0.38571688  0.55056857  0.88892640  1
  H  H128  1  0.37314342  0.88458141  0.87198955  1
  H  H129  1  0.87974216  0.21701570  0.89327998  1
  H  H130  1  0.91395492  0.55011935  0.89493339  1
  H  H131  1  0.87945547  0.89257586  0.90024611  1
  H  H132  1  0.37049445  0.10737086  0.09689483  1
  H  H133  1  0.37746371  0.44328912  0.10806828  1
  H  H134  1  0.36432157  0.77619510  0.09981773  1
  H  H135  1  0.86685242  0.11122540  0.10558782  1
  H  H136  1  0.87836927  0.45162267  0.10960940  1
  H  H137  1  0.86812460  0.77628226  0.09759210  1
  H  H138  1  0.11340383  0.21993683  0.61768064  1
  H  H139  1  0.16718198  0.56399561  0.58038956  1
  H  H140  1  0.12579488  0.88447814  0.61441403  1
  H  H141  1  0.61985834  0.21341429  0.62719699  1
  H  H142  1  0.64192187  0.55366741  0.61596436  1
  H  H143  1  0.63468647  0.88768382  0.60000554  1
  H  H144  1  0.10006698  0.41390991  0.50477040  1
  H  H145  1  0.68975757  0.23457540  1.00016859  1
  H  H146  1  0.39344280  0.91987594  0.01479560  1
  H  H147  1  0.87680450  0.58677617  0.47969507  1
  H  H148  1  0.23015848  0.59593471  0.47542234  1
  H  H149  1  0.91322101  0.28145559  -0.00169568  1
  H  H150  1  0.52779563  0.57799736  0.52693142  1
  H  H151  1  0.37380655  0.58448221  1.01923736  1
  H  H152  1  0.57094706  0.45247652  0.53052319  1
  H  H153  1  0.27204832  0.08165970  0.50688922  1
  H  H154  1  0.79880007  0.74263163  -0.00634382  1
  H  H155  1  0.30103389  0.74792170  -0.00237065  1
  H  H156  1  0.72439448  0.59090706  1.02005132  1
  H  H157  1  0.80629200  0.93245252  0.99238529  1
  H  H158  1  0.07339078  0.27046680  -0.00049382  1
  H  H159  1  0.54437136  0.92488430  -0.00766675  1
  H  H160  1  0.58948450  0.41971016  0.98881056  1
  H  H161  1  0.16372327  0.91258458  0.50777940  1
  H  H162  1  0.61321239  0.08063857  0.51508557  1
  H  H163  1  0.35824322  0.24923011  0.98629861  1
  H  H164  1  0.96720098  0.24830160  0.50931208  1
  H  H165  1  0.94434001  0.95294841  0.00105106  1
  H  H166  1  0.52754583  0.58132495  -0.00488777  1
  H  H167  1  0.81703354  0.21944630  1.00061418  1
  H  H168  1  0.83935310  0.41730752  -0.00047260  1
  H  H169  1  0.27917577  0.41722914  0.51104578  1
  H  H170  1  0.20720797  0.24671763  1.00693256  1
  H  H171  1  0.44407383  0.39786496  0.50145084  1
  H  H172  1  0.35758272  0.75317542  0.48358024  1
  H  H173  1  0.63903617  0.74950893  1.01459634  1
  H  H174  1  0.57896006  0.09022855  0.99559645  1
  H  H175  1  0.54360178  0.91420328  0.50283900  1
  H  H176  1  0.59410032  0.74921464  0.50152427  1
  H  H177  1  0.45949798  0.08663090  0.49726614  1
  H  H178  1  0.67568676  0.87772722  0.99163588  1
  H  H179  1  0.70003087  0.91745807  0.49293479  1
  H  H180  1  0.39094463  0.91266163  0.48033952  1
  H  H181  1  0.14467345  0.08206331  1.01007332  1
  H  H182  1  0.03586701  0.57911627  0.50317132  1
  H  H183  1  0.05609856  0.87960632  0.03453026  1
  H  H184  1  0.78562679  0.74686624  0.51301326  1
  H  H185  1  0.14426985  0.25235287  0.50577686  1
  H  H186  1  0.21839557  0.92292939  1.00818596  1
  H  H187  1  0.60069654  0.24925089  0.49471168  1
  H  H188  1  0.77957526  0.25090458  0.48901633  1
  H  H189  1  0.54461081  0.25133024  -0.00666108  1
  H  H190  1  0.69758043  0.40746665  0.50731607  1
  H  H191  1  0.08712114  0.08606443  0.49983294  1
  Pb  Pb192  1  0.24994442  0.05072969  0.74357018  1
  Pb  Pb193  1  0.25407002  0.38521077  0.75064935  1
  Pb  Pb194  1  0.25391930  0.71669036  0.75062342  1
  Pb  Pb195  1  0.75685626  0.04899707  0.75011037  1
  Pb  Pb196  1  0.74937758  0.38514347  0.74617941  1
  Pb  Pb197  1  0.75821379  0.71486947  0.75127511  1
  Pb  Pb198  1  0.24547715  0.28624034  0.24392113  1
  Pb  Pb199  1  0.23256025  0.61550573  0.23847565  1
  Pb  Pb200  1  0.23887677  0.94827253  0.24495255  1
  Pb  Pb201  1  0.74010381  0.28158911  0.25024050  1
  Pb  Pb202  1  0.73381994  0.61642719  0.25963278  1
  Pb  Pb203  1  0.74576515  0.94586335  0.24963971  1
  Pb  Pb204  1  -0.00075040  0.22183360  0.75221289  1
  Pb  Pb205  1  0.01194218  0.54726163  0.73923122  1
  Pb  Pb206  1  0.00442147  0.88180930  0.76519762  1
  Pb  Pb207  1  0.50175418  0.21440623  0.74820607  1
  Pb  Pb208  1  0.50675808  0.55037031  0.76656890  1
  Pb  Pb209  1  0.50639658  0.88185437  0.74384697  1
  Pb  Pb210  1  -0.00751611  0.11780010  0.25035291  1
  Pb  Pb211  1  -0.00716181  0.45255201  0.24245714  1
  Pb  Pb212  1  -0.00809108  0.77803923  0.25513881  1
  Pb  Pb213  1  0.48743196  0.11496804  0.25608384  1
  Pb  Pb214  1  0.49289262  0.45163978  0.26000912  1
  Pb  Pb215  1  0.48683477  0.78028587  0.24732569  1
  C  C216  1  0.00576152  0.04127934  0.62360719  1
  C  C217  1  -0.00546616  0.37984856  0.62814663  1
  C  C218  1  0.00421653  0.71264239  0.62877468  1
  C  C219  1  0.50247207  0.04564584  0.63344829  1
  C  C220  1  0.50541224  0.37401031  0.63104231  1
  C  C221  1  0.50105488  0.71276302  0.62616774  1
  C  C222  1  -0.00694670  0.28838692  0.13571462  1
  C  C223  1  -0.03088392  0.61687137  0.10288424  1
  C  C224  1  -0.00820050  0.95873731  0.13389752  1
  C  C225  1  0.50225772  0.28929622  0.13415786  1
  C  C226  1  0.49018106  0.62334521  0.13221044  1
  C  C227  1  0.50659042  0.95963991  0.13041034  1
  C  C228  1  -0.00276632  0.04872461  0.86304163  1
  C  C229  1  0.00415389  0.38078113  0.87352582  1
  C  C230  1  0.01099320  0.70833158  0.87082680  1
  C  C231  1  0.50156335  0.04281686  0.86809287  1
  C  C232  1  0.49440689  0.37860448  0.86556060  1
  C  C233  1  0.50473805  0.71289567  0.86329978  1
  C  C234  1  0.00558572  0.29233160  0.36831110  1
  C  C235  1  -0.00859488  0.62456718  0.36399846  1
  C  C236  1  -0.00500193  0.95412715  0.37191126  1
  C  C237  1  0.50515316  0.28742630  0.37221360  1
  C  C238  1  0.46442772  0.61645056  0.38925724  1
  C  C239  1  0.50478464  0.95539849  0.36658395  1
  C  C240  1  0.24021181  0.21427508  0.63228938  1
  C  C241  1  0.28559804  0.55034466  0.61306438  1
  C  C242  1  0.25185230  0.87662249  0.63031910  1
  C  C243  1  0.74847187  0.20902860  0.62726989  1
  C  C244  1  0.76667206  0.54387753  0.63823514  1
  C  C245  1  0.75384092  0.87774130  0.63244404  1
  C  C246  1  0.25136679  0.12053563  0.13013384  1
  C  C247  1  0.25282112  0.45811766  0.12616586  1
  C  C248  1  0.24257049  0.78532594  0.12975066  1
  C  C249  1  0.74481801  0.11951981  0.13592615  1
  C  C250  1  0.75423023  0.45550298  0.13124200  1
  C  C251  1  0.75015521  0.78658417  0.13257469  1
  C  C252  1  0.24667893  0.20715353  0.87048069  1
  C  C253  1  0.26095799  0.53973819  0.86830039  1
  C  C254  1  0.24509149  0.87904305  0.87083858  1
  C  C255  1  0.75545034  0.20550409  0.87326797  1
  C  C256  1  0.78607754  0.54523360  0.88414231  1
  C  C257  1  0.75989316  0.88106638  0.86752921  1
  C  C258  1  0.24629421  0.12606029  0.36955812  1
  C  C259  1  0.25653117  0.45547547  0.37076134  1
  C  C260  1  0.24325223  0.79026825  0.37349056  1
  C  C261  1  0.74778399  0.12189614  0.36776697  1
  C  C262  1  0.74666123  0.45500014  0.36946183  1
  C  C263  1  0.75138784  0.78653550  0.37037578  1
  C  C264  1  0.67896864  0.23744085  0.54514660  1
  C  C265  1  0.43979070  0.92313086  0.44855086  1
  C  C266  1  0.44150120  0.92891540  0.04764041  1
  C  C267  1  0.49240363  0.58758408  0.48574740  1
  C  C268  1  0.27369758  0.08826110  0.03516694  1
  C  C269  1  0.56539415  0.07345055  0.54881332  1
  C  C270  1  0.67992644  0.76256124  0.45271454  1
  C  C271  1  0.93200232  0.40557731  0.95480683  1
  C  C272  1  0.05171635  0.40552082  0.53874352  1
  C  C273  1  0.71347548  0.42663550  0.03878825  1
  C  C274  1  0.72756252  0.42256744  0.46541511  1
  C  C275  1  0.79492897  0.42772458  0.03749311  1
  C  C276  1  0.23096441  0.75292572  0.46853822  1
  C  C277  1  0.47664457  0.25175675  0.46548004  1
  C  C278  1  0.75887217  0.57762770  0.97940228  1
  C  C279  1  0.03384604  0.27603195  0.03910422  1
  C  C280  1  0.76914267  0.75590971  0.03629895  1
  C  C281  1  0.97084301  0.40636989  0.53150602  1
  C  C282  1  -0.01143713  0.58259516  0.00691794  1
  C  C283  1  0.07371228  0.26629900  0.45190365  1
  C  C284  1  0.26298320  0.58213448  0.51668330  1
  C  C285  1  0.68802606  0.75866021  0.04683736  1
  C  C286  1  0.92655795  0.59680523  0.44848647  1
  C  C287  1  0.46824389  0.74328383  0.53134276  1
  C  C288  1  0.80783444  0.42685766  0.45499336  1
  C  C289  1  0.54379314  0.40893969  0.95350342  1
  C  C290  1  0.95198579  0.27894439  0.03860471  1
  C  C291  1  0.18302906  0.42631763  0.45047305  1
  C  C292  1  0.40953723  0.58995117  0.47968884  1
  C  C293  1  0.75875424  0.75882312  0.46883058  1
  C  C294  1  0.53940485  0.07748523  0.95768947  1
  C  C295  1  0.31067310  0.23947849  0.95306363  1
  C  C296  1  0.00715305  0.59302448  0.46022125  1
  C  C297  1  0.29106277  0.41560338  0.04050056  1
  C  C298  1  0.96827678  0.08070275  0.53377976  1
  C  C299  1  0.51704452  0.26170441  0.03786469  1
  C  C300  1  0.90576065  0.58706546  0.01663943  1
  C  C301  1  0.77340493  0.08543813  0.45964687  1
  C  C302  1  0.73160685  0.90585396  0.53535722  1
  C  C303  1  0.84163191  0.57377682  0.97318184  1
  C  C304  1  0.03007399  0.74846396  0.53692676  1
  C  C305  1  0.42384391  0.59362904  0.05018494  1
  C  C306  1  0.99428511  0.26130756  0.46539158  1
  C  C307  1  0.81209030  0.90363249  0.54485462  1
  C  C308  1  0.34531632  0.57805960  0.52474221  1
  C  C309  1  0.19285512  0.09147970  0.04275969  1
  C  C310  1  0.19140936  0.24191552  0.54285448  1
  C  C311  1  0.00980759  0.41062368  0.96976732  1
  N  N312  1  0.31468697  0.90939958  0.95156174  1
  N  N313  1  0.95307644  0.74642047  0.54024099  1
  N  N314  1  0.96994887  0.07258908  0.95966492  1
  N  N315  1  0.69626972  0.08885426  0.45608628  1
  N  N316  1  0.95615830  0.92880502  0.04056191  1
  N  N317  1  0.04192189  0.74404423  0.96277173  1
  N  N318  1  0.23871570  0.91453112  0.96337008  1
  N  N319  1  0.55333592  0.73883553  0.95405882  1
  N  N320  1  0.51810061  0.91950917  0.45967105  1
  N  N321  1  0.69874933  0.09589720  0.04339473  1
  N  N322  1  0.97795819  0.92119664  0.46709337  1
  N  N323  1  0.50162729  0.58864357  0.03860770  1
  N  N324  1  0.26988683  0.75549634  0.03778213  1
  N  N325  1  0.80182781  0.56826624  0.54363641  1
  N  N326  1  0.78677927  0.89820780  0.96480180  1
  N  N327  1  0.51965824  0.92651615  0.03602897  1
  N  N328  1  0.43915787  0.26226303  0.04828414  1
  N  N329  1  0.27025242  0.24466336  0.53704186  1
  N  N330  1  0.46005960  0.07881532  0.95853247  1
  N  N331  1  0.46492546  0.41103362  0.96024290  1
  N  N332  1  0.20546717  0.90703775  0.54268683  1
  N  N333  1  0.04585208  0.07058591  0.95491383  1
  N  N334  1  0.79921154  0.24242215  0.96154781  1
  N  N335  1  0.22736889  0.57397625  0.95995814  1
  N  N336  1  0.54852195  0.41198142  0.54420067  1
  N  N337  1  0.25170638  0.08929313  0.46169063  1
  N  N338  1  0.23235256  0.24285312  0.96348174  1
  N  N339  1  0.30334321  0.57434238  0.95712628  1
  N  N340  1  0.75612797  0.24197169  0.53274437  1
  N  N341  1  0.04705694  0.07822517  0.53588117  1
  N  N342  1  0.05328573  0.92343737  0.45771664  1
  N  N343  1  0.25939268  0.42290413  0.46558030  1
  N  N344  1  0.77526310  0.09541956  0.03982578  1
  N  N345  1  0.17584609  0.09334958  0.44876590  1
  N  N346  1  0.55487404  0.25691103  0.46003263  1
  N  N347  1  0.71629341  0.24823822  0.95942994  1
  N  N348  1  0.28366831  0.90759830  0.53652905  1
  N  N349  1  0.21387449  0.41752141  0.03735155  1
  N  N350  1  0.48713509  0.07871048  0.53947892  1
  N  N351  1  0.96578228  0.74303961  0.95961717  1
  N  N352  1  0.46626431  0.41219600  0.54337821  1
  N  N353  1  0.72587512  0.57044708  0.54532269  1
  N  N354  1  0.03860241  0.92186543  0.04681434  1
  N  N355  1  0.47744167  0.74253432  0.95824842  1
  N  N356  1  0.19204415  0.75628000  0.04028064  1
  N  N357  1  0.30753952  0.76017535  0.45556912  1
  N  N358  1  0.70525928  0.90010485  0.95705831  1
  N  N359  1  0.54706177  0.74009518  0.53588063  1
  N  N360  1  0.07118276  0.05227297  0.59087577  1
  N  N361  1  0.06493556  0.38912318  0.60039423  1
  N  N362  1  0.06434243  0.72809933  0.58994085  1
  N  N363  1  0.57517815  0.05429415  0.60749760  1
  N  N364  1  0.56913372  0.39549582  0.60245318  1
  N  N365  1  0.56755547  0.72064007  0.59402565  1
  N  N366  1  0.43153784  0.27923710  0.10833580  1
  N  N367  1  0.41646352  0.61374668  0.10864253  1
  N  N368  1  0.43341811  0.94748744  0.10667394  1
  N  N369  1  0.92782319  0.28629061  0.09912693  1
  N  N370  1  0.89692735  0.60850512  0.07779634  1
  N  N371  1  0.93146740  0.95611690  0.09405298  1
  N  N372  1  0.43832001  0.05728972  0.90226134  1
  N  N373  1  0.43577149  0.39189421  0.90475898  1
  N  N374  1  0.44589695  0.72624645  0.90225473  1
  N  N375  1  0.93822838  0.05940903  0.90277233  1
  N  N376  1  0.92879406  0.38763691  0.89533904  1
  N  N377  1  0.94512496  0.72131903  0.90253465  1
  N  N378  1  0.08009614  0.28452205  0.39286448  1
  N  N379  1  0.04591346  0.61024622  0.40719924  1
  N  N380  1  0.06519973  0.94347740  0.39846843  1
  N  N381  1  0.57329918  0.28032536  0.40276456  1
  N  N382  1  0.52399161  0.60392955  0.42923647  1
  N  N383  1  0.55821742  0.94283927  0.41008289  1
  N  N384  1  0.29899129  0.22735602  0.59318273  1
  N  N385  1  0.35670271  0.55863492  0.58589555  1
  N  N386  1  0.31152643  0.89084869  0.59214303  1
  N  N387  1  0.79968459  0.22179938  0.58260776  1
  N  N388  1  0.82882356  0.55069481  0.60051751  1
  N  N389  1  0.82509624  0.88696204  0.60337769  1
  N  N390  1  0.18053434  0.11146146  0.10301475  1
  N  N391  1  0.18973702  0.44449750  0.09178641  1
  N  N392  1  0.17561925  0.77288116  0.09851603  1
  N  N393  1  0.67872578  0.11024670  0.10312494  1
  N  N394  1  0.68901066  0.44314620  0.09548511  1
  N  N395  1  0.67796022  0.77760733  0.10681433  1
  N  N396  1  0.19277544  0.21965935  0.91359334  1
  N  N397  1  0.19964964  0.55240600  0.90523715  1
  N  N398  1  0.19476811  0.89325791  0.91586561  1
  N  N399  1  0.69231254  0.21948027  0.90742156  1
  N  N400  1  0.72701874  0.55969416  0.92389222  1
  N  N401  1  0.69178504  0.87968203  0.89892088  1
  N  N402  1  0.29590388  0.11187305  0.41506623  1
  N  N403  1  0.30570739  0.44450401  0.41749031  1
  N  N404  1  0.31579038  0.78480932  0.39753169  1
  N  N405  1  0.80720356  0.10541229  0.40661231  1
  N  N406  1  0.81879257  0.44599015  0.39702154  1
  N  N407  1  0.80255176  0.77412106  0.41608259  1
  N  N408  1  0.44542656  0.27069853  0.41138427  1
  N  N409  1  0.39481019  0.60763560  0.41854794  1
  N  N410  1  0.43154952  0.94385311  0.39033169  1
  N  N411  1  0.95253238  0.27771780  0.41193300  1
  N  N412  1  0.91829695  0.61626685  0.38871906  1
  N  N413  1  0.94041041  0.94012027  0.41421359  1
  N  N414  1  0.06439791  0.05587078  0.89515944  1
  N  N415  1  0.05420982  0.39551587  0.92029629  1
  N  N416  1  0.07149198  0.72214490  0.90805420  1
  N  N417  1  0.56639661  0.05594313  0.90233325  1
  N  N418  1  0.56319732  0.38969660  0.89555237  1
  N  N419  1  0.57174745  0.72088539  0.89527465  1
  N  N420  1  0.05793559  0.28199133  0.09963903  1
  N  N421  1  0.02454607  0.60082284  0.05897128  1
  N  N422  1  0.05584866  0.93657313  0.10637960  1
  N  N423  1  0.55732561  0.27818777  0.09024508  1
  N  N424  1  0.54252377  0.61019236  0.08828427  1
  N  N425  1  0.55986507  0.94916491  0.08626676  1
  N  N426  1  0.44822896  0.05885422  0.59076309  1
  N  N427  1  0.44294890  0.38084759  0.59375151  1
  N  N428  1  0.43950421  0.72659414  0.58749524  1
  N  N429  1  0.94257232  0.05842284  0.58806057  1
  N  N430  1  0.93655171  0.39079106  0.58514597  1
  N  N431  1  0.93676552  0.72357215  0.59876089  1
  N  N432  1  0.17309030  0.11394396  0.39064041  1
  N  N433  1  0.18092834  0.44479379  0.39129607  1
  N  N434  1  0.19076046  0.77171722  0.41777139  1
  N  N435  1  0.67996160  0.11148153  0.39766929  1
  N  N436  1  0.69019052  0.44051870  0.41079773  1
  N  N437  1  0.67613757  0.77895018  0.39289747  1
  N  N438  1  0.31964056  0.21920922  0.89472348  1
  N  N439  1  0.32604153  0.55266949  0.90085788  1
  N  N440  1  0.31820846  0.88983162  0.89288956  1
  N  N441  1  0.82012230  0.21537555  0.90728850  1
  N  N442  1  0.85587394  0.55342314  0.91318268  1
  N  N443  1  0.81757006  0.89630551  0.90663649  1
  N  N444  1  0.30903233  0.10573482  0.08772940  1
  N  N445  1  0.31799519  0.43973812  0.09419842  1
  N  N446  1  0.30255232  0.77513491  0.09100909  1
  N  N447  1  0.80508219  0.10993009  0.09698428  1
  N  N448  1  0.81890335  0.44577752  0.09636945  1
  N  N449  1  0.80638762  0.77336645  0.09003877  1
  N  N450  1  0.17163151  0.22348690  0.60120366  1
  N  N451  1  0.22830520  0.56498218  0.57184126  1
  N  N452  1  0.18501808  0.88620344  0.59869927  1
  N  N453  1  0.67385054  0.21866393  0.60444670  1
  N  N454  1  0.70276106  0.55662029  0.60414302  1
  N  N455  1  0.69601669  0.88942333  0.59128733  1
  Cl  Cl456  1  0.26277366  0.06258448  0.59975828  1
  Cl  Cl457  1  0.26501071  0.40126559  0.60653070  1
  Cl  Cl458  1  0.25476275  0.72673624  0.61519684  1
  Cl  Cl459  1  0.76010119  0.05481821  0.61828930  1
  Cl  Cl460  1  0.75137762  0.38183106  0.60971832  1
  Cl  Cl461  1  0.75053687  0.72207199  0.61815492  1
  Cl  Cl462  1  0.24055149  0.27034009  0.10793489  1
  Cl  Cl463  1  0.21744232  0.60474682  0.11174501  1
  Cl  Cl464  1  0.23841679  0.94009245  0.10508027  1
  Cl  Cl465  1  0.74048829  0.26607884  0.11097521  1
  Cl  Cl466  1  0.72001827  0.60705787  0.12205172  1
  Cl  Cl467  1  0.74612709  0.93905690  0.10264675  1
  Cl  Cl468  1  0.25067057  0.05554001  0.87569931  1
  Cl  Cl469  1  0.24690922  0.39063144  0.88238684  1
  Cl  Cl470  1  0.26029989  0.72573219  0.89068691  1
  Cl  Cl471  1  0.75312714  0.04831944  0.88405252  1
  Cl  Cl472  1  0.74433347  0.38056518  0.87424954  1
  Cl  Cl473  1  0.76066334  0.71701957  0.88532133  1
  Cl  Cl474  1  0.26471673  0.28130972  0.37350153  1
  Cl  Cl475  1  0.22318159  0.62345174  0.37560297  1
  Cl  Cl476  1  0.24681847  0.94672100  0.37678105  1
  Cl  Cl477  1  0.76454314  0.27231362  0.39402365  1
  Cl  Cl478  1  0.70991704  0.61058485  0.38543573  1
  Cl  Cl479  1  0.74569913  0.93944207  0.38554841  1
  Cl  Cl480  1  -0.01804499  0.22261053  0.61635228  1
  Cl  Cl481  1  0.02292401  0.55705244  0.60706174  1
  Cl  Cl482  1  0.00732298  0.88431853  0.63355796  1
  Cl  Cl483  1  0.48742433  0.22388314  0.61376194  1
  Cl  Cl484  1  0.52678423  0.54319389  0.62989751  1
  Cl  Cl485  1  0.50377449  0.89004045  0.60173564  1
  Cl  Cl486  1  -0.00982033  0.11248142  0.12195354  1
  Cl  Cl487  1  0.00508942  0.45774756  0.11005332  1
  Cl  Cl488  1  -0.00726454  0.78733133  0.11927282  1
  Cl  Cl489  1  0.49497849  0.11041495  0.12290069  1
  Cl  Cl490  1  0.50364092  0.44734967  0.12854520  1
  Cl  Cl491  1  0.48578341  0.78109277  0.11690637  1
  Cl  Cl492  1  0.00702267  0.22964439  0.88880566  1
  Cl  Cl493  1  0.02694475  0.55251932  0.87446756  1
  Cl  Cl494  1  0.00463570  0.89542899  0.90316354  1
  Cl  Cl495  1  0.51098882  0.22699372  0.88311133  1
  Cl  Cl496  1  0.53801433  0.55968177  0.90177842  1
  Cl  Cl497  1  0.51154989  0.89715957  0.88223421  1
  Cl  Cl498  1  -0.01002051  0.10935254  0.38597864  1
  Cl  Cl499  1  0.00015235  0.44486445  0.37275296  1
  Cl  Cl500  1  0.00076478  0.77190826  0.38794752  1
  Cl  Cl501  1  0.47926864  0.10739810  0.40006701  1
  Cl  Cl502  1  0.49254290  0.43542948  0.40128458  1
  Cl  Cl503  1  0.49427411  0.77280225  0.38107204  1
  Cl  Cl504  1  0.36290930  0.15029404  0.75504691  1
  Cl  Cl505  1  0.37613302  0.48037225  0.74929380  1
  Cl  Cl506  1  0.37178931  0.81424285  0.75886317  1
  Cl  Cl507  1  0.86217109  0.15352372  0.75613177  1
  Cl  Cl508  1  0.87082232  0.48003018  0.75890897  1
  Cl  Cl509  1  0.86379408  0.81946554  0.75016482  1
  Cl  Cl510  1  0.13076698  0.18668653  0.25265441  1
  Cl  Cl511  1  0.13940919  0.51493956  0.25433420  1
  Cl  Cl512  1  0.14062079  0.84862483  0.24733994  1
  Cl  Cl513  1  0.63009568  0.19119488  0.26881952  1
  Cl  Cl514  1  0.63603633  0.51225747  0.25042497  1
  Cl  Cl515  1  0.62743850  0.84974323  0.24987543  1
  Cl  Cl516  1  0.14194511  0.14537338  0.74429714  1
  Cl  Cl517  1  0.15965973  0.49332592  0.73636471  1
  Cl  Cl518  1  0.15210278  0.81484662  0.75019555  1
  Cl  Cl519  1  0.64049163  0.14705822  0.74450944  1
  Cl  Cl520  1  0.65589429  0.48337582  0.75688005  1
  Cl  Cl521  1  0.64041592  0.81240472  0.76083750  1
  Cl  Cl522  1  0.35463371  0.18402064  0.24469892  1
  Cl  Cl523  1  0.35915418  0.52295358  0.25275882  1
  Cl  Cl524  1  0.36063392  0.85464701  0.25779237  1
  Cl  Cl525  1  0.85436675  0.18356383  0.24811862  1
  Cl  Cl526  1  0.85787510  0.52203571  0.25699844  1
  Cl  Cl527  1  0.85139455  0.85122898  0.24879596  1
  Cl  Cl528  1  0.11953639  0.31709248  0.73414018  1
  Cl  Cl529  1  0.11513353  0.65351508  0.74743866  1
  Cl  Cl530  1  0.11883700  0.98058866  0.74799064  1
  Cl  Cl531  1  0.61379624  0.31529688  0.74306399  1
  Cl  Cl532  1  0.62185745  0.64788356  0.74937138  1
  Cl  Cl533  1  0.62058059  0.98055690  0.74313482  1
  Cl  Cl534  1  0.38835041  0.01709159  0.24826922  1
  Cl  Cl535  1  0.38823611  0.34859747  0.24347585  1
  Cl  Cl536  1  0.38093462  0.68514769  0.25388643  1
  Cl  Cl537  1  0.88164846  0.01567002  0.25067274  1
  Cl  Cl538  1  0.88749104  0.35104800  0.24722180  1
  Cl  Cl539  1  0.88083078  0.68546006  0.24372404  1
  Cl  Cl540  1  0.38839040  0.31438949  0.74886706  1
  Cl  Cl541  1  0.40150979  0.64551113  0.74510917  1
  Cl  Cl542  1  0.39609400  0.98087596  0.74899585  1
  Cl  Cl543  1  0.89897220  0.31768548  0.75496151  1
  Cl  Cl544  1  0.89492497  0.64575851  0.74697082  1
  Cl  Cl545  1  0.89736315  0.98271323  0.74691870  1
  Cl  Cl546  1  0.10627831  0.01781100  0.25218278  1
  Cl  Cl547  1  0.11044736  0.35446863  0.25140142  1
  Cl  Cl548  1  0.09494565  0.67894017  0.23411646  1
  Cl  Cl549  1  0.61116500  0.02425511  0.25092635  1
  Cl  Cl550  1  0.60977221  0.35278467  0.26046682  1
  Cl  Cl551  1  0.59999607  0.68256262  0.24849987  1
