# generated using pymatgen
data_H8PbC4(N3Cl2)2
_symmetry_space_group_name_H-M   'P 1'
_cell_length_a   16.62632648
_cell_length_b   22.51081617
_cell_length_c   21.59333170
_cell_angle_alpha   90.00139715
_cell_angle_beta   89.98476995
_cell_angle_gamma   90.00413858
_symmetry_Int_Tables_number   1
_chemical_formula_structural   H8PbC4(N3Cl2)2
_chemical_formula_sum   'H192 Pb24 C96 N144 Cl96'
_cell_volume   8081.78299836
_cell_formula_units_Z   24
loop_
 _symmetry_equiv_pos_site_id
 _symmetry_equiv_pos_as_xyz
  1  'x, y, z'
loop_
 _atom_site_type_symbol
 _atom_site_label
 _atom_site_symmetry_multiplicity
 _atom_site_fract_x
 _atom_site_fract_y
 _atom_site_fract_z
 _atom_site_occupancy
  H  H0  1  -0.01205363  0.02966067  0.68211307  1
  H  H1  1  -0.00598363  0.36666215  0.68135426  1
  H  H2  1  -0.00975229  0.69672437  0.67668137  1
  H  H3  1  0.51572514  0.03097703  0.67406818  1
  H  H4  1  0.49922406  0.36274546  0.68245284  1
  H  H5  1  0.50196957  0.69480749  0.67986603  1
  H  H6  1  -0.01759025  0.30267207  0.17694987  1
  H  H7  1  -0.00930258  0.63986779  0.17729360  1
  H  H8  1  0.00061099  0.97096870  0.17712215  1
  H  H9  1  0.51604688  0.30168224  0.18070991  1
  H  H10  1  0.50085462  0.63903003  0.18031203  1
  H  H11  1  0.49274612  0.96640013  0.17992473  1
  H  H12  1  -0.00561479  0.02795628  0.82440217  1
  H  H13  1  -0.01296092  0.36447451  0.82163458  1
  H  H14  1  -0.00758309  0.69791438  0.82388187  1
  H  H15  1  0.50301770  0.03087064  0.81798389  1
  H  H16  1  0.51013991  0.36571333  0.82105980  1
  H  H17  1  0.51358469  0.69911091  0.82579241  1
  H  H18  1  -0.00883726  0.30218777  0.31820207  1
  H  H19  1  0.00972812  0.63682285  0.32355553  1
  H  H20  1  0.00784431  0.96643471  0.31908824  1
  H  H21  1  0.50994471  0.30338238  0.31872083  1
  H  H22  1  0.50068985  0.63474727  0.32072710  1
  H  H23  1  0.50263575  0.97337799  0.31843753  1
  H  H24  1  0.23765244  0.19375317  0.67854857  1
  H  H25  1  0.24903257  0.52885123  0.67885056  1
  H  H26  1  0.24615078  0.86386844  0.68220860  1
  H  H27  1  0.75812872  0.19749051  0.67969494  1
  H  H28  1  0.74422653  0.53294569  0.67833922  1
  H  H29  1  0.74991041  0.86230779  0.68066810  1
  H  H30  1  0.26499121  0.13714459  0.17558392  1
  H  H31  1  0.24282984  0.46948973  0.17770650  1
  H  H32  1  0.23909183  0.80157488  0.17583771  1
  H  H33  1  0.73412192  0.13327880  0.18156076  1
  H  H34  1  0.75316256  0.47063297  0.17747845  1
  H  H35  1  0.75038815  0.80226031  0.17287111  1
  H  H36  1  0.25201354  0.19944506  0.82020844  1
  H  H37  1  0.25203542  0.53156626  0.82093892  1
  H  H38  1  0.25287124  0.86125788  0.82032054  1
  H  H39  1  0.74779157  0.19707243  0.81976302  1
  H  H40  1  0.74102070  0.53137387  0.82101577  1
  H  H41  1  0.75511692  0.86058586  0.82140894  1
  H  H42  1  0.24200063  0.13637418  0.31712690  1
  H  H43  1  0.23622091  0.47017210  0.32392165  1
  H  H44  1  0.25791349  0.80054683  0.31900137  1
  H  H45  1  0.75644764  0.13375659  0.32014587  1
  H  H46  1  0.75716448  0.47295526  0.32072533  1
  H  H47  1  0.75267236  0.80361093  0.32061970  1
  H  H48  1  0.12293270  0.05134757  0.62412240  1
  H  H49  1  0.12900111  0.38470039  0.61832896  1
  H  H50  1  0.12472846  0.71551670  0.61959122  1
  H  H51  1  0.61826063  0.05974436  0.58921776  1
  H  H52  1  0.62462015  0.38771142  0.61142704  1
  H  H53  1  0.62716741  0.71786696  0.61052074  1
  H  H54  1  0.37310541  0.28589833  0.13224666  1
  H  H55  1  0.37690095  0.61432928  0.10810199  1
  H  H56  1  0.38059286  0.94181755  0.09884261  1
  H  H57  1  0.88276278  0.27372697  0.08894791  1
  H  H58  1  0.87670918  0.61212699  0.09761759  1
  H  H59  1  0.87774364  0.94414300  0.10654687  1
  H  H60  1  0.38054114  0.05537879  0.88907489  1
  H  H61  1  0.37694474  0.38439520  0.88305413  1
  H  H62  1  0.37379003  0.71461445  0.87747493  1
  H  H63  1  0.88090173  0.05588746  0.90347822  1
  H  H64  1  0.88432146  0.39359095  0.90865584  1
  H  H65  1  0.87056212  0.72399421  0.89585164  1
  H  H66  1  0.11979542  0.28539999  0.38661565  1
  H  H67  1  0.11493672  0.60848761  0.40836747  1
  H  H68  1  0.11714841  0.94140192  0.40003233  1
  H  H69  1  0.62135251  0.27633154  0.39891442  1
  H  H70  1  0.61768928  0.61320422  0.39499640  1
  H  H71  1  0.62243187  0.94919957  0.39297416  1
  H  H72  1  0.37618033  0.21526541  0.62316989  1
  H  H73  1  0.37963095  0.55145466  0.61381877  1
  H  H74  1  0.37980827  0.88429085  0.62240955  1
  H  H75  1  0.87563780  0.22520949  0.60501642  1
  H  H76  1  0.88180915  0.55222768  0.62227823  1
  H  H77  1  0.88005151  0.88438112  0.61312245  1
  H  H78  1  0.12019921  0.11738151  0.13097824  1
  H  H79  1  0.12251117  0.44313739  0.10338789  1
  H  H80  1  0.12916998  0.77754941  0.09506165  1
  H  H81  1  0.62638491  0.11001563  0.09721538  1
  H  H82  1  0.61940084  0.44571639  0.11859631  1
  H  H83  1  0.62680281  0.77958727  0.10440304  1
  H  H84  1  0.12289798  0.22030131  0.88622348  1
  H  H85  1  0.12342947  0.55498102  0.88855633  1
  H  H86  1  0.11849716  0.88340865  0.88276022  1
  H  H87  1  0.62449425  0.22261310  0.88949126  1
  H  H88  1  0.62264310  0.55626055  0.89804004  1
  H  H89  1  0.62320636  0.88179970  0.88606517  1
  H  H90  1  0.37586829  0.11538037  0.37951221  1
  H  H91  1  0.37256323  0.45333898  0.37999989  1
  H  H92  1  0.37126587  0.77623071  0.39650288  1
  H  H93  1  0.86811210  0.11054852  0.39928028  1
  H  H94  1  0.87019717  0.44318386  0.39963649  1
  H  H95  1  0.87275321  0.77762520  0.39546325  1
  H  H96  1  0.37408426  0.28380438  0.37966811  1
  H  H97  1  0.36969992  0.61532842  0.38374802  1
  H  H98  1  0.37337240  0.94750173  0.38501015  1
  H  H99  1  0.87228485  0.27449610  0.39148628  1
  H  H100  1  0.87009245  0.61645624  0.37896738  1
  H  H101  1  0.86958289  0.94992418  0.37741741  1
  H  H102  1  0.12764226  0.05277022  0.88603299  1
  H  H103  1  0.12754171  0.38219918  0.87438694  1
  H  H104  1  0.11993507  0.72076844  0.89213585  1
  H  H105  1  0.62852335  0.05111332  0.88827093  1
  H  H106  1  0.62418290  0.39147605  0.90150880  1
  H  H107  1  0.61815960  0.72501752  0.90877116  1
  H  H108  1  0.12519012  0.28332285  0.13043624  1
  H  H109  1  0.12334903  0.61614338  0.11598214  1
  H  H110  1  0.12671000  0.94489429  0.10861324  1
  H  H111  1  0.61664852  0.27658966  0.09465691  1
  H  H112  1  0.62534049  0.61586054  0.10765672  1
  H  H113  1  0.62856829  0.94693846  0.12150581  1
  H  H114  1  0.37503993  0.04858774  0.62587737  1
  H  H115  1  0.37571125  0.38636022  0.61181507  1
  H  H116  1  0.37791686  0.71947015  0.60790048  1
  H  H117  1  0.87492645  0.05775227  0.60239819  1
  H  H118  1  0.88069619  0.39232843  0.60235149  1
  H  H119  1  0.87790416  0.72364581  0.59824684  1
  H  H120  1  0.12882485  0.11117907  0.39911119  1
  H  H121  1  0.12633806  0.44282436  0.40240095  1
  H  H122  1  0.12263755  0.78259125  0.37962118  1
  H  H123  1  0.62044246  0.11553568  0.37823824  1
  H  H124  1  0.62203662  0.45213573  0.37955816  1
  H  H125  1  0.62350184  0.78015269  0.38688397  1
  H  H126  1  0.37178260  0.22215086  0.89247075  1
  H  H127  1  0.37296274  0.55583561  0.89321442  1
  H  H128  1  0.36704708  0.88605066  0.89954331  1
  H  H129  1  0.87244378  0.21796648  0.89042325  1
  H  H130  1  0.87080894  0.55401700  0.88656424  1
  H  H131  1  0.87129265  0.88709489  0.89742150  1
  H  H132  1  0.36203715  0.10669005  0.08644898  1
  H  H133  1  0.37166531  0.44623006  0.11312925  1
  H  H134  1  0.37529902  0.78288986  0.12107957  1
  H  H135  1  0.87275718  0.11463160  0.12465866  1
  H  H136  1  0.86705243  0.44384221  0.09867925  1
  H  H137  1  0.87598131  0.78133053  0.10531251  1
  H  H138  1  0.13168894  0.22343629  0.59375149  1
  H  H139  1  0.13077579  0.55415484  0.60250580  1
  H  H140  1  0.13155365  0.88603400  0.60442004  1
  H  H141  1  0.62819230  0.21458943  0.61346451  1
  H  H142  1  0.63411132  0.55783338  0.59845445  1
  H  H143  1  0.63187052  0.89000795  0.60491440  1
  H  H144  1  0.31204624  0.74691679  0.50396630  1
  H  H145  1  0.38742451  0.08162921  0.51036633  1
  H  H146  1  0.57350906  0.05791068  0.99542055  1
  H  H147  1  0.80918134  0.27123368  0.51313180  1
  H  H148  1  0.55234881  0.24890336  0.50440352  1
  H  H149  1  0.09540710  0.08252618  0.51167081  1
  H  H150  1  0.53984248  0.25134202  -0.00956631  1
  H  H151  1  0.94137966  0.07696685  0.49898797  1
  H  H152  1  0.33677705  0.41428582  0.00268954  1
  H  H153  1  0.32535832  0.25220006  1.00249873  1
  H  H154  1  0.68452067  0.59037657  0.99799786  1
  H  H155  1  0.89066293  0.58768177  0.48908759  1
  H  H156  1  0.10298826  0.74855057  0.50585388  1
  H  H157  1  0.94313508  0.58627000  -0.00320606  1
  H  H158  1  0.04965057  0.91094885  0.50560390  1
  H  H159  1  0.80439437  0.08339443  0.50783426  1
  H  H160  1  0.09414036  0.08108222  0.99420956  1
  H  H161  1  0.42075015  0.41810765  0.50386512  1
  H  H162  1  0.06666579  0.28702808  0.49384458  1
  H  H163  1  0.64939555  0.42004377  0.49095486  1
  H  H164  1  0.32279889  0.58861887  1.00103173  1
  H  H165  1  0.80371514  0.42351722  0.50348889  1
  H  H166  1  0.34436950  0.58222497  0.50381458  1
  H  H167  1  0.27786560  0.08154926  -0.00962811  1
  H  H168  1  0.96402868  0.25479691  -0.00900183  1
  H  H169  1  0.66403069  0.74811978  0.49591251  1
  H  H170  1  0.19064418  0.91262477  0.49583807  1
  H  H171  1  0.94676714  0.41979094  0.49583820  1
  H  H172  1  0.35831984  0.74991015  0.00604131  1
  H  H173  1  0.80038761  0.41729270  -0.00410254  1
  H  H174  1  0.69992437  0.08427472  -0.00697543  1
  H  H175  1  0.81430334  0.22019392  0.99748762  1
  H  H176  1  0.11864597  0.25137262  0.01632495  1
  H  H177  1  0.96558098  0.41932915  1.00641288  1
  H  H178  1  0.93913695  0.22571296  0.48197792  1
  H  H179  1  0.89558511  0.91720514  0.48442018  1
  H  H180  1  0.17549560  0.41376148  0.00107182  1
  H  H181  1  0.20978755  0.24877185  0.49497385  1
  H  H182  1  0.35158007  0.91255464  0.50924594  1
  H  H183  1  0.44756074  0.90650329  0.00019196  1
  H  H184  1  0.69881368  0.58823645  0.49240917  1
  H  H185  1  0.56684434  0.91907387  0.50000950  1
  H  H186  1  0.68327695  0.27332098  0.98185503  1
  H  H187  1  0.67868917  0.21584109  0.50490683  1
  H  H188  1  0.30165109  0.91376148  1.00554466  1
  H  H189  1  0.60238984  0.91420752  0.00979724  1
  H  H190  1  0.43774747  0.10320298  0.98268179  1
  H  H191  1  0.16496309  0.58766193  0.99245089  1
  Pb  Pb192  1  0.25002520  0.04691462  0.75826362  1
  Pb  Pb193  1  0.25324598  0.37826206  0.75192086  1
  Pb  Pb194  1  0.25064710  0.71308589  0.74960460  1
  Pb  Pb195  1  0.75179329  0.04603599  0.74836970  1
  Pb  Pb196  1  0.74990008  0.38606135  0.75208139  1
  Pb  Pb197  1  0.74958072  0.71277699  0.75066933  1
  Pb  Pb198  1  0.24778264  0.28853329  0.25947080  1
  Pb  Pb199  1  0.24746394  0.61976515  0.24972859  1
  Pb  Pb200  1  0.24953348  0.94871162  0.24865483  1
  Pb  Pb201  1  0.74879066  0.28152653  0.24415453  1
  Pb  Pb202  1  0.74853998  0.62029770  0.24364272  1
  Pb  Pb203  1  0.74841256  0.95430066  0.24883972  1
  Pb  Pb204  1  -0.00166144  0.21579969  0.74433186  1
  Pb  Pb205  1  0.00611250  0.54877497  0.75384233  1
  Pb  Pb206  1  0.00040916  0.87889187  0.74679893  1
  Pb  Pb207  1  0.50302146  0.21233503  0.75200550  1
  Pb  Pb208  1  0.49641136  0.54773934  0.75009880  1
  Pb  Pb209  1  0.50049453  0.88078480  0.75529276  1
  Pb  Pb210  1  0.00308603  0.11756504  0.26414817  1
  Pb  Pb211  1  -0.00259994  0.45296680  0.25023377  1
  Pb  Pb212  1  -0.00359874  0.78688254  0.24911223  1
  Pb  Pb213  1  0.49363091  0.11923419  0.23171142  1
  Pb  Pb214  1  0.49820175  0.45414365  0.25084135  1
  Pb  Pb215  1  0.50133142  0.78615373  0.25334901  1
  C  C216  1  -0.00513592  0.04494691  0.63459450  1
  C  C217  1  0.00160199  0.38106394  0.63374284  1
  C  C218  1  -0.00159022  0.71212710  0.62955787  1
  C  C219  1  0.50195925  0.04619688  0.62767024  1
  C  C220  1  0.50010452  0.37884267  0.63507542  1
  C  C221  1  0.50203837  0.71035230  0.63252956  1
  C  C222  1  -0.00313199  0.28760358  0.13036715  1
  C  C223  1  -0.00353813  0.62319572  0.13036490  1
  C  C224  1  0.00197091  0.95369323  0.13046256  1
  C  C225  1  0.50188581  0.28801298  0.13383329  1
  C  C226  1  0.50101628  0.62365635  0.13265095  1
  C  C227  1  0.50050512  0.95157031  0.13228580  1
  C  C228  1  0.00153811  0.04483308  0.87108933  1
  C  C229  1  -0.00071589  0.37966320  0.86840713  1
  C  C230  1  -0.00550174  0.71407569  0.87096183  1
  C  C231  1  0.50411565  0.04576135  0.86585506  1
  C  C232  1  0.50409841  0.38002221  0.86864676  1
  C  C233  1  0.50135106  0.71316892  0.87281533  1
  C  C234  1  -0.00534570  0.28757417  0.36607743  1
  C  C235  1  -0.00223976  0.62141543  0.37027093  1
  C  C236  1  -0.00253549  0.95236969  0.36668244  1
  C  C237  1  0.50149363  0.28812608  0.36589534  1
  C  C238  1  0.49584501  0.62123088  0.36873205  1
  C  C239  1  0.49925829  0.95681563  0.36561874  1
  C  C240  1  0.24811441  0.20974855  0.63182698  1
  C  C241  1  0.25311445  0.54425054  0.63139314  1
  C  C242  1  0.25286778  0.87829343  0.63446211  1
  C  C243  1  0.75394956  0.21252249  0.63198101  1
  C  C244  1  0.75310119  0.54744500  0.63092840  1
  C  C245  1  0.75407369  0.87850818  0.63335932  1
  C  C246  1  0.24927805  0.12122910  0.12966768  1
  C  C247  1  0.24520976  0.45313665  0.13034980  1
  C  C248  1  0.24861519  0.78699615  0.12852684  1
  C  C249  1  0.74447261  0.11943424  0.13407871  1
  C  C250  1  0.74673827  0.45462072  0.13056305  1
  C  C251  1  0.75114953  0.78712619  0.12500495  1
  C  C252  1  0.24939839  0.21389348  0.86804716  1
  C  C253  1  0.24883764  0.54745202  0.86846072  1
  C  C254  1  0.24600401  0.87701049  0.86751915  1
  C  C255  1  0.74833882  0.21276533  0.86732297  1
  C  C256  1  0.74455047  0.54709196  0.86839209  1
  C  C257  1  0.74942531  0.87639236  0.86845205  1
  C  C258  1  0.24857942  0.12125432  0.36452941  1
  C  C259  1  0.24533840  0.45499837  0.37107167  1
  C  C260  1  0.25097840  0.78626151  0.36665567  1
  C  C261  1  0.74853336  0.11990763  0.36778883  1
  C  C262  1  0.75014380  0.45677585  0.36797943  1
  C  C263  1  0.74964842  0.78729498  0.36780783  1
  C  C264  1  0.43742695  0.07260268  0.54188156  1
  C  C265  1  0.73190351  0.57542032  0.53383390  1
  C  C266  1  0.97275683  0.74209536  0.53441847  1
  C  C267  1  0.96056004  0.74563174  0.96274368  1
  C  C268  1  0.26969398  0.90418202  0.96269868  1
  C  C269  1  0.43295687  0.26574047  0.04939255  1
  C  C270  1  0.79258543  0.76026593  0.03372847  1
  C  C271  1  0.05384767  0.73918271  0.54001940  1
  C  C272  1  0.51754636  0.74082656  0.96921757  1
  C  C273  1  0.19558341  0.76178484  0.45598355  1
  C  C274  1  0.54154000  0.73833800  0.54020496  1
  C  C275  1  0.69128489  0.09573233  0.45652244  1
  C  C276  1  0.05052378  0.07259608  0.54688914  1
  C  C277  1  0.72795609  0.09409379  0.03736870  1
  C  C278  1  0.53062118  0.92929903  0.45939916  1
  C  C279  1  0.22463776  0.90322188  0.53769444  1
  C  C280  1  0.51260709  0.26238009  0.03484761  1
  C  C281  1  0.29828396  0.57107784  0.54064776  1
  C  C282  1  0.22256144  0.42477001  0.46555054  1
  C  C283  1  0.06582017  0.25960615  0.04826626  1
  C  C284  1  0.30316229  0.42839514  0.45805754  1
  C  C285  1  0.45360268  0.40485494  0.95892353  1
  C  C286  1  0.22568891  0.75847853  0.03268383  1
  C  C287  1  0.69469807  0.42876192  0.45564469  1
  C  C288  1  0.96664694  0.92214782  0.03892927  1
  C  C289  1  0.51770631  0.07612673  0.53084771  1
  C  C290  1  0.28555500  0.57613354  0.96177516  1
  C  C291  1  0.71228691  0.75951938  0.03332161  1
  C  C292  1  0.17807912  0.09431399  0.04771112  1
  C  C293  1  0.44615307  0.59727088  0.45955134  1
  C  C294  1  0.29260307  0.42493400  0.03948771  1
  C  C295  1  0.77798750  0.90676129  0.96234315  1
  C  C296  1  0.02005153  0.92396919  0.46273627  1
  C  C297  1  0.55686857  0.92519585  0.04431003  1
  C  C298  1  0.28371814  0.24065828  0.96392610  1
  C  C299  1  0.52703790  0.59665226  0.46366006  1
  C  C300  1  0.70693869  0.75907306  0.45864088  1
  C  C301  1  0.52240373  0.25976123  0.46107279  1
  C  C302  1  0.77216333  0.09385064  0.46535128  1
  C  C303  1  0.97821906  0.40750308  0.53818431  1
  C  C304  1  0.81261444  0.57278145  0.54342792  1
  C  C305  1  0.69176010  0.42316923  0.04283210  1
  C  C306  1  0.30672793  0.75990135  0.04001056  1
  C  C307  1  0.43752017  0.73719580  0.95902272  1
  C  C308  1  0.20211867  0.23874006  0.96020711  1
  C  C309  1  0.30626630  0.90273103  0.54415493  1
  C  C310  1  0.46283458  0.40691666  0.54253450  1
  C  C311  1  0.27650189  0.75882441  0.46359802  1
  N  N312  1  0.21281655  0.42437454  0.03740609  1
  N  N313  1  0.46462851  0.06911653  0.95875094  1
  N  N314  1  0.19098714  0.90460383  0.95673432  1
  N  N315  1  0.77023857  0.42411532  0.03685071  1
  N  N316  1  0.54223380  0.40694561  0.54173188  1
  N  N317  1  0.78620322  0.75760171  0.46194255  1
  N  N318  1  0.94140744  0.92733367  0.45379284  1
  N  N319  1  0.20586222  0.57411960  0.95955197  1
  N  N320  1  0.97116113  0.07508841  0.54057718  1
  N  N321  1  0.05705580  0.40360796  0.54300220  1
  N  N322  1  0.70747983  0.23694070  0.95997784  1
  N  N323  1  0.98784536  0.25620437  0.03506308  1
  N  N324  1  0.94034078  0.59588265  0.45575657  1
  N  N325  1  0.97329574  0.59224266  0.03778460  1
  N  N326  1  0.97267042  0.07531188  0.96556027  1
  N  N327  1  0.46285474  0.59525346  0.03951531  1
  N  N328  1  0.44373690  0.26165455  0.45453348  1
  N  N329  1  0.71661915  0.57466090  0.96102912  1
  N  N330  1  0.79938077  0.90575652  0.54183977  1
  N  N331  1  0.53957263  0.59608061  0.03932615  1
  N  N332  1  0.05032557  0.07416607  0.95852014  1
  N  N333  1  0.98882876  0.40762855  0.96340959  1
  N  N334  1  0.21921501  0.57222560  0.53600893  1
  N  N335  1  0.72293195  0.90805438  0.53909315  1
  N  N336  1  0.78771694  0.23517202  0.53717820  1
  N  N337  1  0.29938629  0.09524413  0.45439328  1
  N  N338  1  0.53062672  0.40701866  0.96609098  1
  N  N339  1  0.95884850  0.26390015  0.46065106  1
  N  N340  1  0.46393239  0.73950830  0.53849304  1
  N  N341  1  0.45149238  0.92841589  0.45704612  1
  N  N342  1  0.70533184  0.23723240  0.54165811  1
  N  N343  1  0.80627411  0.09544280  0.04632998  1
  N  N344  1  0.54602501  0.07438156  0.95650081  1
  N  N345  1  0.25508853  0.09072690  0.03418799  1
  N  N346  1  0.23372985  0.24133649  0.53846157  1
  N  N347  1  0.78987465  0.23997702  0.95891552  1
  N  N348  1  0.31068994  0.23847634  0.54695859  1
  N  N349  1  0.01701029  0.59309708  0.46682832  1
  N  N350  1  0.70062990  0.90517717  0.95957494  1
  N  N351  1  0.03788245  0.74435991  0.96304180  1
  N  N352  1  0.22330933  0.09394698  0.46066467  1
  N  N353  1  0.06556444  0.40333610  0.95335757  1
  N  N354  1  0.05138664  0.59510698  0.04198026  1
  N  N355  1  0.77398961  0.42519540  0.46174559  1
  N  N356  1  0.04202559  0.26382807  0.45740653  1
  N  N357  1  0.79473081  0.57441371  0.95865825  1
  N  N358  1  0.47778218  0.92471964  0.03711158  1
  N  N359  1  0.04401805  0.92233103  0.03824228  1
  N  N360  1  0.06525161  0.05547952  0.60560263  1
  N  N361  1  0.06974946  0.38804902  0.60283427  1
  N  N362  1  0.06811701  0.72064247  0.60058184  1
  N  N363  1  0.55658447  0.06016661  0.58248345  1
  N  N364  1  0.56395881  0.38943296  0.60007955  1
  N  N365  1  0.56726046  0.72116710  0.59718423  1
  N  N366  1  0.42750169  0.28084320  0.10923835  1
  N  N367  1  0.43785892  0.61245705  0.09712241  1
  N  N368  1  0.44297524  0.93930381  0.09201291  1
  N  N369  1  0.94522967  0.27758459  0.08490467  1
  N  N370  1  0.93846050  0.61177417  0.09030266  1
  N  N371  1  0.93801959  0.94109436  0.09434689  1
  N  N372  1  0.44114120  0.06159078  0.89932681  1
  N  N373  1  0.43497272  0.38849606  0.89994847  1
  N  N374  1  0.42857788  0.72052395  0.89933891  1
  N  N375  1  0.94257585  0.05751019  0.91084370  1
  N  N376  1  0.94685765  0.39252035  0.91233806  1
  N  N377  1  0.93102881  0.72717376  0.90745556  1
  N  N378  1  0.05993003  0.28682664  0.40087575  1
  N  N379  1  0.05256183  0.60876563  0.41336918  1
  N  N380  1  0.05533754  0.94006703  0.40885217  1
  N  N381  1  0.55961506  0.27552614  0.40698429  1
  N  N382  1  0.55734733  0.61105508  0.40804978  1
  N  N383  1  0.56135172  0.94625995  0.40361828  1
  N  N384  1  0.31915011  0.22016684  0.60554639  1
  N  N385  1  0.32035851  0.55409456  0.59888709  1
  N  N386  1  0.32229163  0.88746466  0.60435155  1
  N  N387  1  0.81436262  0.22986380  0.59643121  1
  N  N388  1  0.82488122  0.55621130  0.60259137  1
  N  N389  1  0.82001400  0.88757124  0.60030202  1
  N  N390  1  0.17417634  0.11190642  0.10743926  1
  N  N391  1  0.18370781  0.44217340  0.09328233  1
  N  N392  1  0.19067488  0.77484054  0.08583978  1
  N  N393  1  0.68810823  0.10891975  0.09079985  1
  N  N394  1  0.67706760  0.44138980  0.10096185  1
  N  N395  1  0.68620395  0.77574428  0.08906836  1
  N  N396  1  0.18180425  0.22289769  0.90210167  1
  N  N397  1  0.18350503  0.55721294  0.90173842  1
  N  N398  1  0.17794282  0.88748357  0.89764978  1
  N  N399  1  0.68511845  0.22947355  0.90005451  1
  N  N400  1  0.68440326  0.55927227  0.90638125  1
  N  N401  1  0.68258243  0.88583637  0.89989430  1
  N  N402  1  0.31655636  0.11152553  0.39497167  1
  N  N403  1  0.31644788  0.44664654  0.39992577  1
  N  N404  1  0.31000023  0.77430633  0.40643113  1
  N  N405  1  0.80702900  0.10914537  0.40869631  1
  N  N406  1  0.80811706  0.44578600  0.40837588  1
  N  N407  1  0.81106725  0.77514395  0.40489200  1
  N  N408  1  0.43250561  0.27951868  0.39532132  1
  N  N409  1  0.42755001  0.61224741  0.40120861  1
  N  N410  1  0.43345622  0.94559954  0.39815606  1
  N  N411  1  0.93370462  0.27021889  0.40089398  1
  N  N412  1  0.92743316  0.61331521  0.39734585  1
  N  N413  1  0.92772085  0.94419004  0.39451786  1
  N  N414  1  0.06908008  0.05508258  0.90139458  1
  N  N415  1  0.07137297  0.38685789  0.89399910  1
  N  N416  1  0.05930688  0.72457682  0.90459461  1
  N  N417  1  0.56824056  0.04980671  0.90183348  1
  N  N418  1  0.56240619  0.39116486  0.90843978  1
  N  N419  1  0.55634852  0.72632212  0.91667401  1
  N  N420  1  0.07079375  0.27701218  0.10780710  1
  N  N421  1  0.06479302  0.61206085  0.10051293  1
  N  N422  1  0.06631706  0.94199560  0.09660924  1
  N  N423  1  0.55471571  0.27636863  0.08892342  1
  N  N424  1  0.56430629  0.61374293  0.09693310  1
  N  N425  1  0.57114511  0.94292650  0.10295416  1
  N  N426  1  0.42932567  0.05397998  0.60305135  1
  N  N427  1  0.43597212  0.38998627  0.59946910  1
  N  N428  1  0.43919637  0.72160403  0.59712594  1
  N  N429  1  0.93697204  0.05477156  0.59386514  1
  N  N430  1  0.94249063  0.39341263  0.59337508  1
  N  N431  1  0.93920792  0.72578687  0.58824500  1
  N  N432  1  0.19067608  0.11018196  0.40509018  1
  N  N433  1  0.18730731  0.44103247  0.41253525  1
  N  N434  1  0.18055429  0.77806801  0.39728305  1
  N  N435  1  0.67760019  0.11127186  0.39769750  1
  N  N436  1  0.67990266  0.44632361  0.39707185  1
  N  N437  1  0.68313898  0.77688873  0.40104414  1
  N  N438  1  0.31169392  0.22480263  0.90492880  1
  N  N439  1  0.31247354  0.55899102  0.90550216  1
  N  N440  1  0.30529575  0.88800880  0.90803532  1
  N  N441  1  0.81196714  0.21620817  0.90376683  1
  N  N442  1  0.81134583  0.55665783  0.90078966  1
  N  N443  1  0.81011468  0.88971476  0.90753871  1
  N  N444  1  0.29964523  0.10972369  0.08396817  1
  N  N445  1  0.31249338  0.44253175  0.09744184  1
  N  N446  1  0.31913515  0.77768926  0.10105492  1
  N  N447  1  0.81472131  0.11068864  0.10661957  1
  N  N448  1  0.80528914  0.44533139  0.09020719  1
  N  N449  1  0.81702618  0.77684397  0.08978394  1
  N  N450  1  0.19373385  0.22159705  0.58884780  1
  N  N451  1  0.19262774  0.55528224  0.59313262  1
  N  N452  1  0.19269879  0.88802789  0.59438806  1
  N  N453  1  0.68788806  0.21410411  0.59805413  1
  N  N454  1  0.69573277  0.55906133  0.58967530  1
  N  N455  1  0.69364415  0.89122128  0.59567097  1
  Cl  Cl456  1  0.24500756  0.05283494  0.63147184  1
  Cl  Cl457  1  0.25270369  0.38256801  0.62368472  1
  Cl  Cl458  1  0.25495435  0.71888418  0.61730970  1
  Cl  Cl459  1  0.75061849  0.06060680  0.61274612  1
  Cl  Cl460  1  0.75687499  0.38999140  0.60706324  1
  Cl  Cl461  1  0.75085739  0.71995768  0.61735414  1
  Cl  Cl462  1  0.24882355  0.28482868  0.12885342  1
  Cl  Cl463  1  0.25075012  0.61122930  0.11224443  1
  Cl  Cl464  1  0.25806956  0.94684675  0.11235792  1
  Cl  Cl465  1  0.75419376  0.27420733  0.10144614  1
  Cl  Cl466  1  0.74985824  0.61103141  0.10655444  1
  Cl  Cl467  1  0.75404963  0.94569485  0.11745200  1
  Cl  Cl468  1  0.25844804  0.05829857  0.89800824  1
  Cl  Cl469  1  0.25314103  0.38867060  0.88757196  1
  Cl  Cl470  1  0.24282886  0.71686884  0.88132933  1
  Cl  Cl471  1  0.75210789  0.05715317  0.88595442  1
  Cl  Cl472  1  0.76060842  0.39088035  0.89778334  1
  Cl  Cl473  1  0.74505279  0.72033874  0.88468983  1
  Cl  Cl474  1  0.24057031  0.27417663  0.39570736  1
  Cl  Cl475  1  0.23776287  0.61023960  0.38045688  1
  Cl  Cl476  1  0.24201987  0.94430276  0.38254405  1
  Cl  Cl477  1  0.74887878  0.27556697  0.39260811  1
  Cl  Cl478  1  0.74446858  0.61103537  0.37653580  1
  Cl  Cl479  1  0.74557826  0.95127284  0.38116416  1
  Cl  Cl480  1  0.00357700  0.22472230  0.60272715  1
  Cl  Cl481  1  0.00802392  0.55251320  0.62309660  1
  Cl  Cl482  1  0.00538383  0.88903530  0.61006820  1
  Cl  Cl483  1  0.50748454  0.22016671  0.61852439  1
  Cl  Cl484  1  0.50649655  0.55520516  0.61827111  1
  Cl  Cl485  1  0.51040780  0.88881849  0.62226409  1
  Cl  Cl486  1  -0.00382559  0.11927738  0.13351569  1
  Cl  Cl487  1  -0.00905418  0.44091565  0.10247745  1
  Cl  Cl488  1  0.00354411  0.78171522  0.11933606  1
  Cl  Cl489  1  0.49120147  0.10749308  0.09418349  1
  Cl  Cl490  1  0.49461255  0.44694287  0.12095453  1
  Cl  Cl491  1  0.50357397  0.78494503  0.12198736  1
  Cl  Cl492  1  -0.00670627  0.22835767  0.88721800  1
  Cl  Cl493  1  -0.00465484  0.55653775  0.89163944  1
  Cl  Cl494  1  -0.00656366  0.88382072  0.87703356  1
  Cl  Cl495  1  0.50195258  0.21618690  0.88731432  1
  Cl  Cl496  1  0.50028728  0.55157072  0.88268295  1
  Cl  Cl497  1  0.49073060  0.89003655  0.89454054  1
  Cl  Cl498  1  0.00057084  0.11105600  0.40348999  1
  Cl  Cl499  1  -0.00741234  0.44179028  0.38556127  1
  Cl  Cl500  1  -0.00349992  0.78125360  0.38453762  1
  Cl  Cl501  1  0.49801922  0.11865759  0.36307711  1
  Cl  Cl502  1  0.49900223  0.45185782  0.38266112  1
  Cl  Cl503  1  0.49864396  0.77989469  0.38377249  1
  Cl  Cl504  1  0.36137712  0.14761905  0.74849035  1
  Cl  Cl505  1  0.35807588  0.48218357  0.75260949  1
  Cl  Cl506  1  0.36396268  0.81278267  0.74860318  1
  Cl  Cl507  1  0.86236131  0.14880807  0.74875589  1
  Cl  Cl508  1  0.85821389  0.47987243  0.75045411  1
  Cl  Cl509  1  0.86030545  0.81456491  0.74528767  1
  Cl  Cl510  1  0.13734064  0.18644527  0.25225466  1
  Cl  Cl511  1  0.13547391  0.51840868  0.24192305  1
  Cl  Cl512  1  0.14170231  0.85312654  0.25121543  1
  Cl  Cl513  1  0.64044010  0.18841845  0.25134374  1
  Cl  Cl514  1  0.63885978  0.51795823  0.24762813  1
  Cl  Cl515  1  0.63712089  0.85388753  0.24899036  1
  Cl  Cl516  1  0.13614418  0.14616360  0.75903539  1
  Cl  Cl517  1  0.13875275  0.47758578  0.75611386  1
  Cl  Cl518  1  0.14170116  0.81461838  0.75044305  1
  Cl  Cl519  1  0.64365779  0.14920023  0.75307950  1
  Cl  Cl520  1  0.64353458  0.47670430  0.74958145  1
  Cl  Cl521  1  0.63828063  0.81461852  0.75573798  1
  Cl  Cl522  1  0.35769855  0.18695716  0.24647400  1
  Cl  Cl523  1  0.35692900  0.51743001  0.25160909  1
  Cl  Cl524  1  0.36097045  0.85575259  0.24679785  1
  Cl  Cl525  1  0.85701565  0.18792123  0.25133411  1
  Cl  Cl526  1  0.85875944  0.51789214  0.24723634  1
  Cl  Cl527  1  0.85757346  0.85228759  0.25313577  1
  Cl  Cl528  1  0.11412043  0.31289558  0.75434557  1
  Cl  Cl529  1  0.11054192  0.64648150  0.75236335  1
  Cl  Cl530  1  0.11361701  0.97925248  0.75309284  1
  Cl  Cl531  1  0.61500135  0.31354880  0.74928965  1
  Cl  Cl532  1  0.61112761  0.64648226  0.75270644  1
  Cl  Cl533  1  0.60862068  0.98419734  0.75341376  1
  Cl  Cl534  1  0.39457273  0.02034090  0.24900447  1
  Cl  Cl535  1  0.38869487  0.35147864  0.25231022  1
  Cl  Cl536  1  0.38577486  0.68741640  0.25084883  1
  Cl  Cl537  1  0.88621528  0.02079553  0.25530496  1
  Cl  Cl538  1  0.88766225  0.35102158  0.25047363  1
  Cl  Cl539  1  0.88881459  0.68394605  0.25356446  1
  Cl  Cl540  1  0.39295756  0.31379187  0.75497787  1
  Cl  Cl541  1  0.38952047  0.64644536  0.75686041  1
  Cl  Cl542  1  0.38744509  0.98083290  0.74762548  1
  Cl  Cl543  1  0.89389915  0.31267941  0.74796387  1
  Cl  Cl544  1  0.88905483  0.64617060  0.74774447  1
  Cl  Cl545  1  0.89346095  0.98272294  0.75181184  1
  Cl  Cl546  1  0.10461400  0.02054392  0.24929956  1
  Cl  Cl547  1  0.10813765  0.35177558  0.24668630  1
  Cl  Cl548  1  0.10817302  0.68550600  0.25005580  1
  Cl  Cl549  1  0.61341429  0.02347797  0.24066868  1
  Cl  Cl550  1  0.61175516  0.35390677  0.25031839  1
  Cl  Cl551  1  0.60855409  0.68497314  0.25098815  1
