# generated using pymatgen
data_H8PbC4(N3Cl2)2
_symmetry_space_group_name_H-M   'P 1'
_cell_length_a   16.63397432
_cell_length_b   22.53050899
_cell_length_c   21.60294708
_cell_angle_alpha   89.99716226
_cell_angle_beta   90.00032494
_cell_angle_gamma   89.99685032
_symmetry_Int_Tables_number   1
_chemical_formula_structural   H8PbC4(N3Cl2)2
_chemical_formula_sum   'H192 Pb24 C96 N144 Cl96'
_cell_volume   8096.17767342
_cell_formula_units_Z   24
loop_
 _symmetry_equiv_pos_site_id
 _symmetry_equiv_pos_as_xyz
  1  'x, y, z'
loop_
 _atom_site_type_symbol
 _atom_site_label
 _atom_site_symmetry_multiplicity
 _atom_site_fract_x
 _atom_site_fract_y
 _atom_site_fract_z
 _atom_site_occupancy
  H  H0  1  0.02157069  0.02737246  0.67784096  1
  H  H1  1  -0.00504481  0.35682028  0.68182374  1
  H  H2  1  0.00482156  0.69127200  0.68466225  1
  H  H3  1  0.48019001  0.03139616  0.66613265  1
  H  H4  1  0.50685012  0.36471396  0.67469914  1
  H  H5  1  0.49963316  0.69347611  0.66771050  1
  H  H6  1  -0.01293933  0.31254345  0.17771236  1
  H  H7  1  0.00142040  0.64617548  0.17233269  1
  H  H8  1  -0.00813066  0.97559266  0.17420879  1
  H  H9  1  0.51015519  0.30612972  0.18146725  1
  H  H10  1  0.49892523  0.63622055  0.18450721  1
  H  H11  1  0.51820010  0.96969910  0.18113439  1
  H  H12  1  -0.01126225  0.02427297  0.82737078  1
  H  H13  1  -0.02281563  0.36506012  0.82658744  1
  H  H14  1  -0.00381450  0.69523609  0.81942197  1
  H  H15  1  0.50851116  0.03141214  0.82049597  1
  H  H16  1  0.51912641  0.36129746  0.82047959  1
  H  H17  1  0.49754162  0.69078963  0.82297768  1
  H  H18  1  0.00836407  0.30370826  0.32494847  1
  H  H19  1  0.01208561  0.63090086  0.32272025  1
  H  H20  1  0.00068009  0.96757396  0.32065688  1
  H  H21  1  0.48678043  0.31168550  0.31896085  1
  H  H22  1  0.48119115  0.63899099  0.33220704  1
  H  H23  1  0.49341479  0.97762306  0.32613203  1
  H  H24  1  0.26526903  0.20204812  0.68087332  1
  H  H25  1  0.24104987  0.52280227  0.67316502  1
  H  H26  1  0.24781455  0.86494530  0.67956488  1
  H  H27  1  0.73151338  0.19370061  0.67237256  1
  H  H28  1  0.77239372  0.53268936  0.66647037  1
  H  H29  1  0.75641975  0.86130750  0.67231189  1
  H  H30  1  0.25591411  0.13997919  0.16912004  1
  H  H31  1  0.25859781  0.47298339  0.17892922  1
  H  H32  1  0.25282609  0.80609557  0.18320205  1
  H  H33  1  0.74681814  0.13581778  0.18309151  1
  H  H34  1  0.74753050  0.47036394  0.17923576  1
  H  H35  1  0.74434188  0.80385642  0.17972206  1
  H  H36  1  0.23855145  0.19101171  0.82088556  1
  H  H37  1  0.23925012  0.52609446  0.82007094  1
  H  H38  1  0.26345418  0.85588864  0.82998398  1
  H  H39  1  0.76466613  0.19662530  0.82443720  1
  H  H40  1  0.75965836  0.52723570  0.81926506  1
  H  H41  1  0.73238199  0.85679390  0.82284220  1
  H  H42  1  0.23599145  0.13841433  0.32136223  1
  H  H43  1  0.25026621  0.46898091  0.32567068  1
  H  H44  1  0.23465792  0.80862972  0.32765256  1
  H  H45  1  0.76195109  0.13387701  0.32630691  1
  H  H46  1  0.76802454  0.47599033  0.32913315  1
  H  H47  1  0.77009324  0.80908412  0.32875039  1
  H  H48  1  0.11698871  0.06212164  0.58818179  1
  H  H49  1  0.13184266  0.38094094  0.62271975  1
  H  H50  1  0.12354756  0.72236475  0.61094946  1
  H  H51  1  0.62470007  0.04750086  0.62448723  1
  H  H52  1  0.63227704  0.38657256  0.60471074  1
  H  H53  1  0.62359144  0.71885512  0.60091091  1
  H  H54  1  0.38359002  0.27912407  0.11286609  1
  H  H55  1  0.36847326  0.61273772  0.11802660  1
  H  H56  1  0.37689934  0.95515960  0.12614581  1
  H  H57  1  0.88748353  0.27914730  0.09058186  1
  H  H58  1  0.86917682  0.61393669  0.11388842  1
  H  H59  1  0.88020887  0.94145035  0.09623036  1
  H  H60  1  0.36793574  0.05140272  0.87408703  1
  H  H61  1  0.37374449  0.37712115  0.86496433  1
  H  H62  1  0.38408201  0.72462428  0.89888613  1
  H  H63  1  0.87329036  0.05830069  0.90149146  1
  H  H64  1  0.87361533  0.39410720  0.91055080  1
  H  H65  1  0.88128123  0.72071331  0.89572508  1
  H  H66  1  0.11910180  0.27628952  0.40736935  1
  H  H67  1  0.11451671  0.60199884  0.41030191  1
  H  H68  1  0.13549425  0.94892425  0.38275860  1
  H  H69  1  0.61742143  0.28097087  0.37739768  1
  H  H70  1  0.62242784  0.62243989  0.37987969  1
  H  H71  1  0.62999049  0.94846150  0.38026693  1
  H  H72  1  0.36959840  0.22452609  0.59607996  1
  H  H73  1  0.37958343  0.55151873  0.62204735  1
  H  H74  1  0.35879183  0.89196204  0.59876197  1
  H  H75  1  0.87667751  0.21293001  0.62760575  1
  H  H76  1  0.86777424  0.56332123  0.57873466  1
  H  H77  1  0.86078876  0.89340142  0.58900537  1
  H  H78  1  0.12806863  0.11380139  0.10741359  1
  H  H79  1  0.13484899  0.44586636  0.10810641  1
  H  H80  1  0.11788905  0.78224165  0.12256886  1
  H  H81  1  0.63749594  0.10931384  0.10106464  1
  H  H82  1  0.63439661  0.44512015  0.10261904  1
  H  H83  1  0.62217400  0.77901761  0.10911387  1
  H  H84  1  0.12210222  0.21692430  0.89680284  1
  H  H85  1  0.13525217  0.55692371  0.90255045  1
  H  H86  1  0.12262967  0.88176768  0.87925486  1
  H  H87  1  0.61742955  0.21555417  0.86559637  1
  H  H88  1  0.63575898  0.55253965  0.88998790  1
  H  H89  1  0.63312240  0.89239793  0.90855671  1
  H  H90  1  0.37844769  0.11806457  0.37194037  1
  H  H91  1  0.36665870  0.44482043  0.40177210  1
  H  H92  1  0.37767358  0.78357822  0.37415536  1
  H  H93  1  0.86938901  0.10568510  0.40759495  1
  H  H94  1  0.86369767  0.44156000  0.41692708  1
  H  H95  1  0.86684321  0.77136555  0.41538453  1
  H  H96  1  0.36930905  0.28130063  0.39426887  1
  H  H97  1  0.37974220  0.60648070  0.41559690  1
  H  H98  1  0.38359852  0.94530499  0.40443579  1
  H  H99  1  0.87291012  0.28219933  0.38584580  1
  H  H100  1  0.87090813  0.61613465  0.37640152  1
  H  H101  1  0.88865426  0.93942302  0.40100923  1
  H  H102  1  0.12114892  0.05255850  0.88692193  1
  H  H103  1  0.11728694  0.38140662  0.87599656  1
  H  H104  1  0.12869265  0.71700725  0.87810963  1
  H  H105  1  0.61238261  0.06021106  0.90737641  1
  H  H106  1  0.61524348  0.39292959  0.90694640  1
  H  H107  1  0.63134867  0.71588814  0.88110882  1
  H  H108  1  0.12877586  0.28424556  0.13101317  1
  H  H109  1  0.11544928  0.61026672  0.09690347  1
  H  H110  1  0.12688629  0.95516808  0.11541095  1
  H  H111  1  0.63219272  0.28090934  0.10907899  1
  H  H112  1  0.61648096  0.61061217  0.10643341  1
  H  H113  1  0.62147214  0.93928476  0.09653316  1
  H  H114  1  0.38520532  0.06297762  0.57746796  1
  H  H115  1  0.38428661  0.39633752  0.60583811  1
  H  H116  1  0.37555109  0.72014732  0.60105306  1
  H  H117  1  0.87658090  0.04633280  0.63197720  1
  H  H118  1  0.88598000  0.39274768  0.60138933  1
  H  H119  1  0.87488276  0.71588531  0.62139112  1
  H  H120  1  0.13544771  0.10901061  0.40999588  1
  H  H121  1  0.11820858  0.44788978  0.38608289  1
  H  H122  1  0.13580764  0.77318117  0.41458008  1
  H  H123  1  0.62314737  0.11608874  0.37934010  1
  H  H124  1  0.62331745  0.46054829  0.37392862  1
  H  H125  1  0.62582218  0.78370653  0.37404363  1
  H  H126  1  0.37015576  0.21509328  0.88061351  1
  H  H127  1  0.37971734  0.54473806  0.86973321  1
  H  H128  1  0.36741568  0.89260080  0.91089529  1
  H  H129  1  0.85703673  0.22913899  0.91545960  1
  H  H130  1  0.88515409  0.55366616  0.89002650  1
  H  H131  1  0.87585486  0.87900350  0.86830357  1
  H  H132  1  0.37609842  0.11273246  0.09914535  1
  H  H133  1  0.38356199  0.44600379  0.11071921  1
  H  H134  1  0.36501342  0.77711137  0.10196150  1
  H  H135  1  0.88448738  0.11564831  0.12453447  1
  H  H136  1  0.88235829  0.45120979  0.11939673  1
  H  H137  1  0.87115116  0.77986615  0.11419287  1
  H  H138  1  0.12453776  0.21560105  0.62835415  1
  H  H139  1  0.13375653  0.55539314  0.59184260  1
  H  H140  1  0.11182112  0.88416313  0.62064723  1
  H  H141  1  0.63622503  0.22845550  0.58456212  1
  H  H142  1  0.62798801  0.54881057  0.62397980  1
  H  H143  1  0.61570618  0.88272756  0.62104861  1
  H  H144  1  0.20797350  0.58719064  1.00598065  1
  H  H145  1  0.45007714  0.75198662  1.00161897  1
  H  H146  1  0.45073461  0.90900597  0.50748861  1
  H  H147  1  0.80138500  0.07750392  0.51272899  1
  H  H148  1  0.78511955  0.91897420  0.48944992  1
  H  H149  1  0.29426116  0.92936096  1.01073924  1
  H  H150  1  0.43747410  0.41475773  0.49988170  1
  H  H151  1  0.76825144  0.25407615  1.00942034  1
  H  H152  1  0.66689583  0.74833800  0.00009384  1
  H  H153  1  0.10007203  0.74653747  -0.00789499  1
  H  H154  1  0.14862632  0.41470423  0.49792024  1
  H  H155  1  0.53342114  0.42133854  1.00833022  1
  H  H156  1  0.91267385  0.74785184  0.51030616  1
  H  H157  1  0.86647091  0.91488692  0.97949149  1
  H  H158  1  0.53206137  0.08765838  1.00442399  1
  H  H159  1  0.97102567  0.24909491  -0.00399942  1
  H  H160  1  0.33948138  0.24527202  0.99346119  1
  H  H161  1  0.70692531  0.07816426  -0.00163807  1
  H  H162  1  0.36691707  0.57828418  -0.01732465  1
  H  H163  1  0.60686740  0.91849795  0.49006223  1
  H  H164  1  0.86636603  0.25047084  0.52019878  1
  H  H165  1  0.20890943  0.58301184  0.49197690  1
  H  H166  1  0.06567963  0.74410462  0.50596262  1
  H  H167  1  0.58249827  0.25214594  0.00065634  1
  H  H168  1  0.68674802  0.58418046  0.99800162  1
  H  H169  1  0.21881376  0.08317209  0.50589697  1
  H  H170  1  0.69590096  0.41558145  -0.00633435  1
  H  H171  1  0.17683914  0.24500416  1.00414370  1
  H  H172  1  0.13863653  0.91660634  0.98757957  1
  H  H173  1  0.54433778  0.91027189  -0.00463133  1
  H  H174  1  0.83165726  0.74707024  0.00349310  1
  H  H175  1  0.03304798  0.57885390  0.50825270  1
  H  H176  1  0.22247487  0.74484092  0.50921265  1
  H  H177  1  0.34169460  0.41431893  0.00088041  1
  H  H178  1  0.58976004  0.42437874  0.50215277  1
  H  H179  1  0.77863268  0.74296899  0.50969529  1
  H  H180  1  0.43147412  0.25510083  0.49720659  1
  H  H181  1  0.58221048  0.23707872  0.48472541  1
  H  H182  1  0.72319342  0.24573433  0.48853833  1
  H  H183  1  0.10526193  0.92050038  0.49103712  1
  H  H184  1  0.10461526  0.41501121  -0.00972878  1
  H  H185  1  0.62052950  0.58945728  0.50372890  1
  H  H186  1  0.77927976  0.41642219  0.51286060  1
  H  H187  1  0.29624390  0.25009063  0.49042642  1
  H  H188  1  0.63176208  0.08370655  0.50253413  1
  H  H189  1  0.04637755  0.57988997  -0.00419463  1
  H  H190  1  0.71379268  0.91631546  1.00551103  1
  H  H191  1  0.02889582  0.08859573  0.49500608  1
  Pb  Pb192  1  0.24479850  0.04921237  0.73443902  1
  Pb  Pb193  1  0.25037190  0.37961410  0.74685041  1
  Pb  Pb194  1  0.25658652  0.71745677  0.74480158  1
  Pb  Pb195  1  0.74799195  0.04850250  0.76187126  1
  Pb  Pb196  1  0.75529958  0.38476758  0.75305729  1
  Pb  Pb197  1  0.74529581  0.71700539  0.74691459  1
  Pb  Pb198  1  0.25239225  0.28440123  0.25301476  1
  Pb  Pb199  1  0.25151556  0.61541590  0.25714691  1
  Pb  Pb200  1  0.25372267  0.95135558  0.25349137  1
  Pb  Pb201  1  0.75578530  0.28219981  0.24684704  1
  Pb  Pb202  1  0.74680132  0.61901005  0.24269462  1
  Pb  Pb203  1  0.75583441  0.94957828  0.24485919  1
  Pb  Pb204  1  -0.00284252  0.21349326  0.76665609  1
  Pb  Pb205  1  0.00721893  0.55168214  0.74799947  1
  Pb  Pb206  1  -0.00290177  0.88155847  0.74102160  1
  Pb  Pb207  1  0.49916121  0.21416135  0.73149532  1
  Pb  Pb208  1  0.50358241  0.54698023  0.75444096  1
  Pb  Pb209  1  0.49429330  0.88657815  0.75452864  1
  Pb  Pb210  1  0.00673534  0.11703153  0.26323618  1
  Pb  Pb211  1  -0.00039695  0.45149113  0.25585692  1
  Pb  Pb212  1  0.00280280  0.78118041  0.26612490  1
  Pb  Pb213  1  0.50289306  0.11709681  0.23507442  1
  Pb  Pb214  1  0.50351649  0.45074077  0.25367976  1
  Pb  Pb215  1  0.49917457  0.78576231  0.23704759  1
  C  C216  1  0.00541402  0.04419003  0.63249464  1
  C  C217  1  0.00428793  0.37475685  0.63586556  1
  C  C218  1  0.00155558  0.70844636  0.63770702  1
  C  C219  1  0.49738328  0.04757018  0.62066045  1
  C  C220  1  0.50775554  0.38202300  0.62762251  1
  C  C221  1  0.49954777  0.71098882  0.62104096  1
  C  C222  1  0.00089824  0.29367749  0.13280329  1
  C  C223  1  -0.00427022  0.62550282  0.12723333  1
  C  C224  1  -0.00066906  0.95789232  0.12805074  1
  C  C225  1  0.50860535  0.28932080  0.13443359  1
  C  C226  1  0.49462300  0.62069937  0.13702568  1
  C  C227  1  0.50512346  0.95509441  0.13430691  1
  C  C228  1  -0.00547907  0.04458967  0.87245091  1
  C  C229  1  -0.00957570  0.38017519  0.87309196  1
  C  C230  1  0.00287938  0.71027420  0.86668810  1
  C  C231  1  0.49678880  0.04669508  0.86723577  1
  C  C232  1  0.50256145  0.37660919  0.86644106  1
  C  C233  1  0.50386233  0.70871382  0.86921707  1
  C  C234  1  0.00015839  0.28890196  0.37240314  1
  C  C235  1  -0.00037108  0.61726506  0.36994544  1
  C  C236  1  0.00878960  0.95249934  0.36790936  1
  C  C237  1  0.49078574  0.29339824  0.36542804  1
  C  C238  1  0.49499189  0.62253201  0.37818779  1
  C  C239  1  0.50329327  0.95878631  0.37189861  1
  C  C240  1  0.25320615  0.21423951  0.63329014  1
  C  C241  1  0.25134758  0.54145437  0.62775588  1
  C  C242  1  0.23948390  0.87998820  0.63250648  1
  C  C243  1  0.74843391  0.21109442  0.62718259  1
  C  C244  1  0.75534814  0.54846957  0.62081511  1
  C  C245  1  0.74444383  0.87795622  0.62604385  1
  C  C246  1  0.25333076  0.12183696  0.12254567  1
  C  C247  1  0.25903571  0.45561763  0.13211380  1
  C  C248  1  0.24542791  0.78944025  0.13642878  1
  C  C249  1  0.75653936  0.12025460  0.13617724  1
  C  C250  1  0.75464675  0.45566265  0.13186459  1
  C  C251  1  0.74591637  0.78755123  0.13238809  1
  C  C252  1  0.24364686  0.20716454  0.86813595  1
  C  C253  1  0.25209358  0.54253094  0.86633930  1
  C  C254  1  0.25058610  0.87561205  0.87492886  1
  C  C255  1  0.74658518  0.21246962  0.86981700  1
  C  C256  1  0.76033437  0.54367417  0.86646988  1
  C  C257  1  0.74713175  0.87496781  0.86818351  1
  C  C258  1  0.24951373  0.12268283  0.36762428  1
  C  C259  1  0.24426782  0.45356120  0.37287569  1
  C  C260  1  0.24896071  0.78940148  0.37234504  1
  C  C261  1  0.75154800  0.11840642  0.37323311  1
  C  C262  1  0.75156243  0.45963379  0.37471751  1
  C  C263  1  0.75488524  0.78916580  0.37298127  1
  C  C264  1  0.68959829  0.09387904  0.46014641  1
  C  C265  1  0.72888714  0.42720954  0.03547976  1
  C  C266  1  0.31274778  0.57743584  0.54464076  1
  C  C267  1  0.78971595  0.75896611  0.04024826  1
  C  C268  1  0.51745710  0.92464195  0.03886566  1
  C  C269  1  0.53996408  0.74252743  0.53068455  1
  C  C270  1  0.80977545  0.42968886  0.04317822  1
  C  C271  1  0.49063263  0.07888912  0.52444711  1
  C  C272  1  0.18665058  0.90678296  0.54425509  1
  C  C273  1  0.56949063  0.07355721  0.53895730  1
  C  C274  1  0.95333508  0.73865743  0.54850815  1
  C  C275  1  0.21311788  0.23473966  0.96372287  1
  C  C276  1  0.05430865  0.40652477  0.95916499  1
  C  C277  1  0.97400228  0.41094597  0.96942139  1
  C  C278  1  0.26673098  0.91375162  0.96810564  1
  C  C279  1  0.56091710  0.59652074  0.46288119  1
  C  C280  1  0.27541429  0.42466519  0.46768691  1
  C  C281  1  0.42985144  0.40012960  0.94841089  1
  C  C282  1  0.05453311  0.73691699  0.95725639  1
  C  C283  1  0.70756158  0.75885763  0.03868844  1
  C  C284  1  0.97323956  0.73791451  0.96203231  1
  C  C285  1  0.67912615  0.43452806  0.45665358  1
  C  C286  1  0.29493373  0.23456213  0.95832218  1
  C  C287  1  0.20828177  0.08825335  0.03479105  1
  C  C288  1  0.54088062  0.25531171  0.45067421  1
  C  C289  1  0.76285019  0.58040817  0.52479733  1
  C  C290  1  0.26813949  0.23898015  0.53439832  1
  C  C291  1  0.72446912  0.57301348  0.95852352  1
  C  C292  1  0.19403817  0.42510080  0.46318892  1
  C  C293  1  0.96794836  0.08393358  0.96268285  1
  C  C294  1  0.50830042  0.40700579  0.96428598  1
  C  C295  1  0.54307143  0.26201618  0.04092386  1
  C  C296  1  0.05201534  0.92925356  0.03998814  1
  C  C297  1  0.48106507  0.59090767  0.47375597  1
  C  C298  1  0.68035520  0.90670550  0.54138930  1
  C  C299  1  0.29778812  0.42587670  0.04027424  1
  C  C300  1  0.67130007  0.24031171  0.94923071  1
  C  C301  1  0.73735360  0.09061905  0.04121516  1
  C  C302  1  0.23654196  0.57398872  0.96276076  1
  C  C303  1  0.81548742  0.90579812  0.94909987  1
  C  C304  1  0.68375682  0.57550496  0.53921150  1
  C  C305  1  0.45893845  0.74288987  0.53067579  1
  C  C306  1  0.28866338  0.08780717  0.03223208  1
  C  C307  1  0.77047701  0.08973922  0.47017365  1
  C  C308  1  0.55966856  0.74072644  0.95643383  1
  C  C309  1  0.48048676  0.92301897  0.46505412  1
  C  C310  1  0.18827996  0.23546383  0.54692554  1
  C  C311  1  0.31707643  0.56966456  0.95109071  1
  N  N312  1  0.46380742  0.26123328  0.04201925  1
  N  N313  1  0.23485304  0.57710505  0.53515085  1
  N  N314  1  0.46148014  0.25677887  0.45583962  1
  N  N315  1  0.74172047  0.24746879  0.53425547  1
  N  N316  1  0.00888202  0.07970271  0.54003243  1
  N  N317  1  0.01897841  0.58712574  0.03786510  1
  N  N318  1  0.43959896  0.93038945  0.04837685  1
  N  N319  1  0.97484014  0.92370480  0.03300450  1
  N  N320  1  0.26905263  0.75728027  0.04184920  1
  N  N321  1  0.80359347  0.57408671  0.95836782  1
  N  N322  1  0.52472439  0.59273329  0.04213242  1
  N  N323  1  0.24076338  0.09195056  0.46158141  1
  N  N324  1  0.06870443  0.25918798  0.05293555  1
  N  N325  1  0.26360857  0.90944685  0.53574550  1
  N  N326  1  0.44866627  0.59389163  0.04586125  1
  N  N327  1  0.05873850  0.40374317  0.54860562  1
  N  N328  1  0.93306828  0.07382676  0.55287753  1
  N  N329  1  0.47118548  0.41947678  0.53947789  1
  N  N330  1  0.18867557  0.90973699  0.95650954  1
  N  N331  1  0.94716285  0.26471786  0.46210345  1
  N  N332  1  0.68463364  0.75430867  0.45119317  1
  N  N333  1  0.98357276  0.40945651  0.54199767  1
  N  N334  1  0.02317266  0.26157609  0.46866488  1
  N  N335  1  0.05928414  0.92890005  0.45640481  1
  N  N336  1  0.01004405  0.58870483  0.46455025  1
  N  N337  1  0.31706881  0.09504735  0.45040943  1
  N  N338  1  0.54862789  0.40625513  0.53589268  1
  N  N339  1  0.75835730  0.91112531  0.53206926  1
  N  N340  1  0.74745578  0.24471412  0.96475845  1
  N  N341  1  0.50882097  0.07874773  0.96051199  1
  N  N342  1  0.98185587  0.92559537  0.46381027  1
  N  N343  1  0.03283262  0.74161727  0.54613585  1
  N  N344  1  0.75577073  0.42706384  0.46952910  1
  N  N345  1  0.43213109  0.07568676  0.95077712  1
  N  N346  1  0.93351600  0.59397354  0.45491540  1
  N  N347  1  0.31809971  0.75477778  0.45153991  1
  N  N348  1  0.48074617  0.74350745  0.96123916  1
  N  N349  1  0.55918757  0.92482802  0.45600395  1
  N  N350  1  0.99249899  0.25741651  0.04077089  1
  N  N351  1  0.24195396  0.75219964  0.46400151  1
  N  N352  1  0.81754188  0.23382650  0.54574101  1
  N  N353  1  0.76043826  0.75088989  0.46432461  1
  N  N354  1  0.04500294  0.08222917  0.95940878  1
  N  N355  1  0.73776412  0.91043829  0.96177606  1
  N  N356  1  0.19338308  0.75935224  0.04842490  1
  N  N357  1  0.94157112  0.58749498  0.04304728  1
  N  N358  1  0.81592819  0.09286531  0.04852441  1
  N  N359  1  0.21843845  0.42547544  0.03924576  1
  N  N360  1  0.05449684  0.05911924  0.58688472  1
  N  N361  1  0.07340537  0.38120600  0.60615922  1
  N  N362  1  0.06247506  0.71944838  0.60012510  1
  N  N363  1  0.57219843  0.05461442  0.59954382  1
  N  N364  1  0.57224316  0.39191432  0.59320888  1
  N  N365  1  0.56466048  0.72339907  0.58584113  1
  N  N366  1  0.44428046  0.27824478  0.10028373  1
  N  N367  1  0.42833040  0.61120870  0.10440068  1
  N  N368  1  0.43390404  0.94914111  0.10766696  1
  N  N369  1  0.94995936  0.28078700  0.08780338  1
  N  N370  1  0.92769303  0.60985221  0.09924100  1
  N  N371  1  0.94208619  0.94187254  0.08925407  1
  N  N372  1  0.42512646  0.05703293  0.89239528  1
  N  N373  1  0.42691835  0.38210512  0.88924182  1
  N  N374  1  0.44553010  0.72147201  0.90841642  1
  N  N375  1  0.93401429  0.06136233  0.91044176  1
  N  N376  1  0.93546680  0.39497821  0.91764311  1
  N  N377  1  0.94218245  0.72198692  0.90730600  1
  N  N378  1  0.05716744  0.27681879  0.41341008  1
  N  N379  1  0.05214476  0.60471209  0.41403378  1
  N  N380  1  0.07686287  0.94538184  0.39845936  1
  N  N381  1  0.55928094  0.27717657  0.39438350  1
  N  N382  1  0.56817717  0.61562637  0.40266472  1
  N  N383  1  0.57298633  0.94893678  0.39936656  1
  N  N384  1  0.30795714  0.22537732  0.58952990  1
  N  N385  1  0.32286762  0.55652536  0.60247285  1
  N  N386  1  0.29647122  0.89220265  0.59197111  1
  N  N387  1  0.82189983  0.22090927  0.60616165  1
  N  N388  1  0.80596594  0.56388043  0.57431873  1
  N  N389  1  0.79847684  0.89070187  0.58338411  1
  N  N390  1  0.18622383  0.10875255  0.08988094  1
  N  N391  1  0.19596518  0.44412951  0.09677807  1
  N  N392  1  0.17709698  0.77920457  0.10681438  1
  N  N393  1  0.69945011  0.10715569  0.09448797  1
  N  N394  1  0.69542126  0.44354022  0.09201618  1
  N  N395  1  0.68198093  0.77644363  0.09649516  1
  N  N396  1  0.18256166  0.21783618  0.90715228  1
  N  N397  1  0.19741270  0.55695287  0.90938546  1
  N  N398  1  0.17925891  0.88494251  0.89975512  1
  N  N399  1  0.67047432  0.22170814  0.88997649  1
  N  N400  1  0.69625862  0.55471474  0.90237858  1
  N  N401  1  0.69556794  0.88859066  0.91272542  1
  N  N402  1  0.32194030  0.11257184  0.39142390  1
  N  N403  1  0.30546432  0.44191048  0.41304058  1
  N  N404  1  0.32182963  0.77641649  0.39392855  1
  N  N405  1  0.80799420  0.10513465  0.41495623  1
  N  N406  1  0.80108433  0.44403822  0.41945698  1
  N  N407  1  0.80508621  0.77474516  0.41831548  1
  N  N408  1  0.43087250  0.28371229  0.40442579  1
  N  N409  1  0.44133401  0.60637714  0.42206130  1
  N  N410  1  0.44537497  0.94342368  0.41276451  1
  N  N411  1  0.93147821  0.28136376  0.40231009  1
  N  N412  1  0.92750503  0.61065529  0.39566415  1
  N  N413  1  0.95078201  0.94006945  0.40845226  1
  N  N414  1  0.06185615  0.05723163  0.90205829  1
  N  N415  1  0.06277450  0.38749448  0.89822355  1
  N  N416  1  0.07159913  0.71974652  0.89683096  1
  N  N417  1  0.54994662  0.05893688  0.91104137  1
  N  N418  1  0.55304619  0.39185507  0.91167085  1
  N  N419  1  0.57390207  0.72063314  0.89885381  1
  N  N420  1  0.07318672  0.27994132  0.11084275  1
  N  N421  1  0.05395902  0.61224086  0.08780375  1
  N  N422  1  0.06913175  0.94952502  0.09802927  1
  N  N423  1  0.57191118  0.27869947  0.09770022  1
  N  N424  1  0.55453243  0.60932296  0.09847006  1
  N  N425  1  0.55924434  0.93967364  0.09108381  1
  N  N426  1  0.44705115  0.06311866  0.57409294  1
  N  N427  1  0.44465416  0.39442487  0.59264527  1
  N  N428  1  0.43447601  0.72410839  0.58607284  1
  N  N429  1  0.93168762  0.05367780  0.61102067  1
  N  N430  1  0.94834598  0.39248522  0.59627094  1
  N  N431  1  0.93373425  0.71983862  0.60574171  1
  N  N432  1  0.19789154  0.11090462  0.41265384  1
  N  N433  1  0.17593342  0.44307342  0.40326865  1
  N  N434  1  0.19818559  0.77521820  0.41716022  1
  N  N435  1  0.67932062  0.11098121  0.40019939  1
  N  N436  1  0.67614583  0.45321687  0.39725853  1
  N  N437  1  0.68173421  0.77621152  0.39383592  1
  N  N438  1  0.31225955  0.21760175  0.89876730  1
  N  N439  1  0.32500565  0.55058031  0.89127810  1
  N  N440  1  0.30569070  0.89318971  0.91732961  1
  N  N441  1  0.79459983  0.22503043  0.91666252  1
  N  N442  1  0.82427403  0.55547655  0.90108833  1
  N  N443  1  0.82123247  0.88545202  0.89053747  1
  N  N444  1  0.31674519  0.10815823  0.08583376  1
  N  N445  1  0.32368259  0.44382461  0.09729970  1
  N  N446  1  0.30283928  0.77611228  0.09621499  1
  N  N447  1  0.82595291  0.11123285  0.10767596  1
  N  N448  1  0.82478770  0.44656874  0.10139396  1
  N  N449  1  0.81202581  0.77686975  0.09869047  1
  N  N450  1  0.17985861  0.22092387  0.60653895  1
  N  N451  1  0.19595667  0.55247170  0.58522623  1
  N  N452  1  0.16929633  0.88906489  0.60320878  1
  N  N453  1  0.69823056  0.22388882  0.58119745  1
  N  N454  1  0.68070645  0.55582049  0.59941379  1
  N  N455  1  0.67132795  0.88770500  0.60035388  1
  Cl  Cl456  1  0.24016874  0.06116317  0.59621310  1
  Cl  Cl457  1  0.26123445  0.39463225  0.61263966  1
  Cl  Cl458  1  0.24429261  0.72466843  0.60426825  1
  Cl  Cl459  1  0.75286987  0.04718249  0.63114363  1
  Cl  Cl460  1  0.76339200  0.39127146  0.60414136  1
  Cl  Cl461  1  0.75342022  0.72528555  0.60717559  1
  Cl  Cl462  1  0.25976110  0.27443826  0.12113286  1
  Cl  Cl463  1  0.23782597  0.60766088  0.12110945  1
  Cl  Cl464  1  0.25004823  0.95012280  0.11857489  1
  Cl  Cl465  1  0.76566834  0.27513540  0.10183922  1
  Cl  Cl466  1  0.73877277  0.60894709  0.10787133  1
  Cl  Cl467  1  0.74769956  0.93787094  0.10207535  1
  Cl  Cl468  1  0.24357073  0.04816793  0.86587259  1
  Cl  Cl469  1  0.24603085  0.38828846  0.87309470  1
  Cl  Cl470  1  0.26270841  0.72818769  0.87489695  1
  Cl  Cl471  1  0.73655142  0.05799264  0.89797077  1
  Cl  Cl472  1  0.74521291  0.39047022  0.88751144  1
  Cl  Cl473  1  0.75694419  0.72359413  0.87975043  1
  Cl  Cl474  1  0.24622312  0.27492199  0.38870941  1
  Cl  Cl475  1  0.23825514  0.60355648  0.39884450  1
  Cl  Cl476  1  0.25981225  0.94865335  0.38480869  1
  Cl  Cl477  1  0.74463554  0.27206841  0.38762222  1
  Cl  Cl478  1  0.74879982  0.61793007  0.37015822  1
  Cl  Cl479  1  0.76561744  0.93553614  0.39110345  1
  Cl  Cl480  1  -0.00057062  0.21479808  0.63561359  1
  Cl  Cl481  1  0.01083863  0.56179041  0.60322104  1
  Cl  Cl482  1  -0.01702287  0.88949063  0.60860980  1
  Cl  Cl483  1  0.50461356  0.23050862  0.59401642  1
  Cl  Cl484  1  0.49980844  0.55065393  0.62353196  1
  Cl  Cl485  1  0.48368446  0.89235078  0.61709317  1
  Cl  Cl486  1  0.00727625  0.11773707  0.13272336  1
  Cl  Cl487  1  0.01098845  0.44692821  0.12145019  1
  Cl  Cl488  1  -0.00464094  0.78158420  0.13434084  1
  Cl  Cl489  1  0.51481501  0.10870228  0.09746721  1
  Cl  Cl490  1  0.50957119  0.44360892  0.11949948  1
  Cl  Cl491  1  0.48864731  0.77556510  0.10017664  1
  Cl  Cl492  1  -0.01966853  0.22869177  0.90425759  1
  Cl  Cl493  1  0.01284522  0.55778735  0.88903817  1
  Cl  Cl494  1  0.00040775  0.88225236  0.87172151  1
  Cl  Cl495  1  0.49303277  0.21760824  0.86277115  1
  Cl  Cl496  1  0.51290703  0.55544992  0.88138083  1
  Cl  Cl497  1  0.50653479  0.89075959  0.89207665  1
  Cl  Cl498  1  0.01146138  0.10599978  0.40287791  1
  Cl  Cl499  1  -0.01602622  0.44570363  0.38741044  1
  Cl  Cl500  1  0.00756775  0.76963962  0.40800761  1
  Cl  Cl501  1  0.50134904  0.12065108  0.36491954  1
  Cl  Cl502  1  0.48636210  0.44293669  0.39029223  1
  Cl  Cl503  1  0.50152791  0.79039128  0.36651461  1
  Cl  Cl504  1  0.36033980  0.14790655  0.74632189  1
  Cl  Cl505  1  0.36769799  0.47769959  0.75450109  1
  Cl  Cl506  1  0.35408227  0.82216874  0.74791940  1
  Cl  Cl507  1  0.85631777  0.15151029  0.75032324  1
  Cl  Cl508  1  0.85870626  0.48150257  0.74333430  1
  Cl  Cl509  1  0.86009945  0.81580914  0.74547970  1
  Cl  Cl510  1  0.14420744  0.18154887  0.24916674  1
  Cl  Cl511  1  0.13866507  0.51549128  0.25745353  1
  Cl  Cl512  1  0.13587571  0.85304940  0.25871125  1
  Cl  Cl513  1  0.63753636  0.18572928  0.24658308  1
  Cl  Cl514  1  0.64079075  0.51518122  0.25636600  1
  Cl  Cl515  1  0.63857777  0.85213954  0.24822099  1
  Cl  Cl516  1  0.13933288  0.14756373  0.74617669  1
  Cl  Cl517  1  0.14117616  0.48178943  0.74377187  1
  Cl  Cl518  1  0.13079661  0.80980283  0.74321027  1
  Cl  Cl519  1  0.63852126  0.14987036  0.74871903  1
  Cl  Cl520  1  0.64227987  0.48351626  0.73990551  1
  Cl  Cl521  1  0.64165264  0.81521400  0.74617252  1
  Cl  Cl522  1  0.36618966  0.18447448  0.24795215  1
  Cl  Cl523  1  0.35506175  0.52056288  0.25539302  1
  Cl  Cl524  1  0.35688005  0.85141196  0.24991012  1
  Cl  Cl525  1  0.85690938  0.18655388  0.25597515  1
  Cl  Cl526  1  0.86101151  0.51973428  0.24598734  1
  Cl  Cl527  1  0.85830175  0.85449526  0.25141026  1
  Cl  Cl528  1  0.11232762  0.31269505  0.75970029  1
  Cl  Cl529  1  0.11295048  0.64430374  0.75324291  1
  Cl  Cl530  1  0.11077403  0.98003121  0.74864204  1
  Cl  Cl531  1  0.60877909  0.31576984  0.74112483  1
  Cl  Cl532  1  0.60744740  0.65192883  0.74474296  1
  Cl  Cl533  1  0.61341413  0.98191762  0.74119553  1
  Cl  Cl534  1  0.39282235  0.01598200  0.24639052  1
  Cl  Cl535  1  0.38745800  0.35310889  0.24286872  1
  Cl  Cl536  1  0.38597622  0.68574422  0.25504563  1
  Cl  Cl537  1  0.88282946  0.02244539  0.25426190  1
  Cl  Cl538  1  0.88604706  0.35054971  0.25432610  1
  Cl  Cl539  1  0.88260909  0.68663780  0.24957458  1
  Cl  Cl540  1  0.38799648  0.31430555  0.74445751  1
  Cl  Cl541  1  0.38917130  0.64705302  0.74641660  1
  Cl  Cl542  1  0.39749687  0.98633293  0.74975607  1
  Cl  Cl543  1  0.89088704  0.31674369  0.74913393  1
  Cl  Cl544  1  0.89223511  0.64793828  0.75076816  1
  Cl  Cl545  1  0.88811680  0.98311211  0.75448260  1
  Cl  Cl546  1  0.10237499  0.01668874  0.25304853  1
  Cl  Cl547  1  0.11080998  0.34918359  0.24962719  1
  Cl  Cl548  1  0.10188986  0.68406745  0.25230573  1
  Cl  Cl549  1  0.61488399  0.01836664  0.25723831  1
  Cl  Cl550  1  0.60800054  0.35216769  0.25838547  1
  Cl  Cl551  1  0.60667326  0.68386863  0.25094368  1
