# generated using pymatgen
data_H8PbC4(N3Cl2)2
_symmetry_space_group_name_H-M   'P 1'
_cell_length_a   16.62491718
_cell_length_b   22.51769563
_cell_length_c   21.59259787
_cell_angle_alpha   90.00022914
_cell_angle_beta   90.01042545
_cell_angle_gamma   89.99907623
_symmetry_Int_Tables_number   1
_chemical_formula_structural   H8PbC4(N3Cl2)2
_chemical_formula_sum   'H192 Pb24 C96 N144 Cl96'
_cell_volume   8083.29305980
_cell_formula_units_Z   24
loop_
 _symmetry_equiv_pos_site_id
 _symmetry_equiv_pos_as_xyz
  1  'x, y, z'
loop_
 _atom_site_type_symbol
 _atom_site_label
 _atom_site_symmetry_multiplicity
 _atom_site_fract_x
 _atom_site_fract_y
 _atom_site_fract_z
 _atom_site_occupancy
  H  H0  1  0.01333761  0.03014704  0.68066449  1
  H  H1  1  -0.00566034  0.35983983  0.67749460  1
  H  H2  1  -0.00155647  0.69785191  0.67753568  1
  H  H3  1  0.49087510  0.03339482  0.67609061  1
  H  H4  1  0.49822729  0.36390720  0.67842571  1
  H  H5  1  0.51465547  0.69522915  0.67830868  1
  H  H6  1  -0.01308922  0.30571473  0.17399778  1
  H  H7  1  0.00609462  0.63766932  0.18154839  1
  H  H8  1  0.00967934  0.96890519  0.17679025  1
  H  H9  1  0.51770519  0.30280677  0.17557153  1
  H  H10  1  0.50993487  0.63397789  0.17634633  1
  H  H11  1  0.50122021  0.96875217  0.18139929  1
  H  H12  1  -0.00343275  0.02848945  0.82112840  1
  H  H13  1  0.00379672  0.35952597  0.82747991  1
  H  H14  1  -0.00008800  0.69382167  0.82653416  1
  H  H15  1  0.51330963  0.03218252  0.82071049  1
  H  H16  1  0.49530087  0.35834825  0.82446527  1
  H  H17  1  0.50928163  0.69474161  0.82311317  1
  H  H18  1  0.01869298  0.30387036  0.32638648  1
  H  H19  1  -0.00743233  0.64997651  0.32632935  1
  H  H20  1  0.01088307  0.97074953  0.32127886  1
  H  H21  1  0.48337123  0.30628375  0.32528815  1
  H  H22  1  0.50834690  0.63674545  0.32543990  1
  H  H23  1  0.48715742  0.97174057  0.32432801  1
  H  H24  1  0.25297946  0.19589375  0.68096895  1
  H  H25  1  0.23728006  0.52942911  0.67342632  1
  H  H26  1  0.26115380  0.86177686  0.67729823  1
  H  H27  1  0.74917886  0.19658735  0.67276708  1
  H  H28  1  0.76461481  0.53586501  0.68468895  1
  H  H29  1  0.74298773  0.86505778  0.67546351  1
  H  H30  1  0.25029693  0.13955047  0.17330170  1
  H  H31  1  0.25958172  0.47022020  0.18004373  1
  H  H32  1  0.25347915  0.80648126  0.17897171  1
  H  H33  1  0.75028827  0.14178722  0.17939391  1
  H  H34  1  0.73358675  0.46960023  0.17409906  1
  H  H35  1  0.74173431  0.80440435  0.17906954  1
  H  H36  1  0.25390298  0.19606291  0.82759021  1
  H  H37  1  0.25288549  0.53092309  0.81819250  1
  H  H38  1  0.24831934  0.86060549  0.82014723  1
  H  H39  1  0.75125129  0.19919869  0.82690941  1
  H  H40  1  0.75144243  0.52662974  0.82118714  1
  H  H41  1  0.74132299  0.86138557  0.82273877  1
  H  H42  1  0.25292607  0.13829465  0.31659194  1
  H  H43  1  0.23463527  0.46708331  0.31920049  1
  H  H44  1  0.24132606  0.79984419  0.32064624  1
  H  H45  1  0.75977714  0.13812027  0.32111213  1
  H  H46  1  0.75203445  0.46941555  0.32166236  1
  H  H47  1  0.75235774  0.80408488  0.31918682  1
  H  H48  1  0.12995437  0.05395044  0.60567645  1
  H  H49  1  0.12309909  0.38747716  0.61250809  1
  H  H50  1  0.12155597  0.72230515  0.60677083  1
  H  H51  1  0.62934015  0.04978204  0.62341439  1
  H  H52  1  0.62753926  0.38737219  0.61203848  1
  H  H53  1  0.61830803  0.72669251  0.59330116  1
  H  H54  1  0.37921013  0.28088248  0.12071276  1
  H  H55  1  0.37523143  0.61634894  0.11916118  1
  H  H56  1  0.36402335  0.95203722  0.12545847  1
  H  H57  1  0.88559711  0.27379786  0.08740590  1
  H  H58  1  0.87615828  0.61209236  0.11620277  1
  H  H59  1  0.87383542  0.95157565  0.12164638  1
  H  H60  1  0.37764204  0.05181825  0.88033360  1
  H  H61  1  0.38373248  0.39087419  0.90384952  1
  H  H62  1  0.36838626  0.71612858  0.87492382  1
  H  H63  1  0.87609159  0.05457782  0.89269388  1
  H  H64  1  0.87974987  0.38460205  0.89611584  1
  H  H65  1  0.86909374  0.72186097  0.88857478  1
  H  H66  1  0.12098402  0.27273214  0.41138383  1
  H  H67  1  0.11605100  0.61402659  0.39142717  1
  H  H68  1  0.13130006  0.94289225  0.39401916  1
  H  H69  1  0.62806383  0.28784893  0.37282401  1
  H  H70  1  0.61425043  0.60566440  0.40763774  1
  H  H71  1  0.63005488  0.95190037  0.37311066  1
  H  H72  1  0.36654895  0.22222217  0.60196150  1
  H  H73  1  0.38000927  0.54711945  0.62480414  1
  H  H74  1  0.36204791  0.89345686  0.59087254  1
  H  H75  1  0.87022333  0.22273724  0.60005043  1
  H  H76  1  0.88391795  0.55354093  0.60882756  1
  H  H77  1  0.86896900  0.89117716  0.60788184  1
  H  H78  1  0.12510295  0.10921420  0.10772439  1
  H  H79  1  0.11883686  0.44775060  0.12737150  1
  H  H80  1  0.13344034  0.78052057  0.10334586  1
  H  H81  1  0.62682979  0.11588252  0.10597828  1
  H  H82  1  0.62192208  0.44326290  0.09387503  1
  H  H83  1  0.63604187  0.77180185  0.09717341  1
  H  H84  1  0.12324968  0.22471781  0.88857076  1
  H  H85  1  0.13016320  0.55614720  0.89029019  1
  H  H86  1  0.13283350  0.88825465  0.89820329  1
  H  H87  1  0.62405586  0.21820056  0.89294123  1
  H  H88  1  0.62712836  0.55308788  0.89257926  1
  H  H89  1  0.63462557  0.89240313  0.90467896  1
  H  H90  1  0.37216007  0.11225224  0.39056571  1
  H  H91  1  0.37244833  0.44991373  0.37520493  1
  H  H92  1  0.37563181  0.78229738  0.37730353  1
  H  H93  1  0.87162032  0.11092082  0.40076232  1
  H  H94  1  0.86739397  0.44118850  0.39962803  1
  H  H95  1  0.88508598  0.78014096  0.38234867  1
  H  H96  1  0.38598269  0.27037490  0.41118171  1
  H  H97  1  0.36944229  0.61828395  0.38115684  1
  H  H98  1  0.38866378  0.94141496  0.41308535  1
  H  H99  1  0.87724998  0.28410599  0.37716185  1
  H  H100  1  0.86799556  0.61533734  0.39152524  1
  H  H101  1  0.88287032  0.94733083  0.38869310  1
  H  H102  1  0.12538561  0.05006815  0.88647702  1
  H  H103  1  0.12866537  0.38915456  0.89554758  1
  H  H104  1  0.11730976  0.72444743  0.89970602  1
  H  H105  1  0.62399390  0.05908251  0.90307440  1
  H  H106  1  0.63060729  0.38081847  0.88483650  1
  H  H107  1  0.61344747  0.72546710  0.90717515  1
  H  H108  1  0.12880206  0.28243960  0.12654371  1
  H  H109  1  0.12496875  0.61383450  0.10680345  1
  H  H110  1  0.11953402  0.94205708  0.09708885  1
  H  H111  1  0.62537138  0.27522901  0.09270567  1
  H  H112  1  0.62232017  0.60629474  0.09799667  1
  H  H113  1  0.61142011  0.94311720  0.10103369  1
  H  H114  1  0.38395703  0.05763314  0.59344840  1
  H  H115  1  0.37816514  0.38943180  0.60598896  1
  H  H116  1  0.37450468  0.71594545  0.62513851  1
  H  H117  1  0.88119310  0.05106663  0.61859134  1
  H  H118  1  0.87497438  0.38631002  0.60222779  1
  H  H119  1  0.87258390  0.72312687  0.60826526  1
  H  H120  1  0.12310565  0.11495978  0.38354299  1
  H  H121  1  0.12559542  0.44111357  0.39951667  1
  H  H122  1  0.12941802  0.77562913  0.40029285  1
  H  H123  1  0.62416836  0.11511578  0.37991451  1
  H  H124  1  0.61974273  0.44632895  0.38238966  1
  H  H125  1  0.63648213  0.77611590  0.39564546  1
  H  H126  1  0.37076352  0.21920044  0.90463211  1
  H  H127  1  0.37888569  0.55426291  0.88667290  1
  H  H128  1  0.38103790  0.88568902  0.88132149  1
  H  H129  1  0.87271400  0.22195177  0.89740735  1
  H  H130  1  0.87615200  0.55233018  0.89008251  1
  H  H131  1  0.88069023  0.88318073  0.87646981  1
  H  H132  1  0.37381238  0.11245393  0.10302949  1
  H  H133  1  0.36395950  0.44296439  0.09496441  1
  H  H134  1  0.38209197  0.77926610  0.11385232  1
  H  H135  1  0.87541506  0.11446235  0.10974527  1
  H  H136  1  0.86861127  0.44753311  0.11904773  1
  H  H137  1  0.88187318  0.78583031  0.12353188  1
  H  H138  1  0.11833400  0.21821348  0.61866295  1
  H  H139  1  0.13710841  0.56338067  0.58797029  1
  H  H140  1  0.11880258  0.87972758  0.62783615  1
  H  H141  1  0.62148745  0.22073037  0.60706294  1
  H  H142  1  0.63508014  0.55508090  0.61975791  1
  H  H143  1  0.62103914  0.88769872  0.60296668  1
  H  H144  1  0.39047868  0.58329556  0.48990149  1
  H  H145  1  0.42681717  0.41965852  0.49760017  1
  H  H146  1  0.28879363  0.41627292  -0.00725010  1
  H  H147  1  0.66941108  0.92215135  0.50225172  1
  H  H148  1  0.06009678  0.59377096  0.49662985  1
  H  H149  1  0.31512226  0.08003023  0.49741430  1
  H  H150  1  0.53821894  0.74939643  0.49397738  1
  H  H151  1  0.08925281  0.07771134  0.99875682  1
  H  H152  1  0.32417618  0.07996143  0.00024187  1
  H  H153  1  0.47117712  0.25049034  0.50855910  1
  H  H154  1  0.21766438  0.58562817  0.48868333  1
  H  H155  1  0.61167174  0.07943636  0.50815117  1
  H  H156  1  0.31066521  0.25903184  1.00085170  1
  H  H157  1  0.80602564  0.07967178  0.50493305  1
  H  H158  1  0.82160874  0.90492789  0.50129409  1
  H  H159  1  0.92524469  0.08494831  1.00153886  1
  H  H160  1  0.54540622  0.91654523  -0.00582199  1
  H  H161  1  0.89394784  0.92056172  1.00635935  1
  H  H162  1  0.58881667  0.41453546  0.50579777  1
  H  H163  1  0.38408802  0.92245220  0.01122503  1
  H  H164  1  0.93527626  0.41435968  0.49961488  1
  H  H165  1  0.83064184  0.56186000  0.49591311  1
  H  H166  1  0.70953694  0.74274475  -0.00550382  1
  H  H167  1  0.06812371  0.58267488  -0.00010915  1
  H  H168  1  0.35145233  0.75308485  0.49311999  1
  H  H169  1  0.81859779  0.25095281  0.49631573  1
  H  H170  1  0.15541540  0.24615547  0.99767032  1
  H  H171  1  0.47245418  0.91830164  0.50984388  1
  H  H172  1  0.53606025  0.74811781  1.00758221  1
  H  H173  1  0.08215287  0.41912908  0.99991334  1
  H  H174  1  0.45536129  0.41976126  1.00443862  1
  H  H175  1  0.90714103  0.75310794  0.99525480  1
  H  H176  1  0.28162359  0.91727380  0.49248602  1
  H  H177  1  0.61771807  0.25133438  0.48006934  1
  H  H178  1  0.08054126  0.91251167  0.50114087  1
  H  H179  1  0.53767291  0.59069021  0.50941910  1
  H  H180  1  0.07421132  0.08629511  0.49770611  1
  H  H181  1  0.67119176  0.57496245  0.50501776  1
  H  H182  1  0.70927357  0.91827580  1.00558552  1
  H  H183  1  0.55269826  0.09068289  1.00099370  1
  H  H184  1  0.93337424  0.61147367  0.49822272  1
  H  H185  1  0.34212631  0.74990669  0.00368099  1
  H  H186  1  0.30116972  0.25197374  0.49669412  1
  H  H187  1  0.84576809  0.41509609  0.00458915  1
  H  H188  1  0.82817779  0.58167872  0.99926669  1
  H  H189  1  0.69972214  0.74749747  0.50252527  1
  H  H190  1  0.39856130  0.58410981  0.00480920  1
  H  H191  1  0.19146950  0.41170685  0.50559287  1
  Pb  Pb192  1  0.24713320  0.04878339  0.74597257  1
  Pb  Pb193  1  0.24627842  0.38407668  0.75197239  1
  Pb  Pb194  1  0.24646099  0.71410039  0.75034918  1
  Pb  Pb195  1  0.74858519  0.05042875  0.75390651  1
  Pb  Pb196  1  0.75094736  0.37910829  0.74948133  1
  Pb  Pb197  1  0.74387688  0.71780036  0.74908820  1
  Pb  Pb198  1  0.25077220  0.28446673  0.25731079  1
  Pb  Pb199  1  0.24722391  0.61875580  0.25426005  1
  Pb  Pb200  1  0.25126582  0.95257012  0.25895181  1
  Pb  Pb201  1  0.75012185  0.28697790  0.24311961  1
  Pb  Pb202  1  0.75351088  0.61656415  0.25341513  1
  Pb  Pb203  1  0.74984181  0.95194110  0.24535019  1
  Pb  Pb204  1  -0.00161804  0.21459851  0.74808340  1
  Pb  Pb205  1  -0.00389229  0.55094365  0.74489840  1
  Pb  Pb206  1  -0.00094456  0.88090501  0.75189783  1
  Pb  Pb207  1  0.49413548  0.21640766  0.74727558  1
  Pb  Pb208  1  0.50106399  0.54764742  0.74836086  1
  Pb  Pb209  1  0.49573588  0.88523393  0.74777084  1
  Pb  Pb210  1  -0.00222985  0.11912986  0.25174485  1
  Pb  Pb211  1  -0.00092071  0.45028159  0.25716603  1
  Pb  Pb212  1  0.00381920  0.78708086  0.24776942  1
  Pb  Pb213  1  0.50118695  0.11952407  0.24284208  1
  Pb  Pb214  1  0.49906618  0.45257878  0.24122742  1
  Pb  Pb215  1  0.50516631  0.78179061  0.24952344  1
  C  C216  1  0.00841774  0.04510686  0.63318748  1
  C  C217  1  -0.00281993  0.37760354  0.63089805  1
  C  C218  1  -0.00280672  0.71427097  0.63055403  1
  C  C219  1  0.50254540  0.04722693  0.62885788  1
  C  C220  1  0.50185280  0.38052077  0.63116809  1
  C  C221  1  0.50284495  0.71182223  0.63202564  1
  C  C222  1  0.00046164  0.28776561  0.12868998  1
  C  C223  1  0.00218662  0.62180183  0.13422150  1
  C  C224  1  0.00004785  0.95380822  0.12971993  1
  C  C225  1  0.50703157  0.28718748  0.12896628  1
  C  C226  1  0.50171862  0.61885209  0.12913767  1
  C  C227  1  0.49174856  0.95471294  0.13378884  1
  C  C228  1  -0.00049242  0.04446925  0.86859258  1
  C  C229  1  0.00469388  0.37750572  0.87400120  1
  C  C230  1  -0.00511670  0.71211762  0.87274278  1
  C  C231  1  0.50538091  0.04772338  0.86784112  1
  C  C232  1  0.50280770  0.37572417  0.87097020  1
  C  C233  1  0.49743282  0.71053012  0.86970229  1
  C  C234  1  0.00535863  0.28748776  0.37230472  1
  C  C235  1  -0.00787612  0.62813476  0.37113566  1
  C  C236  1  0.00830763  0.95401246  0.36826393  1
  C  C237  1  0.49942223  0.28919199  0.37083915  1
  C  C238  1  0.49700142  0.62059071  0.37215934  1
  C  C239  1  0.50187433  0.95626156  0.37060795  1
  C  C240  1  0.24573370  0.21128369  0.63368739  1
  C  C241  1  0.25136306  0.54461504  0.62687890  1
  C  C242  1  0.24754497  0.87706228  0.63082201  1
  C  C243  1  0.74732123  0.21305472  0.62550610  1
  C  C244  1  0.76108473  0.54755675  0.63598630  1
  C  C245  1  0.74441889  0.88118867  0.62803259  1
  C  C246  1  0.25023358  0.12109555  0.12700932  1
  C  C247  1  0.24695684  0.45453182  0.13348134  1
  C  C248  1  0.25639048  0.78951839  0.13206648  1
  C  C249  1  0.75059296  0.12504403  0.13223780  1
  C  C250  1  0.74213412  0.45378657  0.12720364  1
  C  C251  1  0.75362595  0.78827272  0.13254435  1
  C  C252  1  0.24923552  0.21290259  0.87471141  1
  C  C253  1  0.25366342  0.54679083  0.86539017  1
  C  C254  1  0.25395812  0.87781461  0.86669451  1
  C  C255  1  0.74929514  0.21301371  0.87516600  1
  C  C256  1  0.75135220  0.54389371  0.86804360  1
  C  C257  1  0.75191902  0.87768883  0.86932848  1
  C  C258  1  0.24916757  0.12178144  0.36375504  1
  C  C259  1  0.24411130  0.45286687  0.36658196  1
  C  C260  1  0.24979007  0.78619749  0.36829500  1
  C  C261  1  0.75163394  0.12141375  0.36774727  1
  C  C262  1  0.74653837  0.45304262  0.36852190  1
  C  C263  1  0.75818427  0.78766468  0.36618776  1
  C  C264  1  0.48232858  0.07420871  0.53186404  1
  C  C265  1  0.26944757  0.24032134  0.53915796  1
  C  C266  1  0.73230154  0.75857035  0.46032998  1
  C  C267  1  0.30513938  0.76177468  0.45842295  1
  C  C268  1  0.43269817  0.93102111  0.04531301  1
  C  C269  1  0.03241434  0.59360384  0.04047152  1
  C  C270  1  0.70556902  0.23721014  0.96653403  1
  C  C271  1  0.17926371  0.90261033  0.54658951  1
  C  C272  1  0.73804285  0.75667475  0.03764389  1
  C  C273  1  0.71697867  0.42457170  0.03148785  1
  C  C274  1  0.95707579  0.07213081  0.54349004  1
  C  C275  1  0.96284004  0.40912875  0.96613958  1
  C  C276  1  0.79520708  0.56238568  0.53804596  1
  C  C277  1  0.77397560  0.09070026  0.46216313  1
  C  C278  1  0.22346304  0.42443125  0.46372685  1
  C  C279  1  0.26069971  0.42713949  0.03704120  1
  C  C280  1  0.43259277  0.73854099  0.95447535  1
  C  C281  1  0.51414029  0.92802881  0.03676486  1
  C  C282  1  0.03834356  0.07397184  0.53771342  1
  C  C283  1  0.56284891  0.07140074  0.54085566  1
  C  C284  1  0.20653392  0.08681441  0.03642769  1
  C  C285  1  0.02320184  0.92471256  0.03401136  1
  C  C286  1  0.31934184  0.56984815  0.54264266  1
  C  C287  1  0.04577717  0.06967325  0.96121714  1
  C  C288  1  0.78566463  0.23820787  0.96819849  1
  C  C289  1  0.44642995  0.59271219  0.03939021  1
  C  C290  1  0.06351182  0.25749327  0.04569428  1
  C  C291  1  0.04099927  0.92392812  0.46135013  1
  C  C292  1  0.29910397  0.76055687  0.04130495  1
  C  C293  1  0.69711250  0.42495100  0.45812109  1
  C  C294  1  0.22393338  0.75968098  0.46469895  1
  C  C295  1  0.02813239  0.74758377  0.96534245  1
  C  C296  1  0.03311801  0.74436361  0.53860764  1
  C  C297  1  0.01744059  0.25419071  0.46713056  1
  C  C298  1  0.79804650  0.42552340  0.03841911  1
  C  C299  1  0.70082088  0.23998025  0.53325230  1
  C  C300  1  0.52470747  0.25645100  0.03392875  1
  C  C301  1  0.78900033  0.57194691  0.96028713  1
  C  C302  1  0.96363390  0.07252329  0.96296715  1
  C  C303  1  0.46601245  0.40892811  0.53734202  1
  C  C304  1  0.94247683  0.92830979  0.04051360  1
  C  C305  1  0.29407178  0.57495059  0.95755125  1
  C  C306  1  0.81399497  0.90830726  0.95401306  1
  C  C307  1  0.30231033  0.90834833  0.95520005  1
  C  C308  1  0.27962043  0.09195420  0.45689138  1
  C  C309  1  0.30401588  0.42806490  0.45401792  1
  C  C310  1  0.71341289  0.56571430  0.54220869  1
  C  C311  1  0.52759465  0.58931748  0.03374181  1
  N  N312  1  0.28575630  0.08836560  0.03622739  1
  N  N313  1  0.24180816  0.57568265  0.53187551  1
  N  N314  1  0.95576436  0.74396905  0.53745487  1
  N  N315  1  0.43840177  0.73950208  0.54802104  1
  N  N316  1  0.77446623  0.42346530  0.46481088  1
  N  N317  1  0.03243611  0.58290609  0.45527643  1
  N  N318  1  0.51515002  0.74351675  0.53831294  1
  N  N319  1  0.18255496  0.42863112  0.04742534  1
  N  N320  1  0.20037011  0.09273074  0.45452872  1
  N  N321  1  0.94966044  0.58869529  0.45863013  1
  N  N322  1  0.04194546  0.41042250  0.96450590  1
  N  N323  1  0.27806351  0.23333177  0.97043276  1
  N  N324  1  0.96169861  0.92526730  0.46018877  1
  N  N325  1  0.81135102  0.75935804  0.45593436  1
  N  N326  1  0.69538474  0.09102328  0.45491780  1
  N  N327  1  0.25678575  0.90732007  0.53544268  1
  N  N328  1  0.19054384  0.23985358  0.54485692  1
  N  N329  1  0.49102972  0.25075116  0.46267672  1
  N  N330  1  0.79093746  0.09436525  0.04041676  1
  N  N331  1  0.54585555  0.40916355  0.54086014  1
  N  N332  1  0.70737044  0.90194588  0.53417508  1
  N  N333  1  0.51036983  0.74183850  0.96452128  1
  N  N334  1  0.94101369  0.25787977  0.45755006  1
  N  N335  1  0.48207815  0.41114758  0.96209035  1
  N  N336  1  0.44763654  0.25901307  0.04116912  1
  N  N337  1  0.78011023  0.24135890  0.53228397  1
  N  N338  1  0.57084606  0.93138261  0.45380217  1
  N  N339  1  0.70977051  0.57296847  0.96118931  1
  N  N340  1  0.52445136  0.07489339  0.96203094  1
  N  N341  1  0.73610211  0.91070257  0.96323690  1
  N  N342  1  0.71434669  0.09461607  0.03933553  1
  N  N343  1  0.94951977  0.74508207  0.96090858  1
  N  N344  1  0.95314649  0.59250323  0.04343958  1
  N  N345  1  0.20053844  0.24564670  0.96150968  1
  N  N346  1  0.78581973  0.91405065  0.53889013  1
  N  N347  1  0.81619813  0.76151979  0.04634178  1
  N  N348  1  0.44667780  0.07270456  0.95581275  1
  N  N349  1  0.21638191  0.57588812  0.95999450  1
  N  N350  1  0.49442660  0.92622755  0.46521469  1
  N  N351  1  0.55955913  0.40765908  0.95685181  1
  N  N352  1  0.56676153  0.26585411  0.45291143  1
  N  N353  1  0.43761681  0.59798850  0.45802878  1
  N  N354  1  0.98783420  0.25393427  0.03210828  1
  N  N355  1  0.22528509  0.90998540  0.96186811  1
  N  N356  1  0.51476486  0.58658120  0.46511125  1
  N  N357  1  0.04582341  0.40943412  0.54178751  1
  N  N358  1  0.96749793  0.40929798  0.53984934  1
  N  N359  1  0.22011383  0.76031927  0.03769551  1
  N  N360  1  0.06939302  0.05683550  0.59478901  1
  N  N361  1  0.06335986  0.39148011  0.59934755  1
  N  N362  1  0.06141510  0.72654315  0.59451095  1
  N  N363  1  0.57398779  0.05490149  0.60215204  1
  N  N364  1  0.56744181  0.39092562  0.59851245  1
  N  N365  1  0.55599408  0.72361228  0.58814095  1
  N  N366  1  0.43685476  0.27820233  0.10205619  1
  N  N367  1  0.43191336  0.61094866  0.10005620  1
  N  N368  1  0.42061579  0.94741892  0.10575572  1
  N  N369  1  0.94827610  0.27356183  0.08503454  1
  N  N370  1  0.93609505  0.61018235  0.10223329  1
  N  N371  1  0.92949820  0.94616321  0.10160960  1
  N  N372  1  0.43576822  0.05524702  0.89725651  1
  N  N373  1  0.44565780  0.38950401  0.91117930  1
  N  N374  1  0.42440604  0.72086301  0.89523327  1
  N  N375  1  0.93634766  0.05700049  0.90505268  1
  N  N376  1  0.93955752  0.38936374  0.90998214  1
  N  N377  1  0.92810317  0.72241244  0.90397935  1
  N  N378  1  0.05933055  0.27207814  0.41643033  1
  N  N379  1  0.05568508  0.61346343  0.40458554  1
  N  N380  1  0.07086939  0.94092001  0.40493871  1
  N  N381  1  0.57247369  0.28070215  0.39323115  1
  N  N382  1  0.55230766  0.60949939  0.41489163  1
  N  N383  1  0.57471129  0.94745219  0.39409944  1
  N  N384  1  0.30492377  0.22285003  0.59316840  1
  N  N385  1  0.32569741  0.55185937  0.60223916  1
  N  N386  1  0.29980588  0.88929454  0.58660383  1
  N  N387  1  0.80901034  0.22388111  0.58901223  1
  N  N388  1  0.82364896  0.55157939  0.59687772  1
  N  N389  1  0.80899451  0.89023928  0.59375112  1
  N  N390  1  0.18447060  0.10638912  0.09286219  1
  N  N391  1  0.17591070  0.44558145  0.10780215  1
  N  N392  1  0.19524799  0.77880206  0.09428569  1
  N  N393  1  0.68817476  0.11357277  0.09616895  1
  N  N394  1  0.68319190  0.44144581  0.08501591  1
  N  N395  1  0.69829461  0.77298553  0.09019015  1
  N  N396  1  0.18201052  0.22366579  0.90543775  1
  N  N397  1  0.19119338  0.55809796  0.90112856  1
  N  N398  1  0.19502382  0.89044853  0.90541571  1
  N  N399  1  0.68236274  0.22204308  0.90969522  1
  N  N400  1  0.68815042  0.55529357  0.90350072  1
  N  N401  1  0.69669460  0.88896496  0.91168939  1
  N  N402  1  0.31108826  0.10916795  0.40137974  1
  N  N403  1  0.31598277  0.44487895  0.39520451  1
  N  N404  1  0.31974114  0.77829329  0.39735706  1
  N  N405  1  0.80988994  0.10892120  0.40875214  1
  N  N406  1  0.80537936  0.44146792  0.40770954  1
  N  N407  1  0.82558175  0.77754867  0.39728037  1
  N  N408  1  0.44838029  0.27522589  0.41586914  1
  N  N409  1  0.42629521  0.61038278  0.39822519  1
  N  N410  1  0.45113747  0.94419847  0.41600534  1
  N  N411  1  0.93377029  0.27866793  0.39689382  1
  N  N412  1  0.92783752  0.61645301  0.40492757  1
  N  N413  1  0.94321313  0.94450210  0.40199895  1
  N  N414  1  0.06643098  0.05255557  0.90214803  1
  N  N415  1  0.06838071  0.39034480  0.90777157  1
  N  N416  1  0.05656443  0.72714685  0.91094552  1
  N  N417  1  0.56171520  0.06120634  0.90864646  1
  N  N418  1  0.57198386  0.38682245  0.89971872  1
  N  N419  1  0.55139939  0.72154288  0.91311000  1
  N  N420  1  0.07374090  0.27716147  0.10494738  1
  N  N421  1  0.06398082  0.61117738  0.09584937  1
  N  N422  1  0.05801931  0.94018947  0.08741568  1
  N  N423  1  0.56355915  0.27364245  0.08616770  1
  N  N424  1  0.56099019  0.60505243  0.08774867  1
  N  N425  1  0.54955734  0.94281936  0.09224667  1
  N  N426  1  0.44595028  0.05963851  0.58493415  1
  N  N427  1  0.43865941  0.39216736  0.59384099  1
  N  N428  1  0.43126136  0.72229792  0.60690597  1
  N  N429  1  0.93960529  0.05497612  0.60123801  1
  N  N430  1  0.93647953  0.38808192  0.59284926  1
  N  N431  1  0.93300603  0.72509610  0.59624336  1
  N  N432  1  0.18325737  0.11132338  0.39640270  1
  N  N433  1  0.18702875  0.44034089  0.40805634  1
  N  N434  1  0.19084366  0.77433775  0.41037749  1
  N  N435  1  0.68280152  0.11027335  0.39605189  1
  N  N436  1  0.67790080  0.44245410  0.39944812  1
  N  N437  1  0.69806165  0.77554173  0.40561661  1
  N  N438  1  0.30924565  0.22389079  0.91326582  1
  N  N439  1  0.31920098  0.55763318  0.90028901  1
  N  N440  1  0.32279213  0.88939483  0.89740534  1
  N  N441  1  0.81329278  0.22372308  0.91243199  1
  N  N442  1  0.81615196  0.55502663  0.90318100  1
  N  N443  1  0.82423589  0.88909562  0.89558817  1
  N  N444  1  0.31324033  0.11057518  0.09162846  1
  N  N445  1  0.30151536  0.44257984  0.08942626  1
  N  N446  1  0.32289386  0.77776691  0.09927691  1
  N  N447  1  0.81463604  0.11333021  0.09773790  1
  N  N448  1  0.81208178  0.44376307  0.09910718  1
  N  N449  1  0.82428392  0.78107429  0.10564527  1
  N  N450  1  0.17759812  0.22169095  0.60372689  1
  N  N451  1  0.19911627  0.55728466  0.58284046  1
  N  N452  1  0.17354484  0.88521214  0.60605428  1
  N  N453  1  0.68027940  0.22337176  0.59140626  1
  N  N454  1  0.69369280  0.55637255  0.60328368  1
  N  N455  1  0.68133787  0.89253365  0.59246738  1
  Cl  Cl456  1  0.26384094  0.05218886  0.61166596  1
  Cl  Cl457  1  0.25037373  0.38749100  0.61894035  1
  Cl  Cl458  1  0.24576342  0.71520999  0.61792348  1
  Cl  Cl459  1  0.75951878  0.05370014  0.61907704  1
  Cl  Cl460  1  0.75192842  0.38238989  0.61661953  1
  Cl  Cl461  1  0.73919942  0.72826440  0.61255783  1
  Cl  Cl462  1  0.25486334  0.27679454  0.12051536  1
  Cl  Cl463  1  0.24754899  0.61582846  0.12647738  1
  Cl  Cl464  1  0.23758088  0.95039433  0.12842110  1
  Cl  Cl465  1  0.75509563  0.27746729  0.10879630  1
  Cl  Cl466  1  0.74808500  0.60979131  0.12045465  1
  Cl  Cl467  1  0.73380805  0.93932670  0.10788435  1
  Cl  Cl468  1  0.25325124  0.05762962  0.88118065  1
  Cl  Cl469  1  0.25967084  0.38948611  0.89044232  1
  Cl  Cl470  1  0.24226413  0.72183018  0.88153231  1
  Cl  Cl471  1  0.74598901  0.05113756  0.88537837  1
  Cl  Cl472  1  0.75671390  0.38307273  0.88296728  1
  Cl  Cl473  1  0.73800811  0.72705513  0.88707057  1
  Cl  Cl474  1  0.26341774  0.27267178  0.39266439  1
  Cl  Cl475  1  0.23787649  0.60856354  0.39495216  1
  Cl  Cl476  1  0.26680839  0.93972344  0.40007682  1
  Cl  Cl477  1  0.75148073  0.28022971  0.37995219  1
  Cl  Cl478  1  0.73900223  0.60529299  0.38990037  1
  Cl  Cl479  1  0.75873988  0.94399503  0.38098811  1
  Cl  Cl480  1  -0.00800951  0.22194678  0.61439498  1
  Cl  Cl481  1  0.01368903  0.56940339  0.60144719  1
  Cl  Cl482  1  -0.00864057  0.88864972  0.61946491  1
  Cl  Cl483  1  0.49056357  0.23018839  0.60346006  1
  Cl  Cl484  1  0.50971217  0.56274890  0.60976282  1
  Cl  Cl485  1  0.48705597  0.89457002  0.60247075  1
  Cl  Cl486  1  -0.00040259  0.10946099  0.11736242  1
  Cl  Cl487  1  -0.00533134  0.44221668  0.12482274  1
  Cl  Cl488  1  0.00957077  0.77968402  0.11366540  1
  Cl  Cl489  1  0.50286759  0.11173556  0.10467670  1
  Cl  Cl490  1  0.48846816  0.44120129  0.10284547  1
  Cl  Cl491  1  0.51343867  0.76919385  0.10723068  1
  Cl  Cl492  1  0.00104853  0.22717818  0.87768599  1
  Cl  Cl493  1  0.00350414  0.55278613  0.87806937  1
  Cl  Cl494  1  0.00902435  0.88496036  0.88535278  1
  Cl  Cl495  1  0.49199954  0.21781784  0.87995874  1
  Cl  Cl496  1  0.50264397  0.55360018  0.88055747  1
  Cl  Cl497  1  0.51354890  0.89001522  0.88251790  1
  Cl  Cl498  1  -0.00441976  0.11305052  0.38484139  1
  Cl  Cl499  1  -0.00777816  0.43929270  0.39318405  1
  Cl  Cl500  1  0.00893152  0.77603262  0.37947009  1
  Cl  Cl501  1  0.49520868  0.11749461  0.37477758  1
  Cl  Cl502  1  0.49835050  0.44664229  0.37644268  1
  Cl  Cl503  1  0.51500150  0.77062155  0.39382673  1
  Cl  Cl504  1  0.35837986  0.15041318  0.75266772  1
  Cl  Cl505  1  0.36672805  0.47956041  0.74003938  1
  Cl  Cl506  1  0.36317367  0.81350488  0.74995721  1
  Cl  Cl507  1  0.86208676  0.14913423  0.75163649  1
  Cl  Cl508  1  0.86147879  0.48169036  0.75128177  1
  Cl  Cl509  1  0.86438882  0.81264102  0.75537555  1
  Cl  Cl510  1  0.14012758  0.18310583  0.24984197  1
  Cl  Cl511  1  0.13736244  0.51728195  0.24910482  1
  Cl  Cl512  1  0.14699233  0.84800182  0.25214099  1
  Cl  Cl513  1  0.63623210  0.18734062  0.25589759  1
  Cl  Cl514  1  0.63815431  0.51740937  0.24702261  1
  Cl  Cl515  1  0.64067119  0.84905856  0.25399537  1
  Cl  Cl516  1  0.14236005  0.14670357  0.75026579  1
  Cl  Cl517  1  0.14611269  0.48243099  0.74923773  1
  Cl  Cl518  1  0.14064619  0.81688532  0.74411910  1
  Cl  Cl519  1  0.64469862  0.14928852  0.74573627  1
  Cl  Cl520  1  0.63920037  0.48075164  0.74365225  1
  Cl  Cl521  1  0.64539298  0.81651787  0.74695362  1
  Cl  Cl522  1  0.36133138  0.18413647  0.24077962  1
  Cl  Cl523  1  0.36268169  0.52049383  0.25838116  1
  Cl  Cl524  1  0.36772776  0.85447690  0.25587508  1
  Cl  Cl525  1  0.85701631  0.18345921  0.25318246  1
  Cl  Cl526  1  0.86111599  0.52010072  0.25105387  1
  Cl  Cl527  1  0.86376146  0.85235037  0.24509590  1
  Cl  Cl528  1  0.11443208  0.31404563  0.74797294  1
  Cl  Cl529  1  0.10779513  0.65044994  0.75605402  1
  Cl  Cl530  1  0.11078681  0.98218292  0.75274089  1
  Cl  Cl531  1  0.61097329  0.31469628  0.74727924  1
  Cl  Cl532  1  0.60771068  0.65083903  0.75056677  1
  Cl  Cl533  1  0.61612547  0.97999453  0.73642114  1
  Cl  Cl534  1  0.38974506  0.01840758  0.24757723  1
  Cl  Cl535  1  0.38689018  0.35243046  0.24836745  1
  Cl  Cl536  1  0.38286015  0.68846718  0.25987466  1
  Cl  Cl537  1  0.88801860  0.01692379  0.24547219  1
  Cl  Cl538  1  0.89153951  0.34808087  0.25751459  1
  Cl  Cl539  1  0.88729082  0.68799963  0.24983198  1
  Cl  Cl540  1  0.39524407  0.31457647  0.74950740  1
  Cl  Cl541  1  0.38455722  0.64561797  0.74707659  1
  Cl  Cl542  1  0.39877736  0.98289046  0.75685081  1
  Cl  Cl543  1  0.89406362  0.31789238  0.74978116  1
  Cl  Cl544  1  0.89056249  0.64520488  0.74461464  1
  Cl  Cl545  1  0.88873903  0.98078132  0.74906623  1
  Cl  Cl546  1  0.10942242  0.01764095  0.25452120  1
  Cl  Cl547  1  0.11413188  0.35206361  0.24353068  1
  Cl  Cl548  1  0.10737480  0.68184862  0.25590036  1
  Cl  Cl549  1  0.61162322  0.01825774  0.25589218  1
  Cl  Cl550  1  0.60851773  0.35108931  0.25472755  1
  Cl  Cl551  1  0.60162850  0.68229375  0.25061450  1
