# generated using pymatgen
data_H8PbC4(N3Cl2)2
_symmetry_space_group_name_H-M   'P 1'
_cell_length_a   16.62766735
_cell_length_b   22.51217589
_cell_length_c   21.59313872
_cell_angle_alpha   90.00117543
_cell_angle_beta   90.01746698
_cell_angle_gamma   90.00123897
_symmetry_Int_Tables_number   1
_chemical_formula_structural   H8PbC4(N3Cl2)2
_chemical_formula_sum   'H192 Pb24 C96 N144 Cl96'
_cell_volume   8082.85066695
_cell_formula_units_Z   24
loop_
 _symmetry_equiv_pos_site_id
 _symmetry_equiv_pos_as_xyz
  1  'x, y, z'
loop_
 _atom_site_type_symbol
 _atom_site_label
 _atom_site_symmetry_multiplicity
 _atom_site_fract_x
 _atom_site_fract_y
 _atom_site_fract_z
 _atom_site_occupancy
  H  H0  1  0.01278611  0.03011887  0.67596333  1
  H  H1  1  -0.01574763  0.36304662  0.67339112  1
  H  H2  1  -0.00111368  0.69912658  0.67807151  1
  H  H3  1  0.48470209  0.03288834  0.67370686  1
  H  H4  1  0.51212135  0.36414577  0.67968995  1
  H  H5  1  0.50042474  0.69851316  0.68456651  1
  H  H6  1  0.00326251  0.29998885  0.18504186  1
  H  H7  1  0.00774425  0.63451882  0.18033551  1
  H  H8  1  0.00556848  0.97061908  0.18168966  1
  H  H9  1  0.49190370  0.30044414  0.17616907  1
  H  H10  1  0.49093742  0.64202103  0.17987764  1
  H  H11  1  0.50390214  0.96932989  0.17967206  1
  H  H12  1  0.00433389  0.02996603  0.82315976  1
  H  H13  1  -0.00170354  0.36569078  0.81905312  1
  H  H14  1  -0.01521287  0.69961714  0.82505624  1
  H  H15  1  0.50547351  0.02915043  0.81804834  1
  H  H16  1  0.49323132  0.36542894  0.81965937  1
  H  H17  1  0.51386429  0.69836003  0.81929123  1
  H  H18  1  0.01365222  0.30604356  0.32293920  1
  H  H19  1  -0.00305004  0.63951650  0.31903210  1
  H  H20  1  0.00090271  0.97342546  0.32438608  1
  H  H21  1  0.49668691  0.30123815  0.31974959  1
  H  H22  1  0.48966670  0.63663521  0.32239156  1
  H  H23  1  0.49387419  0.97479578  0.32381271  1
  H  H24  1  0.25621401  0.19529882  0.68020310  1
  H  H25  1  0.25488008  0.52537713  0.67919297  1
  H  H26  1  0.25438575  0.86564891  0.67849730  1
  H  H27  1  0.74380280  0.19336263  0.67538825  1
  H  H28  1  0.74677839  0.52828559  0.67970773  1
  H  H29  1  0.73985989  0.86337875  0.67655722  1
  H  H30  1  0.25161161  0.13516985  0.18116565  1
  H  H31  1  0.25585199  0.46928841  0.17769621  1
  H  H32  1  0.26057685  0.80670697  0.17757987  1
  H  H33  1  0.73920525  0.13387535  0.17661809  1
  H  H34  1  0.75337560  0.47110506  0.17785803  1
  H  H35  1  0.75161479  0.80331069  0.17739809  1
  H  H36  1  0.22945689  0.19571895  0.82151618  1
  H  H37  1  0.25704196  0.53241457  0.82017049  1
  H  H38  1  0.25096950  0.86237382  0.82041282  1
  H  H39  1  0.76014714  0.19628600  0.82574198  1
  H  H40  1  0.73795591  0.53173968  0.81862222  1
  H  H41  1  0.75933655  0.86097727  0.81828247  1
  H  H42  1  0.24684220  0.13537750  0.32728179  1
  H  H43  1  0.25837934  0.46887580  0.31752208  1
  H  H44  1  0.26605326  0.80305581  0.32281446  1
  H  H45  1  0.75660488  0.13862425  0.32134107  1
  H  H46  1  0.74395907  0.46760691  0.32033815  1
  H  H47  1  0.73230816  0.80631304  0.32403654  1
  H  H48  1  0.13148709  0.05413396  0.60064913  1
  H  H49  1  0.12559745  0.37914652  0.62603889  1
  H  H50  1  0.12382383  0.72144650  0.60885891  1
  H  H51  1  0.62557755  0.04792945  0.62470755  1
  H  H52  1  0.62422476  0.38888749  0.59947329  1
  H  H53  1  0.62528647  0.72076130  0.61586320  1
  H  H54  1  0.38278070  0.27574342  0.09542174  1
  H  H55  1  0.37341726  0.61106534  0.10705298  1
  H  H56  1  0.37318144  0.94774318  0.11708393  1
  H  H57  1  0.87928891  0.27603055  0.11276170  1
  H  H58  1  0.87218953  0.61737058  0.12062042  1
  H  H59  1  0.87625128  0.94803286  0.11454182  1
  H  H60  1  0.37400250  0.05199073  0.88421110  1
  H  H61  1  0.38808460  0.38996272  0.90332615  1
  H  H62  1  0.38376500  0.72179131  0.88564997  1
  H  H63  1  0.87181058  0.05411209  0.88738559  1
  H  H64  1  0.88749277  0.39265549  0.89883241  1
  H  H65  1  0.88273425  0.72431303  0.91131758  1
  H  H66  1  0.12249619  0.27458985  0.40499129  1
  H  H67  1  0.12682678  0.61350443  0.38502828  1
  H  H68  1  0.12679019  0.94947289  0.39464794  1
  H  H69  1  0.62868665  0.28167371  0.38293063  1
  H  H70  1  0.62986491  0.61688425  0.37354172  1
  H  H71  1  0.63090313  0.95040621  0.38123373  1
  H  H72  1  0.36900481  0.21842270  0.59941956  1
  H  H73  1  0.36610115  0.55609386  0.59933993  1
  H  H74  1  0.36495063  0.89629202  0.59707302  1
  H  H75  1  0.87605001  0.22030342  0.61411790  1
  H  H76  1  0.86622867  0.55407361  0.60424711  1
  H  H77  1  0.87086966  0.88490203  0.61114055  1
  H  H78  1  0.12782332  0.11244963  0.10870833  1
  H  H79  1  0.11760759  0.44871097  0.12277345  1
  H  H80  1  0.12657866  0.78382199  0.11673320  1
  H  H81  1  0.63184688  0.10605116  0.09433840  1
  H  H82  1  0.61568223  0.44712962  0.12448296  1
  H  H83  1  0.62185356  0.77887589  0.11232548  1
  H  H84  1  0.12850365  0.22387235  0.90980563  1
  H  H85  1  0.12742796  0.55321918  0.88577884  1
  H  H86  1  0.13106416  0.88716494  0.89570899  1
  H  H87  1  0.61753651  0.21485830  0.87608033  1
  H  H88  1  0.62952940  0.55773523  0.90109779  1
  H  H89  1  0.62840601  0.88535133  0.88265191  1
  H  H90  1  0.37144205  0.11340037  0.39481160  1
  H  H91  1  0.37354803  0.44119800  0.39702170  1
  H  H92  1  0.36381121  0.77217744  0.41081213  1
  H  H93  1  0.87298159  0.10893548  0.39614379  1
  H  H94  1  0.87856622  0.44955400  0.38076386  1
  H  H95  1  0.87648531  0.78884990  0.36952168  1
  H  H96  1  0.37985117  0.27579978  0.39358744  1
  H  H97  1  0.38481037  0.60524188  0.40690173  1
  H  H98  1  0.38454821  0.94766640  0.40718348  1
  H  H99  1  0.87667478  0.28543156  0.38247551  1
  H  H100  1  0.87819681  0.61305933  0.39309465  1
  H  H101  1  0.87824935  0.94609016  0.39443825  1
  H  H102  1  0.11989334  0.05603585  0.90070653  1
  H  H103  1  0.13463623  0.38705791  0.87764260  1
  H  H104  1  0.12564744  0.71520310  0.87335764  1
  H  H105  1  0.62195268  0.05646907  0.89616206  1
  H  H106  1  0.63366897  0.38259175  0.87221260  1
  H  H107  1  0.63186310  0.72324606  0.89717849  1
  H  H108  1  0.12902045  0.27861284  0.11582973  1
  H  H109  1  0.11993792  0.61306274  0.10157291  1
  H  H110  1  0.12516002  0.94547067  0.10800737  1
  H  H111  1  0.62934867  0.28171995  0.12037789  1
  H  H112  1  0.62234534  0.61643373  0.11619588  1
  H  H113  1  0.62214887  0.94571624  0.10501192  1
  H  H114  1  0.38200251  0.05982437  0.58852931  1
  H  H115  1  0.37741023  0.38281657  0.61999264  1
  H  H116  1  0.37567033  0.72076311  0.61562015  1
  H  H117  1  0.88234977  0.05004547  0.61322286  1
  H  H118  1  0.88308595  0.39360035  0.58805130  1
  H  H119  1  0.87468236  0.72178374  0.60848712  1
  H  H120  1  0.12269921  0.11178769  0.39508791  1
  H  H121  1  0.12598399  0.44737208  0.38171596  1
  H  H122  1  0.12232228  0.78689354  0.36923927  1
  H  H123  1  0.62457469  0.11646473  0.38528921  1
  H  H124  1  0.63044860  0.44378764  0.39786301  1
  H  H125  1  0.63538932  0.77360824  0.41191213  1
  H  H126  1  0.37097036  0.21668481  0.87241408  1
  H  H127  1  0.37556481  0.55717029  0.89483904  1
  H  H128  1  0.37955594  0.88794075  0.88473052  1
  H  H129  1  0.86068459  0.22715246  0.91240550  1
  H  H130  1  0.87606134  0.55285303  0.87621902  1
  H  H131  1  0.87698440  0.88499620  0.89499837  1
  H  H132  1  0.37710546  0.11231950  0.11142448  1
  H  H133  1  0.36368326  0.43967989  0.09632851  1
  H  H134  1  0.37307683  0.77437710  0.09924339  1
  H  H135  1  0.87798652  0.11531840  0.12055782  1
  H  H136  1  0.86184990  0.44405314  0.09446852  1
  H  H137  1  0.87046198  0.77688160  0.10302134  1
  H  H138  1  0.12094160  0.21704798  0.61887669  1
  H  H139  1  0.11903993  0.54974906  0.62299304  1
  H  H140  1  0.11819888  0.88263432  0.61740687  1
  H  H141  1  0.62875288  0.22165220  0.59738784  1
  H  H142  1  0.61741876  0.55281957  0.61446369  1
  H  H143  1  0.62259934  0.89433170  0.60277138  1
  H  H144  1  0.46055986  0.41556988  1.00915475  1
  H  H145  1  0.93440994  0.58153943  0.49963128  1
  H  H146  1  0.11010743  0.41203443  0.98845046  1
  H  H147  1  0.44852245  0.24851320  -0.01108941  1
  H  H148  1  0.21179233  0.24554023  1.00741439  1
  H  H149  1  0.41220925  0.42464435  0.51887530  1
  H  H150  1  0.29173952  0.41415628  -0.00527384  1
  H  H151  1  0.41990544  0.74597206  0.50350308  1
  H  H152  1  0.43092578  0.58111889  -0.00184170  1
  H  H153  1  0.63450788  0.41578494  0.00962661  1
  H  H154  1  0.29213339  0.92632134  0.49797410  1
  H  H155  1  0.69162877  0.41714483  0.50724357  1
  H  H156  1  0.95376760  0.42294627  1.00444725  1
  H  H157  1  0.70261918  0.58653102  1.00537163  1
  H  H158  1  0.87322339  0.75415615  0.48212287  1
  H  H159  1  0.06889582  0.91493296  0.00052428  1
  H  H160  1  0.30213966  0.24349690  0.49317274  1
  H  H161  1  0.11515961  0.41157858  0.51037828  1
  H  H162  1  0.40453301  0.91972424  0.00430066  1
  H  H163  1  0.31161309  0.60464129  0.98707099  1
  H  H164  1  0.12643933  0.75356422  0.48232764  1
  H  H165  1  0.30526604  0.75297577  -0.00362422  1
  H  H166  1  0.77740180  0.24207595  1.01128580  1
  H  H167  1  0.71837630  0.75372856  0.50912793  1
  H  H168  1  0.55466950  0.39713027  0.49660122  1
  H  H169  1  0.29739229  0.57722787  0.49664803  1
  H  H170  1  0.11481271  0.74475143  -0.01073930  1
  H  H171  1  0.45947915  0.92100144  0.50700987  1
  H  H172  1  0.28143922  0.75549577  0.50912016  1
  H  H173  1  0.46067918  0.58483683  0.50683966  1
  H  H174  1  0.14372993  0.58382269  0.51199171  1
  H  H175  1  0.43639080  0.24533255  0.50339439  1
  H  H176  1  0.81848051  0.91586147  1.00049627  1
  H  H177  1  0.32966421  0.08222540  0.00267194  1
  H  H178  1  0.83827657  0.25147645  0.50811130  1
  H  H179  1  0.58142444  0.59956113  0.00706484  1
  H  H180  1  0.61542381  0.58460255  0.48688100  1
  H  H181  1  0.57002511  0.91610414  -0.00291877  1
  H  H182  1  0.92954857  0.24981619  0.00800090  1
  H  H183  1  0.05657223  0.59156847  -0.00918119  1
  H  H184  1  0.62831573  0.24827545  0.98758492  1
  H  H185  1  0.79023148  0.42103912  -0.00597960  1
  H  H186  1  0.08365251  0.25318285  0.00379831  1
  H  H187  1  0.61394872  0.07878557  0.50935221  1
  H  H188  1  0.58067990  0.74656101  0.50348485  1
  H  H189  1  0.90993543  0.08065295  0.99338914  1
  H  H190  1  0.17621470  0.55824620  0.99470635  1
  H  H191  1  0.91621795  0.08071649  0.49994879  1
  Pb  Pb192  1  0.24995784  0.04691848  0.74824704  1
  Pb  Pb193  1  0.25408545  0.37885680  0.75841524  1
  Pb  Pb194  1  0.24670902  0.71706695  0.74805807  1
  Pb  Pb195  1  0.75181635  0.04740176  0.75237111  1
  Pb  Pb196  1  0.75384766  0.38068025  0.74768382  1
  Pb  Pb197  1  0.75534412  0.71449960  0.75205030  1
  Pb  Pb198  1  0.25368740  0.28363220  0.24966142  1
  Pb  Pb199  1  0.25271534  0.61680492  0.24956384  1
  Pb  Pb200  1  0.25330281  0.95279765  0.25849730  1
  Pb  Pb201  1  0.75601792  0.28375625  0.24691907  1
  Pb  Pb202  1  0.74983671  0.62151241  0.24874876  1
  Pb  Pb203  1  0.75086130  0.95323089  0.24638283  1
  Pb  Pb204  1  0.00016179  0.21436248  0.76357910  1
  Pb  Pb205  1  0.00160788  0.54650805  0.74794110  1
  Pb  Pb206  1  -0.00376173  0.88161415  0.75571701  1
  Pb  Pb207  1  0.50087768  0.21248139  0.74075888  1
  Pb  Pb208  1  0.49910627  0.55011449  0.75234289  1
  Pb  Pb209  1  0.50158976  0.88151010  0.74186002  1
  Pb  Pb210  1  0.00415773  0.11718045  0.25172980  1
  Pb  Pb211  1  -0.00268148  0.45446855  0.24145096  1
  Pb  Pb212  1  0.00020203  0.78732602  0.24279364  1
  Pb  Pb213  1  0.50195195  0.11919692  0.24602659  1
  Pb  Pb214  1  0.50354139  0.44955536  0.25615772  1
  Pb  Pb215  1  0.49941519  0.78623082  0.25880253  1
  C  C216  1  0.00827345  0.04462756  0.62828231  1
  C  C217  1  -0.00133203  0.37850212  0.62717701  1
  C  C218  1  -0.00083017  0.71346562  0.63023410  1
  C  C219  1  0.49857307  0.04716899  0.62699137  1
  C  C220  1  0.50448970  0.37855526  0.63194296  1
  C  C221  1  0.50044064  0.71308808  0.63662475  1
  C  C222  1  0.00327513  0.28622362  0.13677203  1
  C  C223  1  0.00003737  0.62159603  0.13240615  1
  C  C224  1  0.00214149  0.95516492  0.13421731  1
  C  C225  1  0.50139757  0.28667211  0.12844460  1
  C  C226  1  0.49627065  0.62465519  0.13308106  1
  C  C227  1  0.49956989  0.95413687  0.13200318  1
  C  C228  1  -0.00180023  0.04616854  0.87022155  1
  C  C229  1  0.00790382  0.38000709  0.86664555  1
  C  C230  1  -0.00119577  0.71305275  0.87196405  1
  C  C231  1  0.50047062  0.04493407  0.86540542  1
  C  C232  1  0.50510639  0.37904671  0.86697121  1
  C  C233  1  0.50991595  0.71345484  0.86693158  1
  C  C234  1  0.00447846  0.29001565  0.36988201  1
  C  C235  1  0.00104097  0.62272474  0.36608126  1
  C  C236  1  0.00240029  0.95635228  0.37116182  1
  C  C237  1  0.50146397  0.28656581  0.36732811  1
  C  C238  1  0.50135227  0.62073869  0.36915046  1
  C  C239  1  0.50272883  0.95831729  0.37050072  1
  C  C240  1  0.24866226  0.20986459  0.63263645  1
  C  C241  1  0.24683064  0.54256129  0.63249813  1
  C  C242  1  0.24631178  0.88118082  0.63135588  1
  C  C243  1  0.74970493  0.21130450  0.62895730  1
  C  C244  1  0.74369603  0.54470330  0.63270699  1
  C  C245  1  0.74462828  0.88032296  0.62987047  1
  C  C246  1  0.25216527  0.11974960  0.13358600  1
  C  C247  1  0.24585034  0.45347905  0.13081418  1
  C  C248  1  0.25377690  0.78915017  0.13116916  1
  C  C249  1  0.75006520  0.11851751  0.12998192  1
  C  C250  1  0.74368733  0.45502615  0.13089769  1
  C  C251  1  0.74775006  0.78681295  0.13052347  1
  C  C252  1  0.24239063  0.21141220  0.86797010  1
  C  C253  1  0.25322243  0.54764019  0.86788076  1
  C  C254  1  0.25362193  0.87865735  0.86739805  1
  C  C255  1  0.74586522  0.21206836  0.87220588  1
  C  C256  1  0.74823528  0.54707808  0.86558235  1
  C  C257  1  0.75481266  0.87682628  0.86557992  1
  C  C258  1  0.24692599  0.12002970  0.37478374  1
  C  C259  1  0.25285074  0.45331557  0.36487798  1
  C  C260  1  0.25074266  0.78870626  0.36947815  1
  C  C261  1  0.75112110  0.12210590  0.36807559  1
  C  C262  1  0.75073510  0.45366290  0.36803665  1
  C  C263  1  0.74801271  0.79065090  0.37019994  1
  C  C264  1  0.68323767  0.42591885  0.04504619  1
  C  C265  1  0.02453947  0.59877304  0.03412963  1
  C  C266  1  0.47127650  0.25822412  0.46296389  1
  C  C267  1  0.96680038  0.92309627  0.46201736  1
  C  C268  1  0.54153964  0.73699808  0.54248921  1
  C  C269  1  0.69941378  0.57240057  0.54177231  1
  C  C270  1  0.18037819  0.76215737  0.45144205  1
  C  C271  1  0.18505832  0.42519331  0.04437590  1
  C  C272  1  0.95909514  0.73934397  0.53686747  1
  C  C273  1  0.03301600  0.92672591  0.04076006  1
  C  C274  1  0.04180127  0.07202292  0.53353204  1
  C  C275  1  0.98454798  0.40830813  0.53025967  1
  C  C276  1  0.18970831  0.57364998  0.54636795  1
  C  C277  1  0.29787666  0.90862546  0.95784112  1
  C  C278  1  0.45946489  0.73687834  0.54240294  1
  C  C279  1  0.77998252  0.08915022  0.46098999  1
  C  C280  1  0.56554619  0.59305300  0.45357915  1
  C  C281  1  0.73062725  0.57503834  0.96140301  1
  C  C282  1  0.94387508  0.59998870  0.04289629  1
  C  C283  1  0.48340382  0.07499793  0.52984419  1
  C  C284  1  0.03999427  0.73917807  0.53695255  1
  C  C285  1  0.56241801  0.26297872  0.03996992  1
  C  C286  1  0.06458337  0.40358674  0.54165655  1
  C  C287  1  0.29015719  0.09296739  0.04121458  1
  C  C288  1  0.48968222  0.40475212  0.96541766  1
  C  C289  1  0.45014551  0.92852732  0.04041630  1
  C  C290  1  0.97037492  0.59375518  0.45951270  1
  C  C291  1  0.72481603  0.42745674  0.46518992  1
  C  C292  1  0.80579092  0.42944904  0.45756040  1
  C  C293  1  0.98420292  0.40951131  0.96200128  1
  C  C294  1  0.71532582  0.91383596  0.53763574  1
  C  C295  1  0.98427859  0.73911926  0.96974511  1
  C  C296  1  0.04568667  0.26259968  0.04356164  1
  C  C297  1  0.56965976  0.40174208  0.95355130  1
  C  C298  1  0.96022099  0.07101425  0.53630775  1
  C  C299  1  0.73207859  0.08776920  0.03475610  1
  C  C300  1  0.46346511  0.59375151  0.03969479  1
  C  C301  1  0.77826101  0.75533073  0.03792197  1
  C  C302  1  0.78320760  0.90502766  0.95965625  1
  C  C303  1  0.53226647  0.92730207  0.03654750  1
  C  C304  1  0.27098034  0.23523489  0.53670050  1
  C  C305  1  0.48110553  0.26021566  0.03095411  1
  C  C306  1  0.06432645  0.73622881  0.95811519  1
  C  C307  1  0.28774414  0.09202728  0.46631429  1
  C  C308  1  0.81910362  0.76294328  0.45142728  1
  C  C309  1  0.55240311  0.26108374  0.45763343  1
  C  C310  1  0.56344756  0.07098529  0.54080190  1
  C  C311  1  0.20672275  0.09156685  0.46632446  1
  N  N312  1  0.77674240  0.57367723  0.53717119  1
  N  N313  1  0.26343272  0.42224740  0.03650596  1
  N  N314  1  0.22029512  0.90844247  0.96257541  1
  N  N315  1  0.27615774  0.75884162  0.03806612  1
  N  N316  1  0.96618803  0.26444965  0.04292951  1
  N  N317  1  0.70096956  0.75621077  0.03935947  1
  N  N318  1  0.68045399  0.23480198  0.95587375  1
  N  N319  1  0.75718176  0.24600547  0.96593971  1
  N  N320  1  0.19248271  0.23588740  0.54335026  1
  N  N321  1  0.19861178  0.76132079  0.04341024  1
  N  N322  1  0.23303554  0.24100056  0.96267113  1
  N  N323  1  0.46396606  0.74008763  0.95855135  1
  N  N324  1  0.48455172  0.92666459  0.46338543  1
  N  N325  1  0.52941890  0.40851121  0.53828645  1
  N  N326  1  0.20581834  0.57584113  0.95721949  1
  N  N327  1  0.54303982  0.59544437  0.04382729  1
  N  N328  1  0.95208663  0.07408572  0.95859305  1
  N  N329  1  0.52958833  0.07443911  0.96019539  1
  N  N330  1  0.45023044  0.39711219  0.54278919  1
  N  N331  1  0.80896735  0.09122934  0.04204410  1
  N  N332  1  0.28017307  0.42580213  0.46063817  1
  N  N333  1  0.28744332  0.56974155  0.96262843  1
  N  N334  1  0.80901156  0.57321854  0.95296313  1
  N  N335  1  0.95366562  0.92707099  0.04287038  1
  N  N336  1  0.70402928  0.90569313  0.95593308  1
  N  N337  1  0.74147530  0.75754634  0.46502229  1
  N  N338  1  0.18839768  0.90499484  0.54316938  1
  N  N339  1  0.25815462  0.75712681  0.46490027  1
  N  N340  1  0.79234876  0.91042113  0.53878383  1
  N  N341  1  0.30969676  0.23817206  0.95130102  1
  N  N342  1  0.56186131  0.92714759  0.45577013  1
  N  N343  1  0.04950834  0.59460993  0.45735838  1
  N  N344  1  0.26877130  0.57560949  0.53893376  1
  N  N345  1  0.21083311  0.09278072  0.03979083  1
  N  N346  1  0.94912276  0.26288321  0.45814798  1
  N  N347  1  0.20399187  0.42695369  0.45522284  1
  N  N348  1  0.04393039  0.92402935  0.46326971  1
  N  N349  1  0.06305524  0.40562484  0.95424537  1
  N  N350  1  0.26557017  0.90959760  0.53762488  1
  N  N351  1  0.03004796  0.07493550  0.96484485  1
  N  N352  1  0.70253645  0.09184641  0.45813734  1
  N  N353  1  0.45331736  0.07272412  0.95643100  1
  N  N354  1  0.54036010  0.74016923  0.96225689  1
  N  N355  1  0.02465623  0.25887029  0.46542114  1
  N  N356  1  0.48704520  0.58922675  0.46380984  1
  N  N357  1  0.76222776  0.42444266  0.03645111  1
  N  N358  1  0.71863171  0.24355687  0.53527436  1
  N  N359  1  0.79640908  0.24336391  0.54228784  1
  N  N360  1  0.07067194  0.05631540  0.58909130  1
  N  N361  1  0.07165295  0.38539526  0.60298097  1
  N  N362  1  0.06422874  0.72343856  0.59460826  1
  N  N363  1  0.57129195  0.05392956  0.60218834  1
  N  N364  1  0.56242422  0.38570012  0.59057468  1
  N  N365  1  0.56561975  0.72229841  0.60131295  1
  N  N366  1  0.44435636  0.27542980  0.08681516  1
  N  N367  1  0.43427091  0.60969784  0.09556163  1
  N  N368  1  0.43160000  0.94485554  0.10022104  1
  N  N369  1  0.94002933  0.27864182  0.10056428  1
  N  N370  1  0.92946780  0.61353971  0.10209039  1
  N  N371  1  0.93638613  0.94462691  0.10135797  1
  N  N372  1  0.43405846  0.05463649  0.89758554  1
  N  N373  1  0.45017404  0.39024762  0.91029438  1
  N  N374  1  0.44390199  0.72357328  0.89946834  1
  N  N375  1  0.93145211  0.05583021  0.90168802  1
  N  N376  1  0.94961702  0.39362050  0.90776028  1
  N  N377  1  0.94478965  0.72509595  0.91782742  1
  N  N378  1  0.06049800  0.27571200  0.41099464  1
  N  N379  1  0.06712378  0.61281808  0.39869398  1
  N  N380  1  0.06654538  0.94524254  0.40536609  1
  N  N381  1  0.57025624  0.27780316  0.39983798  1
  N  N382  1  0.57416750  0.61083357  0.39426059  1
  N  N383  1  0.57250145  0.94525790  0.39738155  1
  N  N384  1  0.30737041  0.21991010  0.59132380  1
  N  N385  1  0.30400785  0.55292202  0.59122262  1
  N  N386  1  0.30273546  0.89619281  0.59118106  1
  N  N387  1  0.81676248  0.22299679  0.59854413  1
  N  N388  1  0.80444543  0.55572853  0.59517746  1
  N  N389  1  0.81089856  0.88928162  0.59755535  1
  N  N390  1  0.18896416  0.10918830  0.09777990  1
  N  N391  1  0.17378648  0.44339271  0.10342146  1
  N  N392  1  0.18513448  0.77882799  0.10154230  1
  N  N393  1  0.69362579  0.10457036  0.08722994  1
  N  N394  1  0.67194633  0.44325541  0.10443301  1
  N  N395  1  0.68167888  0.77628726  0.09832157  1
  N  N396  1  0.19040370  0.22193177  0.91309443  1
  N  N397  1  0.18702425  0.55191377  0.90146939  1
  N  N398  1  0.19268056  0.88919080  0.90486048  1
  N  N399  1  0.67365532  0.22163357  0.89588384  1
  N  N400  1  0.69141603  0.55889499  0.90812901  1
  N  N401  1  0.68821936  0.88806442  0.89714898  1
  N  N402  1  0.31230686  0.10920558  0.41037911  1
  N  N403  1  0.31169482  0.44218545  0.40458346  1
  N  N404  1  0.30184868  0.77764600  0.41510595  1
  N  N405  1  0.81179953  0.10746337  0.40651332  1
  N  N406  1  0.82084904  0.44515716  0.39895348  1
  N  N407  1  0.82245018  0.78156302  0.39226206  1
  N  N408  1  0.44039716  0.27455140  0.40550075  1
  N  N409  1  0.44742602  0.60934102  0.41265910  1
  N  N410  1  0.44698436  0.94801802  0.41288855  1
  N  N411  1  0.93526039  0.28249689  0.39898522  1
  N  N412  1  0.93928404  0.61066979  0.40389252  1
  N  N413  1  0.93841713  0.94250156  0.40676435  1
  N  N414  1  0.05833131  0.05826612  0.90919369  1
  N  N415  1  0.07725327  0.38564696  0.89597414  1
  N  N416  1  0.07176806  0.71996300  0.89638169  1
  N  N417  1  0.56015518  0.05722151  0.90415469  1
  N  N418  1  0.57852067  0.38654129  0.89363494  1
  N  N419  1  0.57022657  0.72376098  0.90564292  1
  N  N420  1  0.06917162  0.27692163  0.10152146  1
  N  N421  1  0.05880541  0.61202122  0.09146358  1
  N  N422  1  0.06422283  0.94381808  0.09640385  1
  N  N423  1  0.57333427  0.27897828  0.09992312  1
  N  N424  1  0.56289458  0.61798778  0.10059623  1
  N  N425  1  0.56139407  0.94316160  0.09383621  1
  N  N426  1  0.44416385  0.06066970  0.58175326  1
  N  N427  1  0.43571290  0.39055852  0.60390373  1
  N  N428  1  0.43532824  0.72208118  0.60127166  1
  N  N429  1  0.94080496  0.05386161  0.59635489  1
  N  N430  1  0.94476756  0.39323747  0.58179660  1
  N  N431  1  0.93444243  0.72365998  0.59432968  1
  N  N432  1  0.18186514  0.10840006  0.41033256  1
  N  N433  1  0.18565677  0.44330113  0.39613217  1
  N  N434  1  0.17647755  0.77986773  0.39195159  1
  N  N435  1  0.68426601  0.11273768  0.39958263  1
  N  N436  1  0.69133610  0.44268950  0.40807149  1
  N  N437  1  0.69738856  0.77846296  0.41579540  1
  N  N438  1  0.31459627  0.22213856  0.89196086  1
  N  N439  1  0.31438514  0.56320863  0.90351241  1
  N  N440  1  0.32060282  0.89095669  0.90015098  1
  N  N441  1  0.79829306  0.22316129  0.91706240  1
  N  N442  1  0.81813790  0.55638707  0.89339675  1
  N  N443  1  0.81586859  0.88781679  0.90450560  1
  N  N444  1  0.31712098  0.10932458  0.09847180  1
  N  N445  1  0.30156445  0.44192480  0.08910824  1
  N  N446  1  0.31140402  0.77714003  0.09084342  1
  N  N447  1  0.82019578  0.11017203  0.10286003  1
  N  N448  1  0.79928553  0.44524724  0.08833274  1
  N  N449  1  0.80979083  0.77361560  0.09266492  1
  N  N450  1  0.18014507  0.21968148  0.60292583  1
  N  N451  1  0.17615672  0.55502634  0.60482672  1
  N  N452  1  0.17674247  0.88684594  0.60127753  1
  N  N453  1  0.69014071  0.22432321  0.58992120  1
  N  N454  1  0.67647544  0.55566595  0.59978613  1
  N  N455  1  0.68300761  0.89560481  0.59224173  1
  Cl  Cl456  1  0.25935372  0.05428679  0.61362523  1
  Cl  Cl457  1  0.25665905  0.38241971  0.62857825  1
  Cl  Cl458  1  0.25238732  0.72556513  0.61029098  1
  Cl  Cl459  1  0.75799414  0.05352430  0.62358899  1
  Cl  Cl460  1  0.74726828  0.39229386  0.61290545  1
  Cl  Cl461  1  0.74822435  0.72688837  0.61323498  1
  Cl  Cl462  1  0.25245501  0.27521921  0.10749511  1
  Cl  Cl463  1  0.24808169  0.60792171  0.10830987  1
  Cl  Cl464  1  0.24759818  0.94561076  0.12809896  1
  Cl  Cl465  1  0.75910558  0.26882510  0.10726171  1
  Cl  Cl466  1  0.74418984  0.61024941  0.11338266  1
  Cl  Cl467  1  0.74930605  0.94670260  0.11315717  1
  Cl  Cl468  1  0.24679333  0.05381425  0.88279621  1
  Cl  Cl469  1  0.26442467  0.39458724  0.89823389  1
  Cl  Cl470  1  0.26196800  0.72256265  0.88623239  1
  Cl  Cl471  1  0.74705061  0.05824852  0.88817895  1
  Cl  Cl472  1  0.76733363  0.39143233  0.88966707  1
  Cl  Cl473  1  0.75827853  0.72324115  0.88465531  1
  Cl  Cl474  1  0.24994078  0.27423154  0.38373593  1
  Cl  Cl475  1  0.26249990  0.60380140  0.39418566  1
  Cl  Cl476  1  0.26387813  0.94476477  0.39853668  1
  Cl  Cl477  1  0.75343875  0.28176907  0.37849253  1
  Cl  Cl478  1  0.75554043  0.61655050  0.37899165  1
  Cl  Cl479  1  0.75499983  0.95029548  0.37801022  1
  Cl  Cl480  1  -0.00332231  0.21887120  0.63196866  1
  Cl  Cl481  1  -0.01023129  0.55395126  0.61493561  1
  Cl  Cl482  1  -0.00560076  0.88387491  0.62445506  1
  Cl  Cl483  1  0.49805208  0.22274337  0.60658352  1
  Cl  Cl484  1  0.48839981  0.55656783  0.60673458  1
  Cl  Cl485  1  0.48663604  0.89677326  0.60251925  1
  Cl  Cl486  1  0.00377263  0.11771845  0.11847523  1
  Cl  Cl487  1  -0.01507727  0.44500255  0.10549897  1
  Cl  Cl488  1  -0.00216414  0.77960399  0.10970924  1
  Cl  Cl489  1  0.50598774  0.11212611  0.11763666  1
  Cl  Cl490  1  0.48409203  0.44489882  0.12097376  1
  Cl  Cl491  1  0.49213817  0.77361657  0.12579136  1
  Cl  Cl492  1  -0.01078058  0.22818361  0.90511605  1
  Cl  Cl493  1  0.00623578  0.55442916  0.88200932  1
  Cl  Cl494  1  0.00581618  0.88656792  0.89026972  1
  Cl  Cl495  1  0.49509503  0.21880416  0.87368642  1
  Cl  Cl496  1  0.50090267  0.55857148  0.89333422  1
  Cl  Cl497  1  0.50374409  0.88774960  0.87400159  1
  Cl  Cl498  1  -0.00549794  0.10992223  0.38483382  1
  Cl  Cl499  1  0.00253722  0.45194191  0.37161234  1
  Cl  Cl500  1  -0.00065118  0.78636638  0.37290947  1
  Cl  Cl501  1  0.49768407  0.11473059  0.38020418  1
  Cl  Cl502  1  0.49809423  0.43870439  0.39699708  1
  Cl  Cl503  1  0.49877058  0.77311610  0.39546628  1
  Cl  Cl504  1  0.35919560  0.14964111  0.75573287  1
  Cl  Cl505  1  0.36043402  0.48236842  0.75102893  1
  Cl  Cl506  1  0.36613563  0.81302910  0.74668169  1
  Cl  Cl507  1  0.85950796  0.15081427  0.75646886  1
  Cl  Cl508  1  0.86082890  0.48395505  0.75506025  1
  Cl  Cl509  1  0.85793826  0.81458671  0.74548911  1
  Cl  Cl510  1  0.13880472  0.18519146  0.24628815  1
  Cl  Cl511  1  0.13497756  0.52072753  0.24478122  1
  Cl  Cl512  1  0.13745344  0.85374986  0.25129078  1
  Cl  Cl513  1  0.63599062  0.18847883  0.25169046  1
  Cl  Cl514  1  0.63471840  0.52144524  0.24693966  1
  Cl  Cl515  1  0.63866686  0.85215811  0.24990286  1
  Cl  Cl516  1  0.13696969  0.14754202  0.74902919  1
  Cl  Cl517  1  0.14031150  0.47859911  0.75417468  1
  Cl  Cl518  1  0.14561373  0.81334956  0.74965277  1
  Cl  Cl519  1  0.64015270  0.14795107  0.74996473  1
  Cl  Cl520  1  0.63679666  0.47776293  0.75247904  1
  Cl  Cl521  1  0.63635060  0.81132979  0.74791111  1
  Cl  Cl522  1  0.35717609  0.18600670  0.25147946  1
  Cl  Cl523  1  0.35424996  0.51857392  0.25064255  1
  Cl  Cl524  1  0.35693519  0.85011261  0.25033085  1
  Cl  Cl525  1  0.85700978  0.18764887  0.24422233  1
  Cl  Cl526  1  0.85604604  0.51793129  0.24804413  1
  Cl  Cl527  1  0.86132967  0.85172756  0.25139393  1
  Cl  Cl528  1  0.11561348  0.31331877  0.75341105  1
  Cl  Cl529  1  0.11648846  0.64622639  0.75629946  1
  Cl  Cl530  1  0.10895469  0.98182492  0.75064542  1
  Cl  Cl531  1  0.61658057  0.31198794  0.75537278  1
  Cl  Cl532  1  0.60864342  0.64418646  0.74361454  1
  Cl  Cl533  1  0.61422272  0.98060874  0.74062223  1
  Cl  Cl534  1  0.39191904  0.01701771  0.24864119  1
  Cl  Cl535  1  0.39066746  0.34939045  0.25111785  1
  Cl  Cl536  1  0.38787190  0.68392839  0.25422512  1
  Cl  Cl537  1  0.88814720  0.01966060  0.24290218  1
  Cl  Cl538  1  0.88728353  0.35303297  0.25081131  1
  Cl  Cl539  1  0.89127240  0.68486650  0.24564917  1
  Cl  Cl540  1  0.39503069  0.31665133  0.74889077  1
  Cl  Cl541  1  0.39088994  0.64350686  0.75279452  1
  Cl  Cl542  1  0.39109923  0.98220649  0.74918253  1
  Cl  Cl543  1  0.89545722  0.31883795  0.74900953  1
  Cl  Cl544  1  0.89485625  0.65016138  0.75412461  1
  Cl  Cl545  1  0.89028110  0.98076426  0.75475009  1
  Cl  Cl546  1  0.10605073  0.01998293  0.25416251  1
  Cl  Cl547  1  0.10842743  0.35556663  0.24270361  1
  Cl  Cl548  1  0.11405115  0.68774458  0.25333533  1
  Cl  Cl549  1  0.61244215  0.02012919  0.25466977  1
  Cl  Cl550  1  0.60994800  0.35640882  0.24401751  1
  Cl  Cl551  1  0.61042331  0.68502096  0.25400648  1
