# generated using pymatgen
data_H8PbC4(N3Cl2)2
_symmetry_space_group_name_H-M   'P 1'
_cell_length_a   16.62299030
_cell_length_b   22.50079475
_cell_length_c   21.58823603
_cell_angle_alpha   89.99928558
_cell_angle_beta   90.00695647
_cell_angle_gamma   89.99859735
_symmetry_Int_Tables_number   1
_chemical_formula_structural   H8PbC4(N3Cl2)2
_chemical_formula_sum   'H192 Pb24 C96 N144 Cl96'
_cell_volume   8074.65849751
_cell_formula_units_Z   24
loop_
 _symmetry_equiv_pos_site_id
 _symmetry_equiv_pos_as_xyz
  1  'x, y, z'
loop_
 _atom_site_type_symbol
 _atom_site_label
 _atom_site_symmetry_multiplicity
 _atom_site_fract_x
 _atom_site_fract_y
 _atom_site_fract_z
 _atom_site_occupancy
  H  H0  1  -0.00060635  0.03281392  0.68274354  1
  H  H1  1  -0.00019705  0.36387101  0.68064386  1
  H  H2  1  0.00270491  0.69891156  0.67985982  1
  H  H3  1  0.50380245  0.03377907  0.67821389  1
  H  H4  1  0.50244707  0.36523872  0.68014167  1
  H  H5  1  0.50099936  0.69693244  0.68145083  1
  H  H6  1  0.00082602  0.29893442  0.18129107  1
  H  H7  1  0.00124452  0.63151165  0.17860275  1
  H  H8  1  -0.00086312  0.96964076  0.18033901  1
  H  H9  1  0.49871481  0.29886426  0.17664541  1
  H  H10  1  0.50287991  0.63392529  0.18322646  1
  H  H11  1  0.49311979  0.96828830  0.17923592  1
  H  H12  1  -0.00214271  0.03246789  0.82012728  1
  H  H13  1  -0.00131729  0.36450591  0.82040642  1
  H  H14  1  0.00836688  0.69965464  0.82067127  1
  H  H15  1  0.49856586  0.03178096  0.81849477  1
  H  H16  1  0.50121471  0.36410474  0.82140677  1
  H  H17  1  0.49308743  0.69951769  0.81522588  1
  H  H18  1  -0.00101686  0.30154240  0.32007221  1
  H  H19  1  -0.00122211  0.63353805  0.31885469  1
  H  H20  1  -0.00700887  0.96653305  0.31794228  1
  H  H21  1  0.50311804  0.30027990  0.31808166  1
  H  H22  1  0.50128608  0.63359995  0.32179380  1
  H  H23  1  0.49980512  0.96644277  0.31921915  1
  H  H24  1  0.25199080  0.20151853  0.67763461  1
  H  H25  1  0.24085349  0.53133097  0.67808427  1
  H  H26  1  0.25239111  0.86599958  0.68213206  1
  H  H27  1  0.74849664  0.20145831  0.68172695  1
  H  H28  1  0.75884672  0.53266957  0.68237444  1
  H  H29  1  0.75188728  0.86534952  0.67943589  1
  H  H30  1  0.25022064  0.13562535  0.18267192  1
  H  H31  1  0.24784924  0.46870143  0.18163410  1
  H  H32  1  0.25512215  0.80135866  0.18397199  1
  H  H33  1  0.75638987  0.13454312  0.17710255  1
  H  H34  1  0.74952724  0.46709891  0.18157936  1
  H  H35  1  0.74307097  0.80135476  0.17830037  1
  H  H36  1  0.24802361  0.20041906  0.81923376  1
  H  H37  1  0.25270072  0.53197106  0.81666056  1
  H  H38  1  0.25706180  0.86744049  0.82111385  1
  H  H39  1  0.75062575  0.19867412  0.82172329  1
  H  H40  1  0.74340234  0.53162911  0.82135708  1
  H  H41  1  0.74617162  0.86625011  0.81980621  1
  H  H42  1  0.23908692  0.13624884  0.32067872  1
  H  H43  1  0.25206655  0.46880510  0.32023837  1
  H  H44  1  0.25788801  0.80075431  0.32083388  1
  H  H45  1  0.75905670  0.13483594  0.31949241  1
  H  H46  1  0.74648338  0.46741982  0.31863185  1
  H  H47  1  0.74420674  0.79975939  0.31823805  1
  H  H48  1  0.12544824  0.05420019  0.61438260  1
  H  H49  1  0.11983937  0.38758167  0.60490399  1
  H  H50  1  0.12519671  0.72061302  0.60676825  1
  H  H51  1  0.62285814  0.05475677  0.60229755  1
  H  H52  1  0.61939049  0.38934423  0.60178409  1
  H  H53  1  0.62548942  0.72125146  0.61234324  1
  H  H54  1  0.37379029  0.27922855  0.10814884  1
  H  H55  1  0.37122740  0.61524264  0.11993234  1
  H  H56  1  0.37825637  0.94300248  0.10138993  1
  H  H57  1  0.86981855  0.28013439  0.11651867  1
  H  H58  1  0.87169039  0.61052943  0.11257418  1
  H  H59  1  0.87649349  0.94686149  0.10725832  1
  H  H60  1  0.37711312  0.05269454  0.89093401  1
  H  H61  1  0.37534620  0.38285326  0.89190518  1
  H  H62  1  0.37335464  0.72173099  0.88849809  1
  H  H63  1  0.87393964  0.05505027  0.89078725  1
  H  H64  1  0.87397161  0.38652486  0.89119202  1
  H  H65  1  0.86988342  0.71810670  0.87563936  1
  H  H66  1  0.12338030  0.27908299  0.39301902  1
  H  H67  1  0.12974912  0.61509316  0.38404022  1
  H  H68  1  0.12814116  0.94794586  0.37930167  1
  H  H69  1  0.62060963  0.27790794  0.39506830  1
  H  H70  1  0.62488641  0.60929983  0.39239075  1
  H  H71  1  0.63221503  0.94789595  0.38280751  1
  H  H72  1  0.37524573  0.21989051  0.60698132  1
  H  H73  1  0.37397601  0.55213281  0.61579804  1
  H  H74  1  0.37045948  0.88993953  0.60535451  1
  H  H75  1  0.87935378  0.21960283  0.61696411  1
  H  H76  1  0.87007550  0.55766290  0.60202905  1
  H  H77  1  0.86756983  0.88842732  0.60047837  1
  H  H78  1  0.12502404  0.11301526  0.11034110  1
  H  H79  1  0.12668440  0.44523566  0.10809524  1
  H  H80  1  0.12606115  0.78149566  0.11833763  1
  H  H81  1  0.62348236  0.11668556  0.11623262  1
  H  H82  1  0.62658949  0.44348104  0.10792525  1
  H  H83  1  0.63276400  0.77486828  0.09746288  1
  H  H84  1  0.13133830  0.22035580  0.89525510  1
  H  H85  1  0.12886011  0.55401122  0.89047475  1
  H  H86  1  0.12353225  0.88495603  0.88078632  1
  H  H87  1  0.62676939  0.22079918  0.89292717  1
  H  H88  1  0.63529698  0.55748176  0.90422964  1
  H  H89  1  0.62304586  0.88909842  0.89316253  1
  H  H90  1  0.37611088  0.11580364  0.37807720  1
  H  H91  1  0.37444334  0.44520421  0.39319586  1
  H  H92  1  0.36997262  0.77481506  0.40145846  1
  H  H93  1  0.87048711  0.11007172  0.40207848  1
  H  H94  1  0.88089783  0.44877830  0.38114164  1
  H  H95  1  0.87835515  0.78070091  0.37932716  1
  H  H96  1  0.37145744  0.28057219  0.38476371  1
  H  H97  1  0.37641071  0.61521182  0.39275785  1
  H  H98  1  0.38334362  0.94487025  0.39470991  1
  H  H99  1  0.87461874  0.27854118  0.39285828  1
  H  H100  1  0.88076090  0.61394737  0.39350297  1
  H  H101  1  0.88154621  0.94119513  0.40015315  1
  H  H102  1  0.12346000  0.05190303  0.88786654  1
  H  H103  1  0.12310422  0.38713759  0.89018778  1
  H  H104  1  0.11573193  0.72650241  0.90384763  1
  H  H105  1  0.62660013  0.05295003  0.88435166  1
  H  H106  1  0.62379712  0.38856262  0.89270505  1
  H  H107  1  0.62276209  0.71874527  0.88046370  1
  H  H108  1  0.11909780  0.27929061  0.10677241  1
  H  H109  1  0.11985700  0.61239893  0.10196236  1
  H  H110  1  0.12633999  0.94713610  0.11305928  1
  H  H111  1  0.62260317  0.27844407  0.10796597  1
  H  H112  1  0.62034259  0.61162247  0.10781483  1
  H  H113  1  0.62633075  0.94917585  0.11590727  1
  H  H114  1  0.37432546  0.05552503  0.61157864  1
  H  H115  1  0.37140684  0.38574820  0.61448437  1
  H  H116  1  0.37558748  0.72116260  0.61135541  1
  H  H117  1  0.87560408  0.05533651  0.60965866  1
  H  H118  1  0.87150782  0.38563250  0.61089525  1
  H  H119  1  0.87622183  0.72122055  0.60973622  1
  H  H120  1  0.13123792  0.11048356  0.40499301  1
  H  H121  1  0.12597801  0.44722431  0.39111561  1
  H  H122  1  0.12217303  0.78033857  0.37944829  1
  H  H123  1  0.62367389  0.11327205  0.38040580  1
  H  H124  1  0.63192971  0.44420987  0.39659430  1
  H  H125  1  0.62995575  0.77927948  0.39588733  1
  H  H126  1  0.38033510  0.21890818  0.88267053  1
  H  H127  1  0.37737283  0.55444689  0.88905096  1
  H  H128  1  0.37063911  0.88938174  0.89881236  1
  H  H129  1  0.87586967  0.21974263  0.89362469  1
  H  H130  1  0.88103779  0.55092026  0.87648095  1
  H  H131  1  0.87163555  0.88822891  0.88988557  1
  H  H132  1  0.37378267  0.11424993  0.10893437  1
  H  H133  1  0.37541663  0.44509261  0.11332402  1
  H  H134  1  0.37541759  0.78109977  0.11059669  1
  H  H135  1  0.87099807  0.11153336  0.10086843  1
  H  H136  1  0.87500853  0.44504621  0.10989815  1
  H  H137  1  0.87915240  0.78304466  0.11864695  1
  H  H138  1  0.12610203  0.21988142  0.61001304  1
  H  H139  1  0.12603276  0.55841672  0.60076741  1
  H  H140  1  0.12125481  0.88432669  0.61777345  1
  H  H141  1  0.63008388  0.21930080  0.60670744  1
  H  H142  1  0.62271273  0.55156277  0.62183006  1
  H  H143  1  0.61908656  0.88723433  0.61739983  1
  H  H144  1  0.92771093  0.08334951  0.50482577  1
  H  H145  1  0.55963210  0.25013803  0.50302747  1
  H  H146  1  0.42082521  0.41824065  0.99325162  1
  H  H147  1  0.69081597  0.75503244  0.50658668  1
  H  H148  1  0.57696501  0.58990651  0.49757751  1
  H  H149  1  0.42693973  0.74146448  1.00167338  1
  H  H150  1  0.57066362  0.40077181  0.99853382  1
  H  H151  1  0.93559357  0.58860323  0.50541455  1
  H  H152  1  0.16484482  0.75852336  0.00383269  1
  H  H153  1  0.29979256  0.74905369  0.50424279  1
  H  H154  1  0.55447093  0.41447682  0.49873383  1
  H  H155  1  0.84824903  0.41731441  0.48736617  1
  H  H156  1  0.92254912  0.41396241  0.99636609  1
  H  H157  1  0.69286334  0.41723011  0.50490548  1
  H  H158  1  0.42582457  0.74084297  0.50349384  1
  H  H159  1  0.92752755  0.92251481  0.00251457  1
  H  H160  1  0.70522407  0.76189168  -0.00596881  1
  H  H161  1  0.06405910  0.25131071  -0.00439792  1
  H  H162  1  0.18881968  0.24611036  1.00633906  1
  H  H163  1  0.04248503  0.74944917  1.00539448  1
  H  H164  1  0.90799988  0.58856355  0.00483289  1
  H  H165  1  0.42323083  0.57597780  0.49183837  1
  H  H166  1  0.95244711  0.91127788  0.49960392  1
  H  H167  1  0.08867550  0.91845157  0.00193024  1
  H  H168  1  0.05996460  0.57467835  0.00389206  1
  H  H169  1  0.42517349  0.08332116  0.99994482  1
  H  H170  1  0.56554799  0.58636205  -0.00213583  1
  H  H171  1  0.67588701  0.92010535  0.99553844  1
  H  H172  1  0.08099731  0.08299487  0.99991819  1
  H  H173  1  0.08136004  0.08051201  0.50206630  1
  H  H174  1  0.70723877  0.58133365  1.00559237  1
  H  H175  1  0.80273882  0.91336302  0.49668457  1
  H  H176  1  0.40297966  0.58778576  0.00764205  1
  H  H177  1  0.58475699  0.74279428  0.99470832  1
  H  H178  1  0.41525649  0.08342650  0.50515899  1
  H  H179  1  0.31118176  0.91416944  0.50089514  1
  H  H180  1  0.80250374  0.58517000  0.49618037  1
  H  H181  1  0.17877428  0.41649381  0.00038530  1
  H  H182  1  0.17681908  0.41606268  0.49516048  1
  H  H183  1  0.57712773  0.74800377  0.50015719  1
  H  H184  1  0.32213113  0.76418697  -0.00324485  1
  H  H185  1  0.59202917  0.08316823  0.99572306  1
  H  H186  1  0.79798909  0.08901176  0.50440131  1
  H  H187  1  0.44107720  0.91884369  0.50592038  1
  H  H188  1  0.15571661  0.91297463  0.50578310  1
  H  H189  1  0.68517578  0.24524947  0.49501763  1
  H  H190  1  0.85292793  0.75045754  0.01109317  1
  H  H191  1  0.20597367  0.09145163  0.50599718  1
  Pb  Pb192  1  0.25102175  0.04888865  0.74686974  1
  Pb  Pb193  1  0.24928621  0.37784128  0.74915592  1
  Pb  Pb194  1  0.24606731  0.71609942  0.75090101  1
  Pb  Pb195  1  0.74663129  0.04821255  0.74340439  1
  Pb  Pb196  1  0.74987818  0.37914799  0.74661194  1
  Pb  Pb197  1  0.74824668  0.71359053  0.75183554  1
  Pb  Pb198  1  0.24860558  0.28758277  0.24830078  1
  Pb  Pb199  1  0.25104638  0.61942767  0.24957691  1
  Pb  Pb200  1  0.25574227  0.95162803  0.25370508  1
  Pb  Pb201  1  0.75159827  0.28489548  0.25341599  1
  Pb  Pb202  1  0.75221871  0.61691143  0.25031659  1
  Pb  Pb203  1  0.75205909  0.95433471  0.25067449  1
  Pb  Pb204  1  0.00007321  0.21133805  0.75539359  1
  Pb  Pb205  1  0.00142548  0.54684601  0.74943660  1
  Pb  Pb206  1  -0.00504433  0.88251780  0.74866202  1
  Pb  Pb207  1  0.50174038  0.21364687  0.74584425  1
  Pb  Pb208  1  0.49870078  0.54613653  0.75160452  1
  Pb  Pb209  1  0.49696624  0.88172162  0.75087491  1
  Pb  Pb210  1  0.00410972  0.11846884  0.25435720  1
  Pb  Pb211  1  0.00311261  0.45226548  0.24498460  1
  Pb  Pb212  1  0.00167163  0.78665901  0.24421753  1
  Pb  Pb213  1  0.50049835  0.12145796  0.24999550  1
  Pb  Pb214  1  0.50078893  0.44849084  0.24989321  1
  Pb  Pb215  1  0.50418536  0.78428728  0.25119008  1
  C  C216  1  -0.00031750  0.04733941  0.63473058  1
  C  C217  1  -0.00311802  0.37870092  0.63286594  1
  C  C218  1  0.00107292  0.71336213  0.63209164  1
  C  C219  1  0.49985827  0.04789781  0.63038154  1
  C  C220  1  0.49810682  0.37982694  0.63237167  1
  C  C221  1  0.50013197  0.71221473  0.63368994  1
  C  C222  1  -0.00317045  0.28598325  0.13311367  1
  C  C223  1  -0.00253860  0.61829207  0.13026987  1
  C  C224  1  0.00022573  0.95430340  0.13260253  1
  C  C225  1  0.49834128  0.28534556  0.12847226  1
  C  C226  1  0.49783796  0.61973486  0.13526852  1
  C  C227  1  0.49959075  0.95357904  0.13182557  1
  C  C228  1  -0.00103733  0.04688974  0.86796549  1
  C  C229  1  -0.00183888  0.37960048  0.86802577  1
  C  C230  1  -0.00181839  0.71371329  0.86812522  1
  C  C231  1  0.50080245  0.04625188  0.86649274  1
  C  C232  1  0.50012759  0.37865575  0.86941834  1
  C  C233  1  0.49660633  0.71354026  0.86329231  1
  C  C234  1  -0.00107825  0.28659947  0.36784500  1
  C  C235  1  0.00275356  0.62037343  0.36699972  1
  C  C236  1  0.00068624  0.95186257  0.36544975  1
  C  C237  1  0.49822760  0.28626883  0.36599490  1
  C  C238  1  0.50083765  0.61884893  0.36978203  1
  C  C239  1  0.50502157  0.95301512  0.36718886  1
  C  C240  1  0.25111181  0.21437146  0.62905449  1
  C  C241  1  0.24728026  0.54677635  0.63099173  1
  C  C242  1  0.24822572  0.88031434  0.63412450  1
  C  C243  1  0.75234187  0.21416123  0.63347286  1
  C  C244  1  0.75017413  0.54686618  0.63478431  1
  C  C245  1  0.74638624  0.87968765  0.63171641  1
  C  C246  1  0.24967488  0.12115156  0.13468383  1
  C  C247  1  0.25018706  0.45339665  0.13405198  1
  C  C248  1  0.25205610  0.78738374  0.13587153  1
  C  C249  1  0.75014826  0.12038268  0.12937305  1
  C  C250  1  0.75029644  0.45255468  0.13368649  1
  C  C251  1  0.75189299  0.78637673  0.13087101  1
  C  C252  1  0.25294706  0.21334172  0.86739044  1
  C  C253  1  0.25287496  0.54644183  0.86461161  1
  C  C254  1  0.25022836  0.88075185  0.86900790  1
  C  C255  1  0.75134559  0.21287050  0.86958898  1
  C  C256  1  0.75308559  0.54603744  0.86872778  1
  C  C257  1  0.74663610  0.88115563  0.86758584  1
  C  C258  1  0.24829909  0.12175470  0.36807170  1
  C  C259  1  0.25050877  0.45370635  0.36784407  1
  C  C260  1  0.25023369  0.78636485  0.36831314  1
  C  C261  1  0.75154920  0.12030285  0.36712033  1
  C  C262  1  0.75377440  0.45268658  0.36629100  1
  C  C263  1  0.75061379  0.78635037  0.36616260  1
  C  C264  1  0.81440907  0.57345634  0.95549664  1
  C  C265  1  0.77852717  0.09350082  0.03462014  1
  C  C266  1  0.46174663  0.73552188  0.95954026  1
  C  C267  1  0.69784954  0.09533623  0.03967497  1
  C  C268  1  0.54103858  0.74026811  0.54126737  1
  C  C269  1  0.22109500  0.57705130  0.53684135  1
  C  C270  1  0.95873334  0.07360030  0.96131437  1
  C  C271  1  0.72387392  0.76299426  0.46394285  1
  C  C272  1  0.52965481  0.59574901  0.03881503  1
  C  C273  1  0.19818047  0.90403814  0.54295521  1
  C  C274  1  0.53807513  0.26088316  0.03577130  1
  C  C275  1  0.21692331  0.42732055  0.04012382  1
  C  C276  1  0.44774394  0.59677497  0.04329296  1
  C  C277  1  0.19245665  0.75849750  0.45656640  1
  C  C278  1  0.80449235  0.76304157  0.45606675  1
  C  C279  1  0.46452635  0.07231050  0.96139835  1
  C  C280  1  0.27701805  0.90590828  0.96461496  1
  C  C281  1  0.30450611  0.23639117  0.95845233  1
  C  C282  1  0.22336878  0.23698368  0.96459456  1
  C  C283  1  0.80194670  0.23753667  0.54192755  1
  C  C284  1  0.53546560  0.07332808  0.53445091  1
  C  C285  1  0.54358197  0.73501424  0.95644362  1
  C  C286  1  0.19646985  0.90446511  0.95867987  1
  C  C287  1  0.20918561  0.23760688  0.53699827  1
  C  C288  1  0.20554812  0.76600253  0.04255894  1
  C  C289  1  0.69259081  0.90750238  0.54175846  1
  C  C290  1  0.97109084  0.59689303  0.46394885  1
  C  C291  1  0.55712572  0.93019972  0.45851655  1
  C  C292  1  0.47565009  0.92857898  0.46426022  1
  C  C293  1  0.28943589  0.23760679  0.53608508  1
  C  C294  1  0.72528607  0.42756117  0.46240862  1
  C  C295  1  0.02863529  0.26188081  0.03651909  1
  C  C296  1  0.94756104  0.26291373  0.04171175  1
  C  C297  1  0.04318367  0.07180952  0.54190733  1
  C  C298  1  0.45732595  0.26085181  0.03596107  1
  C  C299  1  0.72067033  0.23710846  0.53652199  1
  C  C300  1  0.47321404  0.92465895  0.03716933  1
  C  C301  1  0.03639069  0.73893784  0.53826911  1
  C  C302  1  0.93611967  0.73768429  0.95549832  1
  C  C303  1  0.71435430  0.23924792  0.96264109  1
  C  C304  1  0.04505675  0.92855892  0.04016547  1
  C  C305  1  0.04038972  0.07271812  0.96197366  1
  C  C306  1  0.77138773  0.57388475  0.53902539  1
  C  C307  1  0.28744077  0.76697907  0.03930457  1
  C  C308  1  0.04063919  0.40744333  0.96150863  1
  C  C309  1  0.52628116  0.26048961  0.46100116  1
  C  C310  1  0.54674451  0.07236337  0.95896520  1
  C  C311  1  0.05237730  0.59693287  0.45855846  1
  N  N312  1  0.29867732  0.57463533  0.54003532  1
  N  N313  1  0.21556544  0.57214709  0.95885114  1
  N  N314  1  0.21318228  0.42786807  0.45906549  1
  N  N315  1  0.71253780  0.90592939  0.96007167  1
  N  N316  1  0.44643290  0.40527688  0.54197599  1
  N  N317  1  0.72969191  0.75517089  0.03728788  1
  N  N318  1  0.79114026  0.90675229  0.96025340  1
  N  N319  1  0.77181467  0.09357736  0.46154052  1
  N  N320  1  0.98021658  0.92850323  0.46087743  1
  N  N321  1  0.73603549  0.57474695  0.96410961  1
  N  N322  1  0.23168996  0.09435810  0.46285493  1
  N  N323  1  0.53902259  0.58664600  0.45983301  1
  N  N324  1  0.96516142  0.92736065  0.03969234  1
  N  N325  1  0.21064743  0.09495693  0.04107093  1
  N  N326  1  0.29214129  0.57258723  0.95831407  1
  N  N327  1  0.79064645  0.42677062  0.04026996  1
  N  N328  1  0.29636435  0.42752684  0.04103041  1
  N  N329  1  0.95376758  0.40538427  0.54044554  1
  N  N330  1  0.77142852  0.90717691  0.53711338  1
  N  N331  1  0.80449327  0.42937376  0.45588664  1
  N  N332  1  0.01447155  0.74081008  0.96394905  1
  N  N333  1  0.69249979  0.57192149  0.54547855  1
  N  N334  1  0.30905000  0.09730835  0.45522494  1
  N  N335  1  0.96366756  0.07195717  0.54138798  1
  N  N336  1  0.45668952  0.07304476  0.53871459  1
  N  N337  1  0.52430342  0.40664673  0.53912819  1
  N  N338  1  0.27761839  0.90675811  0.53996164  1
  N  N339  1  0.79156515  0.23922278  0.96404376  1
  N  N340  1  0.45903795  0.39780928  0.96248003  1
  N  N341  1  0.05791764  0.92968527  0.45457755  1
  N  N342  1  0.03699291  0.25982359  0.46151133  1
  N  N343  1  0.55077363  0.92684004  0.04056003  1
  N  N344  1  0.80739767  0.76581121  0.04280837  1
  N  N345  1  0.02866560  0.60086251  0.03445984  1
  N  N346  1  0.46136489  0.74116841  0.54218749  1
  N  N347  1  0.95078726  0.58902965  0.04169080  1
  N  N348  1  0.69437179  0.09489081  0.45531559  1
  N  N349  1  0.44723566  0.26134390  0.45752560  1
  N  N350  1  0.53733445  0.41060694  0.95994027  1
  N  N351  1  0.96079810  0.25945821  0.46138596  1
  N  N352  1  0.95908977  0.73912594  0.53777728  1
  N  N353  1  0.71372840  0.42661872  0.03939405  1
  N  N354  1  0.96144620  0.40670563  0.96051528  1
  N  N355  1  0.03040935  0.40656542  0.53849900  1
  N  N356  1  0.29110679  0.42674670  0.46109222  1
  N  N357  1  0.46072217  0.60046449  0.46351229  1
  N  N358  1  0.28725385  0.09513172  0.04060078  1
  N  N359  1  0.27091150  0.75803285  0.46324244  1
  N  N360  1  0.06589114  0.05632574  0.59970335  1
  N  N361  1  0.05828110  0.38977190  0.59549790  1
  N  N362  1  0.06498745  0.72350214  0.59502878  1
  N  N363  1  0.56250241  0.05772238  0.59107740  1
  N  N364  1  0.55768866  0.38990382  0.59323606  1
  N  N365  1  0.56546219  0.72405455  0.59841016  1
  N  N366  1  0.43285606  0.27574220  0.09262082  1
  N  N367  1  0.42957860  0.61146260  0.10347970  1
  N  N368  1  0.43952060  0.94081130  0.09181487  1
  N  N369  1  0.92860789  0.27711514  0.09999777  1
  N  N370  1  0.93093543  0.61042515  0.09755630  1
  N  N371  1  0.93767231  0.94483075  0.09615202  1
  N  N372  1  0.43742249  0.05600591  0.90347841  1
  N  N373  1  0.43559037  0.38855186  0.90372626  1
  N  N374  1  0.43356119  0.72259734  0.90120024  1
  N  N375  1  0.93402807  0.05802685  0.90462295  1
  N  N376  1  0.93453247  0.38931740  0.90302933  1
  N  N377  1  0.92598585  0.72200779  0.89574169  1
  N  N378  1  0.06222041  0.27655888  0.40365253  1
  N  N379  1  0.07097875  0.61100477  0.40007100  1
  N  N380  1  0.06995727  0.94553184  0.39567316  1
  N  N381  1  0.55935429  0.27559390  0.40511118  1
  N  N382  1  0.56451021  0.60961731  0.40537010  1
  N  N383  1  0.57406586  0.94460551  0.39961685  1
  N  N384  1  0.31595292  0.22353141  0.59221833  1
  N  N385  1  0.31485146  0.55558751  0.60041748  1
  N  N386  1  0.30854836  0.89107268  0.59586972  1
  N  N387  1  0.82063559  0.22377511  0.60040262  1
  N  N388  1  0.80825698  0.55861429  0.59341091  1
  N  N389  1  0.80563703  0.88826317  0.59187850  1
  N  N390  1  0.18614597  0.11101113  0.09918032  1
  N  N391  1  0.18728108  0.44290648  0.09678627  1
  N  N392  1  0.18497813  0.77873036  0.10270126  1
  N  N393  1  0.68087942  0.11166380  0.09811859  1
  N  N394  1  0.68770944  0.44286147  0.09713574  1
  N  N395  1  0.69472159  0.77732041  0.08911094  1
  N  N396  1  0.19210508  0.22262664  0.90658707  1
  N  N397  1  0.19007463  0.55629639  0.90084144  1
  N  N398  1  0.18047588  0.88912091  0.89975032  1
  N  N399  1  0.68681726  0.22340839  0.90582878  1
  N  N400  1  0.69727399  0.55626196  0.91091733  1
  N  N401  1  0.68416656  0.89164722  0.90381546  1
  N  N402  1  0.31853305  0.11186545  0.39569305  1
  N  N403  1  0.31397007  0.44332890  0.40405443  1
  N  N404  1  0.30793133  0.77678507  0.40937151  1
  N  N405  1  0.80850440  0.11130611  0.40889108  1
  N  N406  1  0.82174900  0.44333452  0.39629314  1
  N  N407  1  0.82032060  0.77693917  0.39717678  1
  N  N408  1  0.43151307  0.27734234  0.39841203  1
  N  N409  1  0.43663706  0.60797972  0.40408030  1
  N  N410  1  0.44414910  0.94285537  0.40618894  1
  N  N411  1  0.93554238  0.27573801  0.40330198  1
  N  N412  1  0.94109870  0.61156517  0.40560814  1
  N  N413  1  0.94394397  0.93942925  0.40624328  1
  N  N414  1  0.06423625  0.05588802  0.90264681  1
  N  N415  1  0.06355567  0.39085967  0.90413018  1
  N  N416  1  0.05366052  0.72390160  0.91054756  1
  N  N417  1  0.56744440  0.05627860  0.89967655  1
  N  N418  1  0.56330414  0.38738899  0.90545757  1
  N  N419  1  0.56387182  0.72131582  0.89635633  1
  N  N420  1  0.05853936  0.27662326  0.09474793  1
  N  N421  1  0.05849086  0.60745710  0.09254506  1
  N  N422  1  0.06670623  0.94404946  0.09841014  1
  N  N423  1  0.56332725  0.27536116  0.09229103  1
  N  N424  1  0.55949400  0.60989479  0.09653419  1
  N  N425  1  0.56712763  0.94516319  0.10095593  1
  N  N426  1  0.43401479  0.05736226  0.59785685  1
  N  N427  1  0.43064903  0.38938732  0.60056828  1
  N  N428  1  0.43624901  0.72027525  0.59832393  1
  N  N429  1  0.93679419  0.05721987  0.59879966  1
  N  N430  1  0.93175352  0.38836953  0.59900517  1
  N  N431  1  0.93675301  0.72308379  0.59764777  1
  N  N432  1  0.19305296  0.11226576  0.41097711  1
  N  N433  1  0.18659175  0.44359976  0.40259173  1
  N  N434  1  0.17956224  0.77576094  0.39781003  1
  N  N435  1  0.68243405  0.10981130  0.39616289  1
  N  N436  1  0.69339944  0.44240143  0.40687196  1
  N  N437  1  0.69070346  0.77745534  0.40639725  1
  N  N438  1  0.32186064  0.22215482  0.89977367  1
  N  N439  1  0.31661315  0.55652194  0.90004344  1
  N  N440  1  0.30979945  0.89149682  0.90997770  1
  N  N441  1  0.81503075  0.22230478  0.90481553  1
  N  N442  1  0.82496347  0.55614436  0.89629469  1
  N  N443  1  0.81132662  0.89050323  0.90257786  1
  N  N444  1  0.31259225  0.11152657  0.09839194  1
  N  N445  1  0.31524656  0.44387871  0.10021722  1
  N  N446  1  0.31528246  0.77968823  0.09780282  1
  N  N447  1  0.81047418  0.10876975  0.08923459  1
  N  N448  1  0.81425680  0.44262866  0.09857153  1
  N  N449  1  0.82118455  0.77587591  0.10284644  1
  N  N450  1  0.18496451  0.22370453  0.59373827  1
  N  N451  1  0.18708338  0.56028775  0.59122254  1
  N  N452  1  0.17962347  0.88841549  0.60169923  1
  N  N453  1  0.69069805  0.22261448  0.59484080  1
  N  N454  1  0.68134792  0.55498778  0.60537412  1
  N  N455  1  0.67701524  0.89105180  0.60048768  1
  Cl  Cl456  1  0.24850193  0.05671926  0.60763365  1
  Cl  Cl457  1  0.24284198  0.38721097  0.61395737  1
  Cl  Cl458  1  0.25365353  0.72453330  0.60771645  1
  Cl  Cl459  1  0.75336659  0.05557232  0.60522048  1
  Cl  Cl460  1  0.74342171  0.38911149  0.60784227  1
  Cl  Cl461  1  0.74939566  0.72101425  0.61956720  1
  Cl  Cl462  1  0.24530113  0.28040497  0.11580362  1
  Cl  Cl463  1  0.24186410  0.61587599  0.11933781  1
  Cl  Cl464  1  0.25256398  0.94723284  0.12275446  1
  Cl  Cl465  1  0.74594354  0.28092131  0.12518568  1
  Cl  Cl466  1  0.74618141  0.61094204  0.10873325  1
  Cl  Cl467  1  0.75237992  0.94596074  0.11651838  1
  Cl  Cl468  1  0.25097822  0.04938180  0.87471041  1
  Cl  Cl469  1  0.25115902  0.38421875  0.88291459  1
  Cl  Cl470  1  0.24146303  0.72481059  0.88442091  1
  Cl  Cl471  1  0.75102561  0.04942607  0.87358134  1
  Cl  Cl472  1  0.74743853  0.38584833  0.87839330  1
  Cl  Cl473  1  0.74535128  0.72465705  0.89180670  1
  Cl  Cl474  1  0.24612708  0.28177926  0.38059193  1
  Cl  Cl475  1  0.25499449  0.61909084  0.38300104  1
  Cl  Cl476  1  0.25686312  0.94281309  0.39332937  1
  Cl  Cl477  1  0.74699663  0.28087570  0.38931159  1
  Cl  Cl478  1  0.74989966  0.61190996  0.38407586  1
  Cl  Cl479  1  0.76248987  0.94240166  0.39256197  1
  Cl  Cl480  1  0.00235549  0.21233549  0.62505948  1
  Cl  Cl481  1  -0.00360641  0.55620502  0.61664496  1
  Cl  Cl482  1  -0.01005991  0.88965870  0.60749636  1
  Cl  Cl483  1  0.50562835  0.21731517  0.61215058  1
  Cl  Cl484  1  0.49839020  0.55563526  0.61372500  1
  Cl  Cl485  1  0.49222471  0.88640963  0.61493534  1
  Cl  Cl486  1  0.00190272  0.11290325  0.12108328  1
  Cl  Cl487  1  -0.00091317  0.44622073  0.10798653  1
  Cl  Cl488  1  0.00287440  0.77638181  0.10559891  1
  Cl  Cl489  1  0.49525102  0.11465963  0.11788315  1
  Cl  Cl490  1  0.50238561  0.44047245  0.11021282  1
  Cl  Cl491  1  0.50814771  0.77806665  0.11649611  1
  Cl  Cl492  1  0.00327899  0.22092895  0.88923815  1
  Cl  Cl493  1  0.00708949  0.55439089  0.89293989  1
  Cl  Cl494  1  -0.00581844  0.88698582  0.88480789  1
  Cl  Cl495  1  0.50428150  0.22089866  0.87621988  1
  Cl  Cl496  1  0.50663227  0.55370746  0.88665858  1
  Cl  Cl497  1  0.49988091  0.88684370  0.88233191  1
  Cl  Cl498  1  -0.00223753  0.10514119  0.39882319  1
  Cl  Cl499  1  0.00408152  0.45184066  0.37735295  1
  Cl  Cl500  1  0.00047970  0.78411802  0.37393539  1
  Cl  Cl501  1  0.49993450  0.11123765  0.38443707  1
  Cl  Cl502  1  0.50721462  0.44529398  0.38813243  1
  Cl  Cl503  1  0.49415883  0.77203059  0.39459160  1
  Cl  Cl504  1  0.36186114  0.14306119  0.74942799  1
  Cl  Cl505  1  0.36397775  0.47723440  0.74610988  1
  Cl  Cl506  1  0.36229152  0.80906877  0.74954469  1
  Cl  Cl507  1  0.86321859  0.14345947  0.74778272  1
  Cl  Cl508  1  0.86248619  0.47884311  0.75476431  1
  Cl  Cl509  1  0.86121343  0.81123765  0.75410239  1
  Cl  Cl510  1  0.13811089  0.18721133  0.25164581  1
  Cl  Cl511  1  0.13720603  0.52333993  0.25099359  1
  Cl  Cl512  1  0.13555542  0.85598357  0.25207207  1
  Cl  Cl513  1  0.63769261  0.18766379  0.25306511  1
  Cl  Cl514  1  0.63949039  0.52422905  0.24953126  1
  Cl  Cl515  1  0.64018648  0.85395397  0.25073431  1
  Cl  Cl516  1  0.13794793  0.14380456  0.74703944  1
  Cl  Cl517  1  0.13678410  0.47857711  0.75229020  1
  Cl  Cl518  1  0.14037440  0.81017739  0.74849294  1
  Cl  Cl519  1  0.63841256  0.14250059  0.74929418  1
  Cl  Cl520  1  0.63639491  0.47885675  0.74637767  1
  Cl  Cl521  1  0.63840016  0.81003610  0.74958897  1
  Cl  Cl522  1  0.36346426  0.18908983  0.25556475  1
  Cl  Cl523  1  0.36002821  0.52376810  0.24955559  1
  Cl  Cl524  1  0.35832654  0.85609098  0.25203912  1
  Cl  Cl525  1  0.86054437  0.18963888  0.24979872  1
  Cl  Cl526  1  0.86049341  0.52464482  0.25018971  1
  Cl  Cl527  1  0.86447441  0.85441051  0.24675060  1
  Cl  Cl528  1  0.11079148  0.31218600  0.75232955  1
  Cl  Cl529  1  0.10943894  0.64500669  0.75177089  1
  Cl  Cl530  1  0.11020052  0.97598681  0.74778743  1
  Cl  Cl531  1  0.61161563  0.31194306  0.74840252  1
  Cl  Cl532  1  0.61323324  0.64508322  0.74963000  1
  Cl  Cl533  1  0.61261692  0.97688227  0.74700123  1
  Cl  Cl534  1  0.38748304  0.02185195  0.25309039  1
  Cl  Cl535  1  0.38877668  0.35753793  0.24919434  1
  Cl  Cl536  1  0.38845291  0.68958232  0.24850948  1
  Cl  Cl537  1  0.88843821  0.02065974  0.25061509  1
  Cl  Cl538  1  0.88632428  0.35674779  0.24951932  1
  Cl  Cl539  1  0.88794623  0.68889170  0.24470833  1
  Cl  Cl540  1  0.38862875  0.31164259  0.74966842  1
  Cl  Cl541  1  0.38953756  0.64478948  0.74831096  1
  Cl  Cl542  1  0.38803247  0.97641250  0.74493575  1
  Cl  Cl543  1  0.88575334  0.31044093  0.74831031  1
  Cl  Cl544  1  0.88558090  0.64452815  0.75623913  1
  Cl  Cl545  1  0.88942250  0.97558583  0.74914792  1
  Cl  Cl546  1  0.10910352  0.02297655  0.25453872  1
  Cl  Cl547  1  0.11193175  0.35689040  0.24926400  1
  Cl  Cl548  1  0.11188565  0.68912029  0.24918490  1
  Cl  Cl549  1  0.61411070  0.02133545  0.25223404  1
  Cl  Cl550  1  0.61014608  0.35717518  0.24925536  1
  Cl  Cl551  1  0.60834679  0.69011233  0.25125254  1
