# generated using pymatgen
data_H8PbC4(N3Cl2)2
_symmetry_space_group_name_H-M   'P 1'
_cell_length_a   16.63245508
_cell_length_b   22.52197937
_cell_length_c   21.60059467
_cell_angle_alpha   89.99994881
_cell_angle_beta   90.03515921
_cell_angle_gamma   90.00754903
_symmetry_Int_Tables_number   1
_chemical_formula_structural   H8PbC4(N3Cl2)2
_chemical_formula_sum   'H192 Pb24 C96 N144 Cl96'
_cell_volume   8091.49066825
_cell_formula_units_Z   24
loop_
 _symmetry_equiv_pos_site_id
 _symmetry_equiv_pos_as_xyz
  1  'x, y, z'
loop_
 _atom_site_type_symbol
 _atom_site_label
 _atom_site_symmetry_multiplicity
 _atom_site_fract_x
 _atom_site_fract_y
 _atom_site_fract_z
 _atom_site_occupancy
  H  H0  1  0.00346746  0.03128272  0.68259784  1
  H  H1  1  -0.01499287  0.36047179  0.67771274  1
  H  H2  1  -0.00416701  0.69496506  0.67806345  1
  H  H3  1  0.50800312  0.02877202  0.67737470  1
  H  H4  1  0.51593050  0.36565830  0.67406025  1
  H  H5  1  0.49730841  0.69531434  0.67754131  1
  H  H6  1  0.01316186  0.30324143  0.18278206  1
  H  H7  1  0.01237806  0.63648708  0.17633503  1
  H  H8  1  0.01106693  0.97202543  0.17916690  1
  H  H9  1  0.50190918  0.30630761  0.18048447  1
  H  H10  1  0.49392946  0.63754183  0.17850504  1
  H  H11  1  0.50200960  0.97048049  0.18099748  1
  H  H12  1  -0.01337778  0.02567135  0.82338874  1
  H  H13  1  -0.00149631  0.36301464  0.82206167  1
  H  H14  1  -0.00700278  0.69917966  0.81581938  1
  H  H15  1  0.51393446  0.03140440  0.81754685  1
  H  H16  1  0.50955984  0.35992226  0.82277014  1
  H  H17  1  0.49138417  0.69305122  0.82098874  1
  H  H18  1  -0.00008951  0.30641666  0.32081930  1
  H  H19  1  -0.01379979  0.63858830  0.32268734  1
  H  H20  1  -0.01485745  0.96860521  0.32080424  1
  H  H21  1  0.50969915  0.30864233  0.32320434  1
  H  H22  1  0.49362659  0.64094408  0.31839434  1
  H  H23  1  0.51195567  0.96671148  0.31983400  1
  H  H24  1  0.24657571  0.19733145  0.67702699  1
  H  H25  1  0.25950314  0.52738981  0.67805273  1
  H  H26  1  0.25595824  0.85797100  0.67551817  1
  H  H27  1  0.74344632  0.19722559  0.68194884  1
  H  H28  1  0.73333912  0.52617006  0.68031075  1
  H  H29  1  0.74381989  0.85802963  0.68051653  1
  H  H30  1  0.26330997  0.13404959  0.18183312  1
  H  H31  1  0.25675613  0.46682104  0.17809562  1
  H  H32  1  0.25480831  0.80643343  0.17991052  1
  H  H33  1  0.73773263  0.13442762  0.18349951  1
  H  H34  1  0.75822714  0.47219009  0.17811203  1
  H  H35  1  0.76080425  0.80749950  0.17875336  1
  H  H36  1  0.24683234  0.19736324  0.81657553  1
  H  H37  1  0.24221639  0.53199324  0.81519748  1
  H  H38  1  0.24513963  0.86376645  0.82009697  1
  H  H39  1  0.74094214  0.19959948  0.82240635  1
  H  H40  1  0.75188967  0.52846776  0.82434660  1
  H  H41  1  0.75917728  0.86463099  0.82012683  1
  H  H42  1  0.24606957  0.14026722  0.31885098  1
  H  H43  1  0.24420574  0.47327067  0.32301246  1
  H  H44  1  0.25412697  0.81035305  0.32285845  1
  H  H45  1  0.74792332  0.14118834  0.32095149  1
  H  H46  1  0.75045733  0.47054218  0.32161555  1
  H  H47  1  0.74694023  0.80142521  0.32038314  1
  H  H48  1  0.11644901  0.05705796  0.60340551  1
  H  H49  1  0.12097443  0.38364820  0.61967153  1
  H  H50  1  0.13406735  0.71453423  0.62411234  1
  H  H51  1  0.61584388  0.05987777  0.59613079  1
  H  H52  1  0.61825114  0.39052936  0.58982557  1
  H  H53  1  0.63398785  0.71782565  0.61912220  1
  H  H54  1  0.37299894  0.28157363  0.11309467  1
  H  H55  1  0.37169831  0.60964985  0.10734376  1
  H  H56  1  0.37718635  0.94564979  0.10972607  1
  H  H57  1  0.87352294  0.28378685  0.12646864  1
  H  H58  1  0.86907009  0.61823023  0.12704935  1
  H  H59  1  0.87568918  0.94742034  0.11943806  1
  H  H60  1  0.38064130  0.05436962  0.87960609  1
  H  H61  1  0.38774277  0.38769458  0.89445696  1
  H  H62  1  0.38491730  0.72551821  0.90407560  1
  H  H63  1  0.88195055  0.05545908  0.90815264  1
  H  H64  1  0.88774955  0.39126308  0.90259083  1
  H  H65  1  0.88440528  0.72559528  0.89826340  1
  H  H66  1  0.12275343  0.27902636  0.39223258  1
  H  H67  1  0.12231533  0.61443481  0.37966987  1
  H  H68  1  0.12624408  0.95168991  0.36985521  1
  H  H69  1  0.62205195  0.27856556  0.40127446  1
  H  H70  1  0.62554160  0.61658692  0.38232061  1
  H  H71  1  0.62027858  0.94372693  0.40153569  1
  H  H72  1  0.37509035  0.21917121  0.61314097  1
  H  H73  1  0.36818904  0.55595954  0.59745924  1
  H  H74  1  0.36928609  0.88969094  0.59752609  1
  H  H75  1  0.87538094  0.22080471  0.61706834  1
  H  H76  1  0.86527760  0.55154097  0.61790435  1
  H  H77  1  0.87141459  0.88369581  0.61538736  1
  H  H78  1  0.12404647  0.11475800  0.12522032  1
  H  H79  1  0.11840224  0.44885519  0.12053119  1
  H  H80  1  0.11850472  0.78422303  0.12400185  1
  H  H81  1  0.62086395  0.11606518  0.10612662  1
  H  H82  1  0.62165040  0.44960848  0.12014926  1
  H  H83  1  0.62151819  0.78359522  0.12733762  1
  H  H84  1  0.13300479  0.22043233  0.89478005  1
  H  H85  1  0.13443623  0.55803385  0.89821504  1
  H  H86  1  0.12581868  0.88895375  0.89501413  1
  H  H87  1  0.62850471  0.22372466  0.90129297  1
  H  H88  1  0.63256396  0.55663854  0.89750600  1
  H  H89  1  0.62539453  0.88403035  0.88088925  1
  H  H90  1  0.38056639  0.11791864  0.37638052  1
  H  H91  1  0.37670651  0.44980674  0.38274563  1
  H  H92  1  0.36618381  0.77779698  0.40193980  1
  H  H93  1  0.88182480  0.11446086  0.38163507  1
  H  H94  1  0.87512285  0.44611004  0.39389462  1
  H  H95  1  0.85835511  0.77452553  0.40110223  1
  H  H96  1  0.37467594  0.28372462  0.38209174  1
  H  H97  1  0.37714743  0.61159687  0.39321594  1
  H  H98  1  0.37370300  0.95005318  0.37506000  1
  H  H99  1  0.87364223  0.28219373  0.38956568  1
  H  H100  1  0.87655278  0.60952368  0.40508385  1
  H  H101  1  0.88216173  0.94207423  0.40572492  1
  H  H102  1  0.12563532  0.05019348  0.87663310  1
  H  H103  1  0.13438728  0.38375583  0.88024227  1
  H  H104  1  0.13089413  0.71879313  0.87414417  1
  H  H105  1  0.62940756  0.05520760  0.89502390  1
  H  H106  1  0.63612218  0.38616677  0.89217766  1
  H  H107  1  0.62977764  0.71719793  0.87200181  1
  H  H108  1  0.11963290  0.27725495  0.09917753  1
  H  H109  1  0.11106255  0.60537436  0.08829604  1
  H  H110  1  0.12232549  0.94397788  0.09697638  1
  H  H111  1  0.62129605  0.27769565  0.10514932  1
  H  H112  1  0.62052634  0.61386370  0.10978251  1
  H  H113  1  0.62607757  0.94439756  0.11214580  1
  H  H114  1  0.36935427  0.04790899  0.62133956  1
  H  H115  1  0.37444628  0.38109481  0.62443389  1
  H  H116  1  0.38760739  0.72419327  0.59629074  1
  H  H117  1  0.86847433  0.05241064  0.62041891  1
  H  H118  1  0.87358645  0.39235994  0.59956240  1
  H  H119  1  0.88780640  0.72369543  0.59811168  1
  H  H120  1  0.13271288  0.11353806  0.39606868  1
  H  H121  1  0.12837486  0.44646494  0.39859627  1
  H  H122  1  0.11938916  0.78137137  0.38215018  1
  H  H123  1  0.63373351  0.11383693  0.39868502  1
  H  H124  1  0.62604211  0.44425225  0.39299650  1
  H  H125  1  0.61114243  0.78150851  0.37932279  1
  H  H126  1  0.38128460  0.21687096  0.87550501  1
  H  H127  1  0.38080916  0.55061922  0.87289238  1
  H  H128  1  0.37440665  0.88758627  0.88713563  1
  H  H129  1  0.87543027  0.21903104  0.87954085  1
  H  H130  1  0.88063217  0.55348384  0.89158160  1
  H  H131  1  0.87374558  0.88849815  0.89650816  1
  H  H132  1  0.36985857  0.10919478  0.09786746  1
  H  H133  1  0.36600374  0.44088355  0.09636296  1
  H  H134  1  0.36527766  0.77549472  0.09969652  1
  H  H135  1  0.86953488  0.11398928  0.12162428  1
  H  H136  1  0.86853353  0.44276032  0.09886212  1
  H  H137  1  0.86621883  0.77639085  0.09540943  1
  H  H138  1  0.12622221  0.22294579  0.60397064  1
  H  H139  1  0.12243819  0.54728369  0.62496668  1
  H  H140  1  0.12200046  0.88314127  0.61655575  1
  H  H141  1  0.62726911  0.22190541  0.60257328  1
  H  H142  1  0.61695284  0.55139431  0.60274941  1
  H  H143  1  0.62193685  0.88793725  0.60863512  1
  H  H144  1  0.58885967  0.41382720  0.99620672  1
  H  H145  1  0.11563755  0.92297321  0.48560012  1
  H  H146  1  0.80034398  0.40889718  -0.00426338  1
  H  H147  1  0.14287230  0.75162465  0.01176873  1
  H  H148  1  0.94818968  0.57786679  0.50275407  1
  H  H149  1  0.83673023  0.09235856  0.00637105  1
  H  H150  1  0.55166352  0.91879989  0.50936488  1
  H  H151  1  0.67683132  0.90755071  0.50236913  1
  H  H152  1  0.95514925  0.75390013  1.00194321  1
  H  H153  1  0.81565426  0.91914892  1.00439319  1
  H  H154  1  0.29653653  0.75449717  -0.00268956  1
  H  H155  1  0.42364234  0.57769155  0.00028470  1
  H  H156  1  0.20538724  0.58570535  1.00167154  1
  H  H157  1  0.85041193  0.25024875  -0.00613593  1
  H  H158  1  0.56817472  0.07586130  1.00522729  1
  H  H159  1  0.19497089  0.08421164  0.50385135  1
  H  H160  1  0.14218432  0.58176785  0.51115820  1
  H  H161  1  0.35154784  0.41716934  0.49472844  1
  H  H162  1  0.95460138  0.75275849  0.49232467  1
  H  H163  1  0.19409793  0.24690121  1.00328758  1
  H  H164  1  0.78949480  0.75234325  -0.00499821  1
  H  H165  1  0.11521761  0.74402790  0.51166838  1
  H  H166  1  0.04612516  0.24795250  -0.00385586  1
  H  H167  1  0.60636037  0.74637395  0.51007556  1
  H  H168  1  0.67718783  0.58217998  0.49807014  1
  H  H169  1  0.14116648  0.42039504  0.01082169  1
  H  H170  1  0.54228364  0.08678193  0.49510926  1
  H  H171  1  0.82944885  0.91296755  0.50347974  1
  H  H172  1  0.67824132  0.10045669  -0.00569823  1
  H  H173  1  0.33861971  0.25237032  0.50155149  1
  H  H174  1  0.43785110  0.57745313  0.49848487  1
  H  H175  1  0.35571088  0.08662601  0.48920533  1
  H  H176  1  0.96165933  0.07826010  1.00746437  1
  H  H177  1  0.02707961  0.58037076  -0.00798115  1
  H  H178  1  0.35461210  0.24656137  0.98834233  1
  H  H179  1  0.32864463  0.91659502  0.99274421  1
  H  H180  1  0.92031767  0.25157968  0.49818088  1
  H  H181  1  0.29779738  0.41200947  -0.00849263  1
  H  H182  1  0.61220333  0.74828851  0.98626921  1
  H  H183  1  0.95693046  0.91656254  0.51009665  1
  H  H184  1  0.58058593  0.91421717  0.00317397  1
  H  H185  1  0.05038068  0.08602458  0.49786072  1
  H  H186  1  0.45919886  0.74694014  1.00430440  1
  H  H187  1  0.41711577  0.07135517  0.98992266  1
  H  H188  1  0.29481959  0.08610371  -0.00731463  1
  H  H189  1  0.18394297  0.41478798  0.50494712  1
  H  H190  1  0.69942886  0.08460034  0.50470991  1
  H  H191  1  0.83711767  0.58243153  0.99658905  1
  Pb  Pb192  1  0.25123129  0.04689238  0.74770327  1
  Pb  Pb193  1  0.25409410  0.38144577  0.75380880  1
  Pb  Pb194  1  0.25959425  0.71576053  0.75573059  1
  Pb  Pb195  1  0.75600313  0.05029139  0.75328712  1
  Pb  Pb196  1  0.75398654  0.38075622  0.75041529  1
  Pb  Pb197  1  0.75545530  0.71408699  0.75424490  1
  Pb  Pb198  1  0.24749210  0.28554607  0.24589472  1
  Pb  Pb199  1  0.24929693  0.61630216  0.24199796  1
  Pb  Pb200  1  0.24648992  0.95409722  0.23855473  1
  Pb  Pb201  1  0.74661328  0.28668169  0.25043320  1
  Pb  Pb202  1  0.74578943  0.62045041  0.25456767  1
  Pb  Pb203  1  0.75159741  0.94834529  0.26120276  1
  Pb  Pb204  1  0.00716166  0.21585742  0.75186457  1
  Pb  Pb205  1  0.00282517  0.54773847  0.75294979  1
  Pb  Pb206  1  0.00243810  0.87982676  0.75189787  1
  Pb  Pb207  1  0.50356022  0.21479216  0.74704224  1
  Pb  Pb208  1  0.50612107  0.54636540  0.74450651  1
  Pb  Pb209  1  0.50364083  0.88259728  0.74762303  1
  Pb  Pb210  1  -0.00250773  0.11974995  0.24998226  1
  Pb  Pb211  1  -0.00505297  0.45260366  0.25245285  1
  Pb  Pb212  1  -0.00046537  0.78272330  0.24775219  1
  Pb  Pb213  1  0.50347669  0.11581247  0.24889207  1
  Pb  Pb214  1  0.49872160  0.45284318  0.24494844  1
  Pb  Pb215  1  0.49269838  0.78593293  0.24636991  1
  C  C216  1  -0.00417781  0.04670375  0.63539186  1
  C  C217  1  -0.00650347  0.37806399  0.63161379  1
  C  C218  1  0.00620392  0.71043805  0.63117585  1
  C  C219  1  0.49801745  0.04437259  0.63043114  1
  C  C220  1  0.50239959  0.37920266  0.62703595  1
  C  C221  1  0.50687283  0.71150208  0.63083275  1
  C  C222  1  0.00173581  0.28826192  0.13578120  1
  C  C223  1  -0.00240616  0.62062220  0.13026632  1
  C  C224  1  0.00320669  0.95525003  0.13247330  1
  C  C225  1  0.49873101  0.28899018  0.13365504  1
  C  C226  1  0.49526382  0.62027722  0.13165910  1
  C  C227  1  0.50154547  0.95365717  0.13397909  1
  C  C228  1  -0.00228312  0.04238490  0.86971116  1
  C  C229  1  0.00687586  0.37924150  0.86871351  1
  C  C230  1  0.00331911  0.71350709  0.86312360  1
  C  C231  1  0.50726200  0.04587762  0.86530733  1
  C  C232  1  0.51153135  0.37683986  0.86970865  1
  C  C233  1  0.50206506  0.70993569  0.86744470  1
  C  C234  1  -0.00122713  0.28983470  0.36791034  1
  C  C235  1  -0.00538489  0.62170645  0.36928587  1
  C  C236  1  -0.00158889  0.95447226  0.36783600  1
  C  C237  1  0.50176438  0.29144770  0.36950066  1
  C  C238  1  0.49897478  0.62367895  0.36510152  1
  C  C239  1  0.50198838  0.95395264  0.36753066  1
  C  C240  1  0.24986678  0.21320012  0.62975763  1
  C  C241  1  0.24901419  0.54366739  0.63155442  1
  C  C242  1  0.24936410  0.87610924  0.62940653  1
  C  C243  1  0.74871465  0.21272888  0.63453534  1
  C  C244  1  0.73863308  0.54268921  0.63333470  1
  C  C245  1  0.74508687  0.87513194  0.63341303  1
  C  C246  1  0.25200469  0.12012429  0.13454201  1
  C  C247  1  0.24633661  0.45249692  0.13064610  1
  C  C248  1  0.24627268  0.79039417  0.13292180  1
  C  C249  1  0.74297551  0.12200215  0.13509201  1
  C  C250  1  0.74916767  0.45542836  0.13153993  1
  C  C251  1  0.74963437  0.79115123  0.13228652  1
  C  C252  1  0.25410858  0.21179763  0.86422298  1
  C  C253  1  0.25285545  0.54669689  0.86233257  1
  C  C254  1  0.24894423  0.87997142  0.86728016  1
  C  C255  1  0.74918309  0.21442953  0.86971831  1
  C  C256  1  0.75566205  0.54573067  0.87107194  1
  C  C257  1  0.75298537  0.87927845  0.86765463  1
  C  C258  1  0.25350450  0.12399550  0.36587836  1
  C  C259  1  0.24990915  0.45667603  0.37008369  1
  C  C260  1  0.24648686  0.79149225  0.36870821  1
  C  C261  1  0.75474837  0.12362112  0.36739848  1
  C  C262  1  0.75057862  0.45418306  0.36884679  1
  C  C263  1  0.73893249  0.78649138  0.36755047  1
  C  C264  1  0.01786843  0.25994986  0.03992799  1
  C  C265  1  0.53719461  0.07052231  0.96123618  1
  C  C266  1  0.68662934  0.75997905  0.45608497  1
  C  C267  1  0.06638487  0.73601735  0.54418873  1
  C  C268  1  0.06455400  0.93122127  0.45360279  1
  C  C269  1  0.46144902  0.58978604  0.03941388  1
  C  C270  1  0.52531901  0.25811500  0.46296931  1
  C  C271  1  0.05981848  0.40681514  0.95680390  1
  C  C272  1  0.56437123  0.73977848  0.95177940  1
  C  C273  1  0.43712646  0.40285097  0.54199762  1
  C  C274  1  0.43687497  0.07197244  0.54405089  1
  C  C275  1  0.97166355  0.41330118  0.53895909  1
  C  C276  1  0.79365079  0.10134482  0.04301095  1
  C  C277  1  0.18853316  0.76106946  0.04662503  1
  C  C278  1  0.26760852  0.09524478  0.03753012  1
  C  C279  1  0.80390247  0.24097605  0.95938478  1
  C  C280  1  0.98538765  0.73973699  0.53465168  1
  C  C281  1  0.23519788  0.57394465  0.95831987  1
  C  C282  1  0.71214186  0.10383328  0.03720963  1
  C  C283  1  0.73091225  0.09406389  0.46164756  1
  C  C284  1  0.47175217  0.59143632  0.45790371  1
  C  C285  1  0.51613380  0.40566025  0.53071104  1
  C  C286  1  0.44149656  0.93150282  0.45499953  1
  C  C287  1  0.52168913  0.92901995  0.46581271  1
  C  C288  1  0.53915293  0.92525209  0.04171241  1
  C  C289  1  0.19867626  0.90808509  0.54215059  1
  C  C290  1  0.26805743  0.42471543  0.03440835  1
  C  C291  1  0.22730836  0.09554299  0.46171481  1
  C  C292  1  0.76963856  0.42286939  0.03776365  1
  C  C293  1  0.68611356  0.76134284  0.04775672  1
  C  C294  1  0.27098318  0.57564679  0.53646864  1
  C  C295  1  0.79047454  0.90427519  0.54280908  1
  C  C296  1  0.30249867  0.42825857  0.45971194  1
  C  C297  1  0.22701063  0.23726313  0.96095832  1
  C  C298  1  0.01870797  0.07438998  0.54030580  1
  C  C299  1  0.29558273  0.24177780  0.53781700  1
  C  C300  1  0.78028948  0.90730506  0.96391171  1
  C  C301  1  0.22072746  0.42678472  0.46512062  1
  C  C302  1  0.30869207  0.23680314  0.95386034  1
  C  C303  1  0.71190268  0.57156393  0.53929566  1
  C  C304  1  0.30888532  0.09661577  0.45454985  1
  C  C305  1  0.69916289  0.90483655  0.95710133  1
  C  C306  1  0.98409844  0.92787548  0.46590129  1
  C  C307  1  0.21425281  0.24229934  0.53627649  1
  C  C308  1  0.19023446  0.57267205  0.54428524  1
  C  C309  1  0.96010153  0.26189317  0.45970503  1
  C  C310  1  0.98473079  0.74106656  0.95890612  1
  C  C311  1  0.72288801  0.24247501  0.96530709  1
  N  N312  1  0.76383987  0.75926250  0.03796892  1
  N  N313  1  0.79663472  0.24076681  0.54407244  1
  N  N314  1  0.55973654  0.73883713  0.54440044  1
  N  N315  1  0.79725764  0.57488326  0.96034983  1
  N  N316  1  0.53055743  0.25673693  0.04055553  1
  N  N317  1  0.98442472  0.07368529  0.96327059  1
  N  N318  1  0.69082696  0.42548441  0.04440830  1
  N  N319  1  0.00541013  0.58828093  0.03654387  1
  N  N320  1  0.44824670  0.25978759  0.45778210  1
  N  N321  1  0.94000785  0.07250299  0.54591572  1
  N  N322  1  0.29021176  0.90735860  0.95687406  1
  N  N323  1  0.27559437  0.91078398  0.53476862  1
  N  N324  1  0.94993493  0.92590815  0.04416967  1
  N  N325  1  0.97616916  0.58985529  0.46223458  1
  N  N326  1  0.04888141  0.41033342  0.54396798  1
  N  N327  1  0.72041674  0.24105643  0.53943663  1
  N  N328  1  0.18945290  0.09655079  0.04700114  1
  N  N329  1  0.21225489  0.90814437  0.96091625  1
  N  N330  1  0.47176723  0.40726565  0.96192586  1
  N  N331  1  0.31367821  0.57111195  0.95035838  1
  N  N332  1  0.27071627  0.75542531  0.46156526  1
  N  N333  1  0.71922793  0.57607142  0.96402894  1
  N  N334  1  0.80962017  0.09220193  0.45530073  1
  N  N335  1  0.51473322  0.07572274  0.53612378  1
  N  N336  1  0.79096635  0.57273441  0.54390833  1
  N  N337  1  0.48583195  0.74315505  0.96128518  1
  N  N338  1  0.02607197  0.92427630  0.03734164  1
  N  N339  1  0.54996130  0.40632016  0.95963433  1
  N  N340  1  0.26743585  0.75816540  0.03933799  1
  N  N341  1  0.71256800  0.42365957  0.46116043  1
  N  N342  1  0.48249331  0.74137869  0.53548245  1
  N  N343  1  0.19529594  0.75654773  0.45464188  1
  N  N344  1  0.98294446  0.40980706  0.96520975  1
  N  N345  1  0.06140217  0.07217392  0.95367857  1
  N  N346  1  0.45807854  0.07132907  0.95468062  1
  N  N347  1  0.93976740  0.26217411  0.04919351  1
  N  N348  1  0.92899656  0.59334818  0.04789354  1
  N  N349  1  0.06315331  0.73776719  0.95122789  1
  N  N350  1  0.18940746  0.42809704  0.04350949  1
  N  N351  1  0.03938599  0.26022383  0.46102273  1
  N  N352  1  0.54062893  0.59122989  0.03971426  1
  N  N353  1  0.78872390  0.42437779  0.46136112  1
  N  N354  1  0.71085962  0.90653999  0.54182443  1
  N  N355  1  0.76361152  0.75783289  0.46459513  1
  N  N356  1  0.45451185  0.25823127  0.04312965  1
  N  N357  1  0.05349897  0.59187513  0.45516094  1
  N  N358  1  0.55084621  0.59290109  0.45429910  1
  N  N359  1  0.45971757  0.92539020  0.04052100  1
  N  N360  1  0.05468210  0.05881661  0.59489081  1
  N  N361  1  0.06236465  0.38801715  0.60315190  1
  N  N362  1  0.07780424  0.71820680  0.60411278  1
  N  N363  1  0.55368102  0.05689431  0.58889053  1
  N  N364  1  0.55653740  0.39149862  0.58223121  1
  N  N365  1  0.57588401  0.72010881  0.60197558  1
  N  N366  1  0.43315840  0.27793549  0.10078836  1
  N  N367  1  0.43187531  0.60733705  0.09568463  1
  N  N368  1  0.43811375  0.94271393  0.09877595  1
  N  N369  1  0.93128919  0.27953682  0.10891981  1
  N  N370  1  0.92478822  0.61130166  0.10703055  1
  N  N371  1  0.93460582  0.94472051  0.10327804  1
  N  N372  1  0.43967948  0.05329113  0.89623826  1
  N  N373  1  0.44861166  0.38979697  0.90530193  1
  N  N374  1  0.44741735  0.72123946  0.91034167  1
  N  N375  1  0.94397345  0.05331644  0.91331537  1
  N  N376  1  0.94998221  0.39220420  0.90898726  1
  N  N377  1  0.94670376  0.72585358  0.90540002  1
  N  N378  1  0.06165260  0.27791156  0.40357064  1
  N  N379  1  0.06448394  0.61060893  0.39700328  1
  N  N380  1  0.07155892  0.94750766  0.39255264  1
  N  N381  1  0.56054472  0.27685714  0.40989976  1
  N  N382  1  0.56595486  0.61274029  0.39624469  1
  N  N383  1  0.55872493  0.94332587  0.40992303  1
  N  N384  1  0.31655335  0.22366237  0.59729245  1
  N  N385  1  0.30631689  0.55801468  0.58898151  1
  N  N386  1  0.30737303  0.88994386  0.59038678  1
  N  N387  1  0.81549849  0.22331834  0.60313822  1
  N  N388  1  0.80570341  0.55474023  0.60281653  1
  N  N389  1  0.81200687  0.88677155  0.60014858  1
  N  N390  1  0.18154619  0.11185967  0.10721524  1
  N  N391  1  0.17642690  0.44533714  0.10265853  1
  N  N392  1  0.17520759  0.77944366  0.10512897  1
  N  N393  1  0.68166671  0.11619847  0.09497092  1
  N  N394  1  0.67983144  0.44582942  0.10333968  1
  N  N395  1  0.67680807  0.77964036  0.10666166  1
  N  N396  1  0.19444065  0.22194647  0.90476860  1
  N  N397  1  0.19652987  0.55910596  0.90478858  1
  N  N398  1  0.18704061  0.89152922  0.90457818  1
  N  N399  1  0.68990827  0.22648431  0.91142461  1
  N  N400  1  0.69377959  0.55886166  0.90779731  1
  N  N401  1  0.68312583  0.88835179  0.89876105  1
  N  N402  1  0.32349329  0.11404239  0.39473132  1
  N  N403  1  0.31878061  0.44661631  0.40031825  1
  N  N404  1  0.30410060  0.77707069  0.40844407  1
  N  N405  1  0.82272072  0.11090054  0.39669294  1
  N  N406  1  0.81392801  0.44324551  0.40426822  1
  N  N407  1  0.79615987  0.77470960  0.40804610  1
  N  N408  1  0.43337832  0.28110513  0.39846401  1
  N  N409  1  0.43834601  0.61029716  0.40361801  1
  N  N410  1  0.43003977  0.94629387  0.39581795  1
  N  N411  1  0.93366936  0.27949727  0.40275229  1
  N  N412  1  0.93873629  0.60927154  0.41078609  1
  N  N413  1  0.94403287  0.94237390  0.41206604  1
  N  N414  1  0.06897387  0.05446200  0.89486399  1
  N  N415  1  0.07712947  0.38877748  0.89786640  1
  N  N416  1  0.07316887  0.72086166  0.89136616  1
  N  N417  1  0.56824704  0.05624122  0.90546646  1
  N  N418  1  0.57568427  0.38656424  0.90441715  1
  N  N419  1  0.57446513  0.72112335  0.89296181  1
  N  N420  1  0.05746318  0.27581380  0.09278413  1
  N  N421  1  0.04852144  0.60773804  0.08520317  1
  N  N422  1  0.06028198  0.94237852  0.09181018  1
  N  N423  1  0.55953948  0.27559434  0.09654370  1
  N  N424  1  0.55989489  0.60985498  0.09748773  1
  N  N425  1  0.56608091  0.94228081  0.09876670  1
  N  N426  1  0.42588974  0.05337272  0.60264505  1
  N  N427  1  0.42885088  0.38659334  0.60180133  1
  N  N428  1  0.44987222  0.72468582  0.58963052  1
  N  N429  1  0.92742273  0.05552802  0.60521865  1
  N  N430  1  0.93517394  0.39390909  0.59128473  1
  N  N431  1  0.94915273  0.72352140  0.58925193  1
  N  N432  1  0.19408060  0.11236955  0.40614396  1
  N  N433  1  0.18939271  0.44438784  0.40892347  1
  N  N434  1  0.17831030  0.77944594  0.39769581  1
  N  N435  1  0.69550077  0.11230035  0.40783886  1
  N  N436  1  0.68724539  0.44219653  0.40389043  1
  N  N437  1  0.66886180  0.77730332  0.39698820  1
  N  N438  1  0.32383156  0.22114854  0.89365260  1
  N  N439  1  0.32280689  0.55449591  0.89036273  1
  N  N440  1  0.31430077  0.89023330  0.90031071  1
  N  N441  1  0.81888013  0.22354508  0.89869262  1
  N  N442  1  0.82087997  0.55540562  0.90448999  1
  N  N443  1  0.81275013  0.89106783  0.90694647  1
  N  N444  1  0.30779095  0.10959989  0.09091789  1
  N  N445  1  0.30395742  0.43997298  0.08836093  1
  N  N446  1  0.30315503  0.77952057  0.09167681  1
  N  N447  1  0.81140225  0.11267219  0.10399230  1
  N  N448  1  0.80671455  0.44105165  0.09072257  1
  N  N449  1  0.80404247  0.78084933  0.08908763  1
  N  N450  1  0.18669320  0.22506558  0.59162183  1
  N  N451  1  0.17803950  0.55294516  0.60460215  1
  N  N452  1  0.17987769  0.88777350  0.59969700  1
  N  N453  1  0.68933510  0.22392996  0.59525293  1
  N  N454  1  0.67828695  0.55371919  0.59379602  1
  N  N455  1  0.68288752  0.88519908  0.59678672  1
  Cl  Cl456  1  0.23932712  0.05473346  0.61489852  1
  Cl  Cl457  1  0.24477576  0.38492149  0.62533947  1
  Cl  Cl458  1  0.26818058  0.72074226  0.62504604  1
  Cl  Cl459  1  0.73632248  0.05589264  0.61674017  1
  Cl  Cl460  1  0.74749864  0.39135763  0.61978852  1
  Cl  Cl461  1  0.76075479  0.72352091  0.62392129  1
  Cl  Cl462  1  0.24502709  0.28049861  0.10997232  1
  Cl  Cl463  1  0.23396466  0.60884207  0.10493526  1
  Cl  Cl464  1  0.25189538  0.94394863  0.10320158  1
  Cl  Cl465  1  0.74405189  0.27945122  0.11707420  1
  Cl  Cl466  1  0.74346989  0.62019230  0.12182219  1
  Cl  Cl467  1  0.75125215  0.94409433  0.12814096  1
  Cl  Cl468  1  0.25741954  0.05675792  0.88269302  1
  Cl  Cl469  1  0.26308106  0.38833788  0.88948436  1
  Cl  Cl470  1  0.26461140  0.73111268  0.89704174  1
  Cl  Cl471  1  0.75694906  0.05815862  0.88943080  1
  Cl  Cl472  1  0.76135562  0.39021922  0.88859608  1
  Cl  Cl473  1  0.76374392  0.72779446  0.89768765  1
  Cl  Cl474  1  0.24660333  0.27641024  0.37710502  1
  Cl  Cl475  1  0.25112774  0.61132391  0.37371994  1
  Cl  Cl476  1  0.25066807  0.94738914  0.36516089  1
  Cl  Cl477  1  0.74690035  0.27791596  0.38110062  1
  Cl  Cl478  1  0.75355064  0.61347986  0.38861959  1
  Cl  Cl479  1  0.74931311  0.93838947  0.39845357  1
  Cl  Cl480  1  -0.00001300  0.22315273  0.61976428  1
  Cl  Cl481  1  -0.01070443  0.55491337  0.61838249  1
  Cl  Cl482  1  -0.00505479  0.88671063  0.61778764  1
  Cl  Cl483  1  0.50465054  0.21637284  0.61439616  1
  Cl  Cl484  1  0.49152349  0.55558191  0.60946646  1
  Cl  Cl485  1  0.49792648  0.89121191  0.61173119  1
  Cl  Cl486  1  -0.00674201  0.10578458  0.11371034  1
  Cl  Cl487  1  -0.00641445  0.44837499  0.11989081  1
  Cl  Cl488  1  -0.01262370  0.77281543  0.11118934  1
  Cl  Cl489  1  0.49426893  0.10439448  0.11017640  1
  Cl  Cl490  1  0.49131789  0.44268981  0.11182815  1
  Cl  Cl491  1  0.48611197  0.76956628  0.10498412  1
  Cl  Cl492  1  0.00975361  0.22198538  0.88688939  1
  Cl  Cl493  1  0.00989944  0.55914817  0.89672016  1
  Cl  Cl494  1  0.00105520  0.88552912  0.88285840  1
  Cl  Cl495  1  0.50786336  0.21711672  0.87898977  1
  Cl  Cl496  1  0.50937038  0.55418268  0.87737599  1
  Cl  Cl497  1  0.49803915  0.88697193  0.88022532  1
  Cl  Cl498  1  0.00995551  0.11153242  0.38330368  1
  Cl  Cl499  1  -0.00039542  0.44792550  0.38547170  1
  Cl  Cl500  1  -0.01503876  0.77510200  0.38216996  1
  Cl  Cl501  1  0.51268122  0.10995696  0.38969468  1
  Cl  Cl502  1  0.50396732  0.44730177  0.37642887  1
  Cl  Cl503  1  0.48519770  0.78106597  0.37819007  1
  Cl  Cl504  1  0.36772860  0.14503539  0.75101080  1
  Cl  Cl505  1  0.36194070  0.48329354  0.75226975  1
  Cl  Cl506  1  0.35840229  0.81702788  0.75391456  1
  Cl  Cl507  1  0.86143029  0.14513600  0.75131814  1
  Cl  Cl508  1  0.86574766  0.48258290  0.75408370  1
  Cl  Cl509  1  0.85915750  0.81830788  0.74991730  1
  Cl  Cl510  1  0.13420082  0.18600264  0.23952579  1
  Cl  Cl511  1  0.13218690  0.51931859  0.24619439  1
  Cl  Cl512  1  0.13393522  0.85267206  0.24926470  1
  Cl  Cl513  1  0.63818160  0.18362853  0.25193984  1
  Cl  Cl514  1  0.63669385  0.51849958  0.24346215  1
  Cl  Cl515  1  0.62890700  0.85440662  0.24584029  1
  Cl  Cl516  1  0.14449690  0.15035163  0.74843115  1
  Cl  Cl517  1  0.13858928  0.48005749  0.74732340  1
  Cl  Cl518  1  0.14047661  0.81201273  0.74877977  1
  Cl  Cl519  1  0.64104359  0.14885349  0.75473545  1
  Cl  Cl520  1  0.64523285  0.48285418  0.75901358  1
  Cl  Cl521  1  0.63732795  0.81111566  0.75824383  1
  Cl  Cl522  1  0.35705795  0.18605816  0.25244309  1
  Cl  Cl523  1  0.35050487  0.51890930  0.24566699  1
  Cl  Cl524  1  0.35572133  0.85232606  0.24604176  1
  Cl  Cl525  1  0.86023935  0.18633537  0.24700805  1
  Cl  Cl526  1  0.85740881  0.52013148  0.24847735  1
  Cl  Cl527  1  0.85006465  0.85090039  0.25496952  1
  Cl  Cl528  1  0.11422032  0.31523279  0.75213621  1
  Cl  Cl529  1  0.11728076  0.64665449  0.75179956  1
  Cl  Cl530  1  0.11097896  0.98240027  0.75751790  1
  Cl  Cl531  1  0.61079433  0.31795875  0.74804470  1
  Cl  Cl532  1  0.61699264  0.64833185  0.74808348  1
  Cl  Cl533  1  0.60816925  0.97951577  0.74776761  1
  Cl  Cl534  1  0.38611130  0.01837292  0.25172325  1
  Cl  Cl535  1  0.38278670  0.35420678  0.25323389  1
  Cl  Cl536  1  0.38666743  0.68261615  0.24464178  1
  Cl  Cl537  1  0.88622946  0.01789779  0.25136898  1
  Cl  Cl538  1  0.88554157  0.35096583  0.24486864  1
  Cl  Cl539  1  0.88557138  0.68317436  0.24530763  1
  Cl  Cl540  1  0.38959170  0.31407396  0.74933236  1
  Cl  Cl541  1  0.39582431  0.64818968  0.75330955  1
  Cl  Cl542  1  0.38800897  0.98061094  0.74929366  1
  Cl  Cl543  1  0.89271314  0.31438658  0.75579574  1
  Cl  Cl544  1  0.89510456  0.65025299  0.74866719  1
  Cl  Cl545  1  0.89000483  0.98093021  0.74399823  1
  Cl  Cl546  1  0.10951949  0.01938674  0.25129953  1
  Cl  Cl547  1  0.10926563  0.35324196  0.25320312  1
  Cl  Cl548  1  0.10316050  0.68757747  0.25398589  1
  Cl  Cl549  1  0.60610644  0.02024121  0.24921750  1
  Cl  Cl550  1  0.60606523  0.35198659  0.24762571  1
  Cl  Cl551  1  0.60747023  0.68802206  0.25309286  1
