# generated using pymatgen
data_H8PbC4(N3Cl2)2
_symmetry_space_group_name_H-M   'P 1'
_cell_length_a   16.62240821
_cell_length_b   22.50093580
_cell_length_c   21.58830185
_cell_angle_alpha   90.00033340
_cell_angle_beta   90.01249756
_cell_angle_gamma   89.99993195
_symmetry_Int_Tables_number   1
_chemical_formula_structural   H8PbC4(N3Cl2)2
_chemical_formula_sum   'H192 Pb24 C96 N144 Cl96'
_cell_volume   8074.45085431
_cell_formula_units_Z   24
loop_
 _symmetry_equiv_pos_site_id
 _symmetry_equiv_pos_as_xyz
  1  'x, y, z'
loop_
 _atom_site_type_symbol
 _atom_site_label
 _atom_site_symmetry_multiplicity
 _atom_site_fract_x
 _atom_site_fract_y
 _atom_site_fract_z
 _atom_site_occupancy
  H  H0  1  -0.00726622  0.03313853  0.68070308  1
  H  H1  1  -0.00168444  0.36822029  0.67717236  1
  H  H2  1  0.00236322  0.69810649  0.67859997  1
  H  H3  1  0.51108777  0.03164988  0.68201746  1
  H  H4  1  0.50633481  0.36556067  0.67911077  1
  H  H5  1  0.49655007  0.69946754  0.67978909  1
  H  H6  1  0.00691036  0.30217115  0.18156841  1
  H  H7  1  -0.00521061  0.63338860  0.17851616  1
  H  H8  1  0.00768693  0.96559871  0.17960970  1
  H  H9  1  0.50084958  0.30111667  0.17984961  1
  H  H10  1  0.50547530  0.63443316  0.18031902  1
  H  H11  1  0.49246822  0.96752817  0.18322732  1
  H  H12  1  0.00733290  0.03283292  0.81723126  1
  H  H13  1  -0.00097582  0.36587736  0.81759266  1
  H  H14  1  -0.00184242  0.69823467  0.81837302  1
  H  H15  1  0.49286646  0.03218871  0.82064362  1
  H  H16  1  0.49625042  0.36527817  0.81766191  1
  H  H17  1  0.49962273  0.69898439  0.81885557  1
  H  H18  1  -0.00409085  0.30177926  0.31835883  1
  H  H19  1  -0.00094646  0.63202246  0.32312798  1
  H  H20  1  -0.00492329  0.96754691  0.31873302  1
  H  H21  1  0.50337147  0.30127077  0.31899959  1
  H  H22  1  0.50146881  0.63314355  0.31954194  1
  H  H23  1  0.49812744  0.96721053  0.31771862  1
  H  H24  1  0.25189846  0.19832317  0.68148181  1
  H  H25  1  0.25244812  0.53168471  0.67829952  1
  H  H26  1  0.25201373  0.86492126  0.67859522  1
  H  H27  1  0.75186425  0.20011775  0.68328625  1
  H  H28  1  0.74951066  0.53350068  0.68013490  1
  H  H29  1  0.75061295  0.86423041  0.67967294  1
  H  H30  1  0.24850057  0.13356475  0.18172015  1
  H  H31  1  0.25020001  0.46885267  0.18317197  1
  H  H32  1  0.24663746  0.80051450  0.18126976  1
  H  H33  1  0.75046480  0.13537638  0.18197803  1
  H  H34  1  0.75239357  0.46648424  0.18009094  1
  H  H35  1  0.74888034  0.80269219  0.18158158  1
  H  H36  1  0.24273474  0.19970761  0.81798847  1
  H  H37  1  0.25478004  0.53222098  0.81997698  1
  H  H38  1  0.25265472  0.86363464  0.81770211  1
  H  H39  1  0.75184927  0.19852863  0.81797963  1
  H  H40  1  0.74741168  0.53348811  0.81930900  1
  H  H41  1  0.74922849  0.86481455  0.82027951  1
  H  H42  1  0.24986420  0.13512725  0.31788126  1
  H  H43  1  0.24599642  0.46775458  0.32143033  1
  H  H44  1  0.24556443  0.80080998  0.32095586  1
  H  H45  1  0.75171923  0.13449134  0.31637979  1
  H  H46  1  0.74793219  0.46748693  0.32182894  1
  H  H47  1  0.74926005  0.80004618  0.32011149  1
  H  H48  1  0.12698395  0.05212957  0.62023445  1
  H  H49  1  0.12238918  0.38655960  0.60770664  1
  H  H50  1  0.11891290  0.72140517  0.60044014  1
  H  H51  1  0.62125056  0.05604422  0.59866183  1
  H  H52  1  0.61738052  0.39214866  0.59822608  1
  H  H53  1  0.62276258  0.72057211  0.60904174  1
  H  H54  1  0.37217832  0.27885650  0.11140864  1
  H  H55  1  0.37097221  0.61555670  0.11957650  1
  H  H56  1  0.37713506  0.94452870  0.10607597  1
  H  H57  1  0.87328307  0.28167515  0.11873145  1
  H  H58  1  0.87530906  0.61101304  0.10349191  1
  H  H59  1  0.86764801  0.94953051  0.12730285  1
  H  H60  1  0.38194902  0.05879868  0.90153225  1
  H  H61  1  0.37645878  0.38851922  0.89211669  1
  H  H62  1  0.37393680  0.72017881  0.88952562  1
  H  H63  1  0.87301154  0.05081610  0.87672429  1
  H  H64  1  0.87541130  0.38874561  0.89038302  1
  H  H65  1  0.87550173  0.71895949  0.88978752  1
  H  H66  1  0.12591401  0.28294721  0.38447671  1
  H  H67  1  0.12186692  0.61249804  0.39336654  1
  H  H68  1  0.13092071  0.94726729  0.37978475  1
  H  H69  1  0.62489503  0.27915926  0.39412084  1
  H  H70  1  0.61886012  0.61352337  0.39483340  1
  H  H71  1  0.62961952  0.94575494  0.38392997  1
  H  H72  1  0.37508880  0.22167744  0.60876436  1
  H  H73  1  0.37671126  0.55561912  0.60805603  1
  H  H74  1  0.36777187  0.89033683  0.60170207  1
  H  H75  1  0.87422721  0.22164866  0.60876028  1
  H  H76  1  0.88110822  0.55047831  0.61515725  1
  H  H77  1  0.86979775  0.88750196  0.60371816  1
  H  H78  1  0.12470334  0.11400766  0.10997609  1
  H  H79  1  0.12602425  0.44683454  0.10994263  1
  H  H80  1  0.12517933  0.77677837  0.10888083  1
  H  H81  1  0.62397316  0.11212083  0.11121406  1
  H  H82  1  0.62403597  0.44562891  0.11106269  1
  H  H83  1  0.62501544  0.77912365  0.11122698  1
  H  H84  1  0.13133503  0.22438998  0.89843154  1
  H  H85  1  0.12832817  0.55449846  0.88966539  1
  H  H86  1  0.12492464  0.88814983  0.88526858  1
  H  H87  1  0.62678911  0.22090788  0.88907166  1
  H  H88  1  0.63122704  0.55544505  0.89465215  1
  H  H89  1  0.63262578  0.88932276  0.89818967  1
  H  H90  1  0.37447504  0.11154482  0.38819476  1
  H  H91  1  0.37473235  0.44860901  0.38577258  1
  H  H92  1  0.37903949  0.77964925  0.38221902  1
  H  H93  1  0.87545147  0.11442105  0.38706936  1
  H  H94  1  0.88107644  0.44923137  0.38551227  1
  H  H95  1  0.87580385  0.77743248  0.39034061  1
  H  H96  1  0.37638348  0.28027410  0.38794018  1
  H  H97  1  0.36968036  0.61462003  0.38369125  1
  H  H98  1  0.38105440  0.94313212  0.39420802  1
  H  H99  1  0.87667049  0.28090762  0.39177473  1
  H  H100  1  0.87295052  0.61415461  0.39099282  1
  H  H101  1  0.88314231  0.94219981  0.39878899  1
  H  H102  1  0.12100793  0.05622607  0.89537150  1
  H  H103  1  0.12474663  0.38777653  0.88751728  1
  H  H104  1  0.12503620  0.71865567  0.88554694  1
  H  H105  1  0.62871565  0.04985159  0.87997703  1
  H  H106  1  0.62540453  0.38684110  0.88478803  1
  H  H107  1  0.62411552  0.72061389  0.88908212  1
  H  H108  1  0.12073232  0.27667869  0.10138309  1
  H  H109  1  0.12429226  0.61374916  0.11173102  1
  H  H110  1  0.11334562  0.94194301  0.09646327  1
  H  H111  1  0.62055430  0.27746964  0.10483032  1
  H  H112  1  0.61971821  0.60995898  0.10090472  1
  H  H113  1  0.62571577  0.94779873  0.12317130  1
  H  H114  1  0.37506419  0.05159708  0.62276940  1
  H  H115  1  0.36995061  0.38579548  0.62153539  1
  H  H116  1  0.37359190  0.72087787  0.60686397  1
  H  H117  1  0.87910615  0.05623471  0.60008107  1
  H  H118  1  0.87382701  0.38820766  0.60837559  1
  H  H119  1  0.87002575  0.71825837  0.61499480  1
  H  H120  1  0.12541443  0.11328349  0.39040530  1
  H  H121  1  0.12601885  0.44617854  0.39581400  1
  H  H122  1  0.13058400  0.77395384  0.39908339  1
  H  H123  1  0.62566208  0.11386191  0.38433006  1
  H  H124  1  0.63196983  0.44279223  0.39999443  1
  H  H125  1  0.62678298  0.77830193  0.39262232  1
  H  H126  1  0.37903627  0.21846939  0.87860078  1
  H  H127  1  0.37721753  0.55547008  0.89205555  1
  H  H128  1  0.37465781  0.88688775  0.88988387  1
  H  H129  1  0.87593017  0.22101510  0.88948069  1
  H  H130  1  0.87989061  0.55174373  0.88252648  1
  H  H131  1  0.87980898  0.88670477  0.88577504  1
  H  H132  1  0.37304607  0.11049180  0.11177906  1
  H  H133  1  0.37466861  0.44593745  0.11088387  1
  H  H134  1  0.37395331  0.77933072  0.11184164  1
  H  H135  1  0.87212435  0.11140974  0.10756164  1
  H  H136  1  0.87244438  0.44693238  0.10416058  1
  H  H137  1  0.87371373  0.77892904  0.11076855  1
  H  H138  1  0.12540207  0.22037244  0.61358346  1
  H  H139  1  0.12747543  0.55244184  0.60623568  1
  H  H140  1  0.12000965  0.88452750  0.61460132  1
  H  H141  1  0.62575360  0.22094211  0.61159929  1
  H  H142  1  0.63173028  0.55528589  0.60599084  1
  H  H143  1  0.62097431  0.88530166  0.61433903  1
  H  H144  1  0.05251979  0.25324429  -0.00100916  1
  H  H145  1  0.56216881  0.58886617  0.50669276  1
  H  H146  1  0.92126608  0.74769852  0.99959459  1
  H  H147  1  0.44184786  0.91714105  0.50247105  1
  H  H148  1  0.39851305  0.58481866  0.00748691  1
  H  H149  1  0.59971411  0.08669849  0.98445062  1
  H  H150  1  0.06037199  0.08081597  1.00473328  1
  H  H151  1  0.45285155  0.07021727  1.00397252  1
  H  H152  1  0.66913772  0.08998095  0.49807970  1
  H  H153  1  0.58017203  0.74986222  0.99878315  1
  H  H154  1  0.32228422  0.90803191  1.00237368  1
  H  H155  1  0.94656435  0.08377215  0.49756586  1
  H  H156  1  0.55525675  0.58596307  -0.00241985  1
  H  H157  1  0.54860424  0.07661358  0.49708153  1
  H  H158  1  0.43655050  0.92066568  -0.00396390  1
  H  H159  1  0.04189672  0.91643122  -0.00990034  1
  H  H160  1  0.89917609  0.07859627  0.99005711  1
  H  H161  1  0.68799110  0.58411958  0.49479260  1
  H  H162  1  0.07734278  0.41716204  0.99655253  1
  H  H163  1  0.19604778  0.74651269  0.50209359  1
  H  H164  1  0.15513032  0.91990661  0.51018264  1
  H  H165  1  0.92812242  0.25336262  0.50227235  1
  H  H166  1  0.32625747  0.08367567  0.49743378  1
  H  H167  1  0.59715417  0.92027449  0.00977870  1
  H  H168  1  0.94918756  0.91552314  0.50456576  1
  H  H169  1  0.17975768  0.07329830  0.01109826  1
  H  H170  1  0.82802839  0.09115935  0.50011885  1
  H  H171  1  0.19836627  0.25070341  1.00441332  1
  H  H172  1  0.17024364  0.90642271  0.99372056  1
  H  H173  1  0.80974120  0.91286158  0.49873924  1
  H  H174  1  0.82630362  0.24842422  0.99835924  1
  H  H175  1  0.08665127  0.74731870  0.99705682  1
  H  H176  1  0.30292618  0.90514522  0.49714677  1
  H  H177  1  0.68884778  0.58226696  1.00563726  1
  H  H178  1  0.32511224  0.25159779  0.50560974  1
  H  H179  1  0.08294453  0.58446028  0.00568063  1
  H  H180  1  0.69638335  0.41747408  0.50400389  1
  H  H181  1  0.16470932  0.25026519  0.50322247  1
  H  H182  1  0.67018476  0.41726929  0.00583196  1
  H  H183  1  0.32075318  0.10591141  0.00425197  1
  H  H184  1  0.43125215  0.41682069  0.99974694  1
  H  H185  1  0.84638277  0.91555330  0.99336109  1
  H  H186  1  0.54746447  0.41714539  0.49595245  1
  H  H187  1  0.42000842  0.74917320  0.99398726  1
  H  H188  1  0.56820206  0.24926789  0.49671926  1
  H  H189  1  0.34093864  0.42009798  0.49944051  1
  H  H190  1  0.41694010  0.25262404  0.00566710  1
  H  H191  1  0.05531425  0.74418914  0.49575461  1
  Pb  Pb192  1  0.25146993  0.04829345  0.75880254  1
  Pb  Pb193  1  0.24936470  0.37843526  0.75234128  1
  Pb  Pb194  1  0.24695198  0.71354522  0.74402591  1
  Pb  Pb195  1  0.74777618  0.04636429  0.74151544  1
  Pb  Pb196  1  0.74926621  0.38492286  0.74674406  1
  Pb  Pb197  1  0.74934982  0.71105859  0.75064580  1
  Pb  Pb198  1  0.24888419  0.28702954  0.25054454  1
  Pb  Pb199  1  0.25019988  0.62114531  0.24942475  1
  Pb  Pb200  1  0.25019876  0.95003252  0.24795463  1
  Pb  Pb201  1  0.74958816  0.28868218  0.25052931  1
  Pb  Pb202  1  0.74859017  0.61994596  0.24843749  1
  Pb  Pb203  1  0.75131965  0.95189345  0.25842536  1
  Pb  Pb204  1  -0.00252004  0.21559186  0.75393137  1
  Pb  Pb205  1  0.00371542  0.54586375  0.75334806  1
  Pb  Pb206  1  -0.00342821  0.88064735  0.74711105  1
  Pb  Pb207  1  0.50386346  0.21537045  0.74797798  1
  Pb  Pb208  1  0.49607942  0.54760508  0.75327573  1
  Pb  Pb209  1  0.49939614  0.87846894  0.75031106  1
  Pb  Pb210  1  -0.00155437  0.11944461  0.25115399  1
  Pb  Pb211  1  0.00025677  0.45578173  0.24675587  1
  Pb  Pb212  1  -0.00053421  0.78303381  0.25316577  1
  Pb  Pb213  1  0.50045209  0.11967874  0.24964016  1
  Pb  Pb214  1  0.50196630  0.45333203  0.25420066  1
  Pb  Pb215  1  0.50274484  0.78546610  0.24572095  1
  C  C216  1  -0.00072463  0.04700118  0.63298093  1
  C  C217  1  -0.00191241  0.38122756  0.62878268  1
  C  C218  1  -0.00257618  0.71189208  0.63073377  1
  C  C219  1  0.50298194  0.04615357  0.63450083  1
  C  C220  1  0.49806484  0.38000914  0.63159753  1
  C  C221  1  0.49780187  0.71359837  0.63192676  1
  C  C222  1  0.00062731  0.28746113  0.13396702  1
  C  C223  1  -0.00151712  0.61901020  0.13073605  1
  C  C224  1  -0.00373863  0.95242126  0.13210810  1
  C  C225  1  0.49736965  0.28603747  0.13225468  1
  C  C226  1  0.49892312  0.61997124  0.13247093  1
  C  C227  1  0.49869827  0.95301010  0.13550983  1
  C  C228  1  0.00018685  0.04689241  0.86505639  1
  C  C229  1  -0.00033478  0.38058592  0.86539457  1
  C  C230  1  -0.00032166  0.71269486  0.86638315  1
  C  C231  1  0.50128671  0.04690619  0.86826694  1
  C  C232  1  0.49952129  0.38016707  0.86536696  1
  C  C233  1  0.49876925  0.71374958  0.86682177  1
  C  C234  1  -0.00085306  0.28791828  0.36633672  1
  C  C235  1  -0.00212168  0.61907652  0.37150676  1
  C  C236  1  0.00355060  0.95300911  0.36624000  1
  C  C237  1  0.50189369  0.28628051  0.36671255  1
  C  C238  1  0.49689967  0.61983768  0.36762809  1
  C  C239  1  0.50337966  0.95264444  0.36541159  1
  C  C240  1  0.25119602  0.21363941  0.63373046  1
  C  C241  1  0.25202678  0.54677776  0.63073333  1
  C  C242  1  0.24634869  0.88021271  0.63089759  1
  C  C243  1  0.75055936  0.21399156  0.63515661  1
  C  C244  1  0.75380709  0.54670205  0.63200059  1
  C  C245  1  0.74740446  0.87892014  0.63201562  1
  C  C246  1  0.24878104  0.11927224  0.13357828  1
  C  C247  1  0.25033663  0.45397941  0.13538967  1
  C  C248  1  0.24894741  0.78616739  0.13359667  1
  C  C249  1  0.74879916  0.12032661  0.13428382  1
  C  C250  1  0.74922385  0.45267955  0.13202837  1
  C  C251  1  0.74948424  0.78740005  0.13421813  1
  C  C252  1  0.25146686  0.21398575  0.86555444  1
  C  C253  1  0.25319701  0.54712175  0.86746812  1
  C  C254  1  0.25024610  0.87953740  0.86527708  1
  C  C255  1  0.75153752  0.21339660  0.86568836  1
  C  C256  1  0.75265488  0.54677260  0.86729869  1
  C  C257  1  0.75428144  0.87992106  0.86791343  1
  C  C258  1  0.24978620  0.12006021  0.36556054  1
  C  C259  1  0.24959453  0.45367121  0.36932293  1
  C  C260  1  0.25140077  0.78587854  0.36834651  1
  C  C261  1  0.75089059  0.12045978  0.36449767  1
  C  C262  1  0.75340139  0.45358663  0.36967222  1
  C  C263  1  0.75094841  0.78573528  0.36790604  1
  C  C264  1  0.02730652  0.07096261  0.96248037  1
  C  C265  1  0.52732470  0.59672214  0.46484792  1
  C  C266  1  0.80421212  0.57036274  0.54068167  1
  C  C267  1  0.21392263  0.75872119  0.03987501  1
  C  C268  1  0.94492118  0.73812117  0.54010648  1
  C  C269  1  0.05528538  0.07245911  0.54320054  1
  C  C270  1  0.71566313  0.75973369  0.46142236  1
  C  C271  1  0.95734683  0.40444531  0.53587729  1
  C  C272  1  0.78762503  0.23862727  0.95909393  1
  C  C273  1  0.28780318  0.90392965  0.95977606  1
  C  C274  1  0.43927946  0.40794322  0.54393696  1
  C  C275  1  0.46810936  0.40639114  0.95954546  1
  C  C276  1  0.46204768  0.73890250  0.53811528  1
  C  C277  1  0.71151647  0.75924851  0.04152187  1
  C  C278  1  0.01192773  0.92710959  0.03355715  1
  C  C279  1  0.70827350  0.09802188  0.45863710  1
  C  C280  1  0.80447729  0.57008141  0.95801372  1
  C  C281  1  0.44453533  0.59379296  0.04350067  1
  C  C282  1  0.55176068  0.92948785  0.04479023  1
  C  C283  1  0.95542965  0.59569850  0.46383694  1
  C  C284  1  0.03601611  0.59506408  0.46463481  1
  C  C285  1  0.30583509  0.75753436  0.45768722  1
  C  C286  1  0.29628577  0.42895093  0.46258496  1
  C  C287  1  0.20719728  0.23943465  0.54116916  1
  C  C288  1  0.03781344  0.40647285  0.95798622  1
  C  C289  1  0.94568629  0.06971313  0.95564797  1
  C  C290  1  0.80667450  0.42796275  0.46029468  1
  C  C291  1  0.98110255  0.92706715  0.46212420  1
  C  C292  1  0.96123581  0.73792158  0.96106059  1
  C  C293  1  0.72286079  0.57263452  0.53573295  1
  C  C294  1  0.28909384  0.57465181  0.96094124  1
  C  C295  1  0.28706024  0.09401501  0.45856232  1
  C  C296  1  0.72324781  0.57176943  0.96415370  1
  C  C297  1  0.96587602  0.26269767  0.46238841  1
  C  C298  1  0.47003942  0.92895099  0.03844705  1
  C  C299  1  0.21481248  0.42807180  0.46406947  1
  C  C300  1  0.44612372  0.59696088  0.45904357  1
  C  C301  1  0.03797564  0.40391592  0.53559140  1
  C  C302  1  0.04355937  0.73793194  0.95971372  1
  C  C303  1  0.47536564  0.92753606  0.46055104  1
  C  C304  1  0.69776883  0.90565561  0.54055523  1
  C  C305  1  0.79035944  0.09842653  0.45959503  1
  C  C306  1  0.96258256  0.59178498  0.03548101  1
  C  C307  1  0.53959825  0.73960336  0.96008579  1
  C  C308  1  0.28948861  0.57512175  0.53839914  1
  C  C309  1  0.22984943  0.23984553  0.96156099  1
  C  C310  1  0.04727449  0.26399113  0.45819597  1
  C  C311  1  0.93168623  0.93000361  0.04565917  1
  N  N312  1  0.78662223  0.23806028  0.54013922  1
  N  N313  1  0.28964259  0.09164942  0.04246461  1
  N  N314  1  0.20973596  0.10248617  0.03928449  1
  N  N315  1  0.78421077  0.09365227  0.03978701  1
  N  N316  1  0.54760753  0.40583753  0.95786980  1
  N  N317  1  0.47812408  0.07902543  0.96147334  1
  N  N318  1  0.52193345  0.07337884  0.53990398  1
  N  N319  1  0.55650170  0.06721286  0.95666449  1
  N  N320  1  0.94574263  0.26201938  0.04482438  1
  N  N321  1  0.02358576  0.25976195  0.04033247  1
  N  N322  1  0.53358991  0.26241686  0.45989852  1
  N  N323  1  0.45975601  0.73851438  0.95942878  1
  N  N324  1  0.29198257  0.76022195  0.03965972  1
  N  N325  1  0.02359759  0.73860833  0.53608347  1
  N  N326  1  0.30882938  0.23779048  0.95537636  1
  N  N327  1  0.51789393  0.40945025  0.53696185  1
  N  N328  1  0.97673164  0.07333352  0.53754283  1
  N  N329  1  0.21231840  0.57418924  0.53651974  1
  N  N330  1  0.21211477  0.42688572  0.04175368  1
  N  N331  1  0.55452260  0.92838710  0.45717589  1
  N  N332  1  0.05998969  0.92978223  0.45645746  1
  N  N333  1  0.20832743  0.90660302  0.95655971  1
  N  N334  1  0.27512008  0.91264446  0.53890235  1
  N  N335  1  0.70980526  0.23739218  0.54104943  1
  N  N336  1  0.52399410  0.59126716  0.03818461  1
  N  N337  1  0.77659573  0.90584082  0.53803964  1
  N  N338  1  0.72206708  0.90724022  0.96291278  1
  N  N339  1  0.95848436  0.40641024  0.95956757  1
  N  N340  1  0.70768364  0.09481166  0.04081741  1
  N  N341  1  0.45518503  0.26150029  0.45896700  1
  N  N342  1  0.79292528  0.75975631  0.46207877  1
  N  N343  1  0.72790925  0.42629617  0.46417428  1
  N  N344  1  0.04149829  0.59329755  0.03945519  1
  N  N345  1  0.22718035  0.75678550  0.46245852  1
  N  N346  1  0.21101082  0.57471426  0.96121896  1
  N  N347  1  0.70832069  0.23917246  0.95946226  1
  N  N348  1  0.78939566  0.75907720  0.04017866  1
  N  N349  1  0.53441239  0.25999725  0.03780219  1
  N  N350  1  0.19664523  0.90197828  0.54104014  1
  N  N351  1  0.70882026  0.43003319  0.04050795  1
  N  N352  1  0.53925431  0.73897965  0.53745165  1
  N  N353  1  0.20774859  0.09488058  0.45981265  1
  N  N354  1  0.78690103  0.42956395  0.03700508  1
  N  N355  1  0.44418327  0.07041101  0.54656404  1
  N  N356  1  0.28903918  0.42674651  0.04192348  1
  N  N357  1  0.80026246  0.90586801  0.95767133  1
  N  N358  1  0.28695952  0.23877643  0.54038527  1
  N  N359  1  0.45634910  0.26100096  0.04151105  1
  N  N360  1  0.06946637  0.05628802  0.60215945  1
  N  N361  1  0.06305829  0.38994997  0.59232450  1
  N  N362  1  0.05720085  0.72048691  0.59133799  1
  N  N363  1  0.55930247  0.05560966  0.59234004  1
  N  N364  1  0.55517035  0.38975423  0.59028263  1
  N  N365  1  0.56188230  0.72300153  0.59721656  1
  N  N366  1  0.43214098  0.27711916  0.09847919  1
  N  N367  1  0.42909094  0.61045573  0.10241276  1
  N  N368  1  0.43808180  0.94344567  0.09549861  1
  N  N369  1  0.93225712  0.27763523  0.10373638  1
  N  N370  1  0.93561964  0.60799631  0.09193967  1
  N  N371  1  0.92323301  0.94512011  0.10554978  1
  N  N372  1  0.44375302  0.05552796  0.90978929  1
  N  N373  1  0.43729268  0.39114265  0.90316639  1
  N  N374  1  0.43475202  0.72324154  0.90173263  1
  N  N375  1  0.93056782  0.05500598  0.89497821  1
  N  N376  1  0.93646934  0.39046511  0.90150322  1
  N  N377  1  0.93554196  0.72238216  0.90276978  1
  N  N378  1  0.06700051  0.27918499  0.40009336  1
  N  N379  1  0.06232190  0.60909367  0.40833748  1
  N  N380  1  0.07225507  0.94545704  0.39611091  1
  N  N381  1  0.56350491  0.27550507  0.40368421  1
  N  N382  1  0.55815540  0.61091523  0.40662136  1
  N  N383  1  0.57010422  0.94370862  0.39770640  1
  N  N384  1  0.31401194  0.22382469  0.59778691  1
  N  N385  1  0.31682600  0.55874486  0.59519688  1
  N  N386  1  0.30615580  0.88883493  0.59145806  1
  N  N387  1  0.81293730  0.22369711  0.59832957  1
  N  N388  1  0.82231737  0.55487827  0.59887805  1
  N  N389  1  0.80838974  0.88853407  0.59405655  1
  N  N390  1  0.18515745  0.10716317  0.09900322  1
  N  N391  1  0.18709921  0.44347675  0.09962590  1
  N  N392  1  0.18555703  0.77473460  0.09646721  1
  N  N393  1  0.68444531  0.11119616  0.09941891  1
  N  N394  1  0.68424359  0.44262615  0.09836506  1
  N  N395  1  0.68491620  0.77630574  0.09827347  1
  N  N396  1  0.19335132  0.22510516  0.90703764  1
  N  N397  1  0.18899861  0.55710755  0.90173128  1
  N  N398  1  0.18523551  0.88876677  0.89902144  1
  N  N399  1  0.68761447  0.22350888  0.90084057  1
  N  N400  1  0.69188588  0.55704433  0.90631515  1
  N  N401  1  0.69409760  0.89105944  0.90693078  1
  N  N402  1  0.31440212  0.10915215  0.40094839  1
  N  N403  1  0.31659669  0.44492565  0.40202568  1
  N  N404  1  0.32105163  0.77531896  0.39940946  1
  N  N405  1  0.81546226  0.11212611  0.40071530  1
  N  N406  1  0.82263135  0.44448155  0.40174936  1
  N  N407  1  0.81531763  0.77619080  0.40238911  1
  N  N408  1  0.43641415  0.27731531  0.40089668  1
  N  N409  1  0.42834070  0.61058908  0.40022240  1
  N  N410  1  0.44236725  0.94245364  0.40470113  1
  N  N411  1  0.93699448  0.27760752  0.40387022  1
  N  N412  1  0.93179558  0.61019660  0.40686278  1
  N  N413  1  0.94512558  0.94134057  0.40731184  1
  N  N414  1  0.06011128  0.05668241  0.90552061  1
  N  N415  1  0.06469785  0.39078043  0.90054345  1
  N  N416  1  0.06577945  0.72240532  0.90036549  1
  N  N417  1  0.57055248  0.05715135  0.89642862  1
  N  N418  1  0.56526117  0.38940458  0.89851725  1
  N  N419  1  0.56388112  0.72393984  0.90253052  1
  N  N420  1  0.05875928  0.27744121  0.09349283  1
  N  N421  1  0.06438401  0.60978724  0.09814420  1
  N  N422  1  0.05148835  0.94141951  0.08886940  1
  N  N423  1  0.55945315  0.27518413  0.09482051  1
  N  N424  1  0.55752320  0.60969971  0.09240169  1
  N  N425  1  0.56784749  0.94422717  0.10509522  1
  N  N426  1  0.43326284  0.05599578  0.60603968  1
  N  N427  1  0.42707805  0.39054334  0.60280269  1
  N  N428  1  0.43365851  0.72367290  0.59503408  1
  N  N429  1  0.94080653  0.05716859  0.59274885  1
  N  N430  1  0.93263611  0.39077005  0.59284030  1
  N  N431  1  0.92848915  0.72231732  0.59876041  1
  N  N432  1  0.18633589  0.11106041  0.40151175  1
  N  N433  1  0.18679319  0.44297352  0.40803416  1
  N  N434  1  0.19239668  0.77541860  0.40794150  1
  N  N435  1  0.68510421  0.11151461  0.39919301  1
  N  N436  1  0.69387371  0.44348175  0.40894003  1
  N  N437  1  0.68702915  0.77532656  0.40489538  1
  N  N438  1  0.32030647  0.22203134  0.89501521  1
  N  N439  1  0.31697225  0.55810937  0.90428732  1
  N  N440  1  0.31434970  0.88930661  0.90260191  1
  N  N441  1  0.81581760  0.22304679  0.90183885  1
  N  N442  1  0.82163017  0.55519074  0.89953670  1
  N  N443  1  0.82052489  0.88922066  0.90021359  1
  N  N444  1  0.31314229  0.11371632  0.09801913  1
  N  N445  1  0.31379817  0.44346221  0.09983574  1
  N  N446  1  0.31355992  0.77747972  0.09923740  1
  N  N447  1  0.81105852  0.10940490  0.09758955  1
  N  N448  1  0.81153545  0.44452578  0.09404974  1
  N  N449  1  0.81302923  0.77702718  0.09918761  1
  N  N450  1  0.18494876  0.22341803  0.59908200  1
  N  N451  1  0.18856575  0.55607247  0.59526262  1
  N  N452  1  0.17887483  0.89135375  0.60050498  1
  N  N453  1  0.68643597  0.22279709  0.59993770  1
  N  N454  1  0.69224681  0.55754279  0.59377428  1
  N  N455  1  0.67937251  0.88947351  0.59875449  1
  Cl  Cl456  1  0.25166686  0.04987040  0.62622244  1
  Cl  Cl457  1  0.24677645  0.38409074  0.61861266  1
  Cl  Cl458  1  0.24204339  0.72555564  0.60485657  1
  Cl  Cl459  1  0.74927558  0.05400235  0.60485563  1
  Cl  Cl460  1  0.73870133  0.39299274  0.60721303  1
  Cl  Cl461  1  0.74588777  0.71883551  0.61905209  1
  Cl  Cl462  1  0.24404358  0.27468036  0.11221458  1
  Cl  Cl463  1  0.24719318  0.61755505  0.11730496  1
  Cl  Cl464  1  0.24491071  0.94397733  0.10792148  1
  Cl  Cl465  1  0.74731237  0.28087065  0.11651935  1
  Cl  Cl466  1  0.74358597  0.61250603  0.11333347  1
  Cl  Cl467  1  0.74668683  0.94801357  0.12778532  1
  Cl  Cl468  1  0.25618351  0.05964954  0.89980852  1
  Cl  Cl469  1  0.25026663  0.38420339  0.88035516  1
  Cl  Cl470  1  0.25167447  0.71815296  0.87575640  1
  Cl  Cl471  1  0.74872428  0.04846924  0.87315386  1
  Cl  Cl472  1  0.74985286  0.38823446  0.87995761  1
  Cl  Cl473  1  0.74820234  0.71786603  0.88189315  1
  Cl  Cl474  1  0.25280464  0.27917879  0.38586801  1
  Cl  Cl475  1  0.24593560  0.61909181  0.37954710  1
  Cl  Cl476  1  0.25813005  0.93806538  0.39090547  1
  Cl  Cl477  1  0.74740016  0.28493750  0.38245923  1
  Cl  Cl478  1  0.74414624  0.61398382  0.38081701  1
  Cl  Cl479  1  0.76085265  0.94149765  0.39474474  1
  Cl  Cl480  1  -0.00235820  0.21723444  0.62056742  1
  Cl  Cl481  1  0.00512721  0.54949672  0.62269888  1
  Cl  Cl482  1  -0.00645223  0.88572419  0.61062866  1
  Cl  Cl483  1  0.50121139  0.22219137  0.61076189  1
  Cl  Cl484  1  0.50395256  0.55131932  0.62032392  1
  Cl  Cl485  1  0.48947859  0.88821639  0.61562430  1
  Cl  Cl486  1  0.00106021  0.11364187  0.11562636  1
  Cl  Cl487  1  0.00097681  0.44865753  0.11185758  1
  Cl  Cl488  1  0.00030306  0.77794327  0.11986956  1
  Cl  Cl489  1  0.49618642  0.10590884  0.10670308  1
  Cl  Cl490  1  0.49940538  0.44783183  0.11912792  1
  Cl  Cl491  1  0.49901999  0.77634494  0.10941319  1
  Cl  Cl492  1  0.00819421  0.22467362  0.89176695  1
  Cl  Cl493  1  0.00549626  0.55570500  0.88868095  1
  Cl  Cl494  1  0.00304137  0.88844340  0.88175446  1
  Cl  Cl495  1  0.50274702  0.21760629  0.88063914  1
  Cl  Cl496  1  0.50400632  0.55907778  0.89274897  1
  Cl  Cl497  1  0.50350375  0.88780534  0.88588437  1
  Cl  Cl498  1  -0.00128717  0.11092963  0.38825240  1
  Cl  Cl499  1  0.00398014  0.45041656  0.37760021  1
  Cl  Cl500  1  0.00756669  0.77356260  0.39276212  1
  Cl  Cl501  1  0.50161903  0.11132560  0.38563925  1
  Cl  Cl502  1  0.51053141  0.44137133  0.39315984  1
  Cl  Cl503  1  0.50291105  0.78168347  0.37560353  1
  Cl  Cl504  1  0.36154760  0.14321044  0.75142705  1
  Cl  Cl505  1  0.36446007  0.47677459  0.74929608  1
  Cl  Cl506  1  0.36077893  0.81217324  0.75075638  1
  Cl  Cl507  1  0.86368024  0.14328782  0.75089745  1
  Cl  Cl508  1  0.86181615  0.47642137  0.75096664  1
  Cl  Cl509  1  0.86273762  0.81073956  0.75173113  1
  Cl  Cl510  1  0.13936893  0.18882290  0.25000603  1
  Cl  Cl511  1  0.13807587  0.52242104  0.24890246  1
  Cl  Cl512  1  0.13971375  0.85782675  0.25261427  1
  Cl  Cl513  1  0.63557491  0.18889161  0.25035724  1
  Cl  Cl514  1  0.63695142  0.52189401  0.24771768  1
  Cl  Cl515  1  0.63601880  0.85751780  0.25037147  1
  Cl  Cl516  1  0.14022775  0.14391063  0.75040716  1
  Cl  Cl517  1  0.13865681  0.47779721  0.75179875  1
  Cl  Cl518  1  0.13962842  0.81068764  0.74774974  1
  Cl  Cl519  1  0.63695783  0.14342973  0.74997932  1
  Cl  Cl520  1  0.63865113  0.47572891  0.75166634  1
  Cl  Cl521  1  0.63811030  0.81207743  0.74992187  1
  Cl  Cl522  1  0.36364564  0.18800284  0.24706877  1
  Cl  Cl523  1  0.36299005  0.52407775  0.25213099  1
  Cl  Cl524  1  0.36107569  0.85687735  0.24868123  1
  Cl  Cl525  1  0.86350184  0.18877929  0.25004631  1
  Cl  Cl526  1  0.86114524  0.52227348  0.24921843  1
  Cl  Cl527  1  0.86241055  0.85679085  0.25005224  1
  Cl  Cl528  1  0.11347636  0.31081201  0.74823194  1
  Cl  Cl529  1  0.11260226  0.64512708  0.75185618  1
  Cl  Cl530  1  0.11359476  0.97716127  0.74919269  1
  Cl  Cl531  1  0.60985793  0.30960663  0.75078966  1
  Cl  Cl532  1  0.61131286  0.64543481  0.75097770  1
  Cl  Cl533  1  0.61081627  0.97934917  0.75136171  1
  Cl  Cl534  1  0.38827042  0.02213150  0.24641482  1
  Cl  Cl535  1  0.38820381  0.35429610  0.25003533  1
  Cl  Cl536  1  0.38586632  0.68975787  0.24851050  1
  Cl  Cl537  1  0.88926142  0.02269917  0.24839049  1
  Cl  Cl538  1  0.88740995  0.35543253  0.24597369  1
  Cl  Cl539  1  0.88929716  0.69024676  0.25062731  1
  Cl  Cl540  1  0.38543804  0.30996594  0.74774465  1
  Cl  Cl541  1  0.38876643  0.64303214  0.75105015  1
  Cl  Cl542  1  0.38654600  0.97871279  0.75075445  1
  Cl  Cl543  1  0.89048729  0.30932184  0.74911282  1
  Cl  Cl544  1  0.88702384  0.64356689  0.74911635  1
  Cl  Cl545  1  0.89003081  0.97680655  0.75064212  1
  Cl  Cl546  1  0.11501828  0.02173294  0.25177185  1
  Cl  Cl547  1  0.11235240  0.35494710  0.25109300  1
  Cl  Cl548  1  0.11133519  0.68996782  0.24974437  1
  Cl  Cl549  1  0.61282255  0.02246930  0.25184680  1
  Cl  Cl550  1  0.60961130  0.35602752  0.24851494  1
  Cl  Cl551  1  0.60912107  0.68946301  0.24655121  1
