# generated using pymatgen
data_H8PbC4(N3Cl2)2
_symmetry_space_group_name_H-M   'P 1'
_cell_length_a   16.61996003
_cell_length_b   22.50259227
_cell_length_c   21.58895455
_cell_angle_alpha   90.00105252
_cell_angle_beta   89.99034067
_cell_angle_gamma   89.99182334
_symmetry_Int_Tables_number   1
_chemical_formula_structural   H8PbC4(N3Cl2)2
_chemical_formula_sum   'H192 Pb24 C96 N144 Cl96'
_cell_volume   8074.10006400
_cell_formula_units_Z   24
loop_
 _symmetry_equiv_pos_site_id
 _symmetry_equiv_pos_as_xyz
  1  'x, y, z'
loop_
 _atom_site_type_symbol
 _atom_site_label
 _atom_site_symmetry_multiplicity
 _atom_site_fract_x
 _atom_site_fract_y
 _atom_site_fract_z
 _atom_site_occupancy
  H  H0  1  0.00253690  0.03221109  0.67986382  1
  H  H1  1  0.00089691  0.36601169  0.67875486  1
  H  H2  1  -0.00174020  0.69589370  0.68135903  1
  H  H3  1  0.49488303  0.03239897  0.67991580  1
  H  H4  1  0.50215454  0.36438030  0.67667743  1
  H  H5  1  0.50511062  0.69857904  0.68120174  1
  H  H6  1  -0.00273352  0.30117160  0.18140674  1
  H  H7  1  0.00021399  0.63258451  0.18029064  1
  H  H8  1  -0.00194680  0.96842034  0.17764848  1
  H  H9  1  0.49442306  0.30195835  0.17847569  1
  H  H10  1  0.49715341  0.63513233  0.18153447  1
  H  H11  1  0.49634238  0.96754514  0.18074399  1
  H  H12  1  -0.00210854  0.03103360  0.81861441  1
  H  H13  1  -0.00851681  0.36642436  0.82141333  1
  H  H14  1  0.00583253  0.69762156  0.82070806  1
  H  H15  1  0.50342489  0.03161180  0.81838112  1
  H  H16  1  0.49962770  0.36601718  0.81798542  1
  H  H17  1  0.50329703  0.69837121  0.82162186  1
  H  H18  1  -0.00371178  0.30272398  0.32056929  1
  H  H19  1  -0.00347396  0.63488266  0.32110794  1
  H  H20  1  -0.00718542  0.96895600  0.32234017  1
  H  H21  1  0.50161852  0.30304757  0.31734521  1
  H  H22  1  0.50384720  0.63348904  0.31966907  1
  H  H23  1  0.50225242  0.96933440  0.32215921  1
  H  H24  1  0.24572819  0.19901637  0.68001877  1
  H  H25  1  0.25034981  0.53066935  0.67986847  1
  H  H26  1  0.25179970  0.86617548  0.67957521  1
  H  H27  1  0.75237906  0.19851226  0.68242944  1
  H  H28  1  0.74672716  0.53157261  0.68180002  1
  H  H29  1  0.75575607  0.86564772  0.68153887  1
  H  H30  1  0.25555046  0.13461746  0.18216378  1
  H  H31  1  0.24854595  0.46849394  0.17963166  1
  H  H32  1  0.24255831  0.79970651  0.17930582  1
  H  H33  1  0.74930089  0.13467389  0.18215128  1
  H  H34  1  0.74992372  0.46812247  0.18171887  1
  H  H35  1  0.74880794  0.80085304  0.17875532  1
  H  H36  1  0.25311842  0.19814091  0.82144495  1
  H  H37  1  0.24966710  0.53351997  0.81936664  1
  H  H38  1  0.25661912  0.86708487  0.81983002  1
  H  H39  1  0.75303438  0.19884122  0.81995235  1
  H  H40  1  0.75487530  0.53117890  0.82088589  1
  H  H41  1  0.74845088  0.86474052  0.81921736  1
  H  H42  1  0.25801377  0.13515769  0.32190083  1
  H  H43  1  0.24255321  0.46911165  0.32302620  1
  H  H44  1  0.24797634  0.80080148  0.31987451  1
  H  H45  1  0.75328941  0.13428005  0.31751459  1
  H  H46  1  0.74359630  0.46811074  0.32129684  1
  H  H47  1  0.74645532  0.80042686  0.31688218  1
  H  H48  1  0.12898278  0.05515030  0.60986453  1
  H  H49  1  0.12045351  0.38763195  0.60289940  1
  H  H50  1  0.12159035  0.72139480  0.60864980  1
  H  H51  1  0.62384447  0.05273786  0.61609002  1
  H  H52  1  0.62001771  0.39016380  0.60168861  1
  H  H53  1  0.61854282  0.72234783  0.60257372  1
  H  H54  1  0.38720547  0.27444653  0.09514962  1
  H  H55  1  0.38177346  0.61191580  0.10465246  1
  H  H56  1  0.38271803  0.94448715  0.10220917  1
  H  H57  1  0.88504764  0.27745281  0.10138016  1
  H  H58  1  0.88352231  0.61167356  0.10463750  1
  H  H59  1  0.88328726  0.94114101  0.10115773  1
  H  H60  1  0.37745805  0.05332877  0.88848947  1
  H  H61  1  0.37568157  0.38840940  0.88842189  1
  H  H62  1  0.36897664  0.71976450  0.88347262  1
  H  H63  1  0.87447434  0.05447753  0.89071060  1
  H  H64  1  0.87981140  0.39125770  0.90193539  1
  H  H65  1  0.86977902  0.71812762  0.87929925  1
  H  H66  1  0.12883694  0.28173145  0.38411457  1
  H  H67  1  0.12329131  0.61250102  0.38993821  1
  H  H68  1  0.13129219  0.95240290  0.37902362  1
  H  H69  1  0.62670119  0.27987158  0.38924196  1
  H  H70  1  0.61979971  0.60840586  0.39837216  1
  H  H71  1  0.62837387  0.94568209  0.39171501  1
  H  H72  1  0.37221125  0.21827058  0.61341453  1
  H  H73  1  0.37532028  0.55384321  0.60728311  1
  H  H74  1  0.36630174  0.89039626  0.60290224  1
  H  H75  1  0.86943868  0.22133863  0.60656460  1
  H  H76  1  0.87901891  0.55260808  0.61639421  1
  H  H77  1  0.86548504  0.89094096  0.60001016  1
  H  H78  1  0.12373563  0.11386618  0.11875270  1
  H  H79  1  0.12218321  0.44736538  0.10961911  1
  H  H80  1  0.13745440  0.77595752  0.09528118  1
  H  H81  1  0.62646499  0.11190627  0.10828970  1
  H  H82  1  0.62392166  0.44558666  0.11198771  1
  H  H83  1  0.62899250  0.77762900  0.10544929  1
  H  H84  1  0.11835815  0.21681502  0.88328309  1
  H  H85  1  0.11719770  0.55207747  0.88249490  1
  H  H86  1  0.11575488  0.88288519  0.87270590  1
  H  H87  1  0.61833735  0.22022118  0.88099369  1
  H  H88  1  0.61861101  0.55161488  0.87920935  1
  H  H89  1  0.61941088  0.88673506  0.88734582  1
  H  H90  1  0.37071835  0.10920347  0.40092180  1
  H  H91  1  0.37817813  0.44866606  0.38240536  1
  H  H92  1  0.37601535  0.78083689  0.38769183  1
  H  H93  1  0.87115678  0.11208381  0.39149312  1
  H  H94  1  0.87845789  0.44856620  0.38316297  1
  H  H95  1  0.87916453  0.78070195  0.37810236  1
  H  H96  1  0.37815058  0.27888132  0.39023357  1
  H  H97  1  0.37166117  0.61386588  0.38435838  1
  H  H98  1  0.37923580  0.94711011  0.39353315  1
  H  H99  1  0.88125157  0.27686307  0.39967206  1
  H  H100  1  0.87415227  0.61036882  0.39308697  1
  H  H101  1  0.88608889  0.93965736  0.40496506  1
  H  H102  1  0.12429012  0.05304528  0.88697937  1
  H  H103  1  0.12707283  0.38689560  0.88127766  1
  H  H104  1  0.11739734  0.72331577  0.90157296  1
  H  H105  1  0.62610440  0.05556271  0.89174321  1
  H  H106  1  0.62465461  0.38801108  0.88988339  1
  H  H107  1  0.61560550  0.72333347  0.90300810  1
  H  H108  1  0.13257340  0.27971774  0.12034833  1
  H  H109  1  0.13258849  0.61442500  0.11690420  1
  H  H110  1  0.13100674  0.94772358  0.11526395  1
  H  H111  1  0.63333783  0.28194049  0.12400106  1
  H  H112  1  0.63018074  0.61583998  0.12079155  1
  H  H113  1  0.63121785  0.94616119  0.11947022  1
  H  H114  1  0.37512592  0.05403010  0.60529347  1
  H  H115  1  0.37123233  0.38602263  0.61212131  1
  H  H116  1  0.37011219  0.71996884  0.62013951  1
  H  H117  1  0.88032561  0.05477498  0.60667514  1
  H  H118  1  0.87178258  0.38807801  0.61070056  1
  H  H119  1  0.87305373  0.72019036  0.60988406  1
  H  H120  1  0.12314150  0.11534259  0.38320727  1
  H  H121  1  0.13085459  0.44367485  0.40347729  1
  H  H122  1  0.12809883  0.77708927  0.39579378  1
  H  H123  1  0.62169170  0.11432668  0.38195397  1
  H  H124  1  0.63034567  0.44247056  0.40033860  1
  H  H125  1  0.63033659  0.77919689  0.39395395  1
  H  H126  1  0.36570632  0.22577712  0.90041698  1
  H  H127  1  0.36601219  0.55460430  0.89471278  1
  H  H128  1  0.36185580  0.89068184  0.90330799  1
  H  H129  1  0.86641102  0.22288345  0.89841707  1
  H  H130  1  0.86647042  0.55677169  0.90152194  1
  H  H131  1  0.86853566  0.88815541  0.89303584  1
  H  H132  1  0.37269894  0.11259658  0.10729497  1
  H  H133  1  0.37225028  0.44502230  0.10910693  1
  H  H134  1  0.38373192  0.78371779  0.12704318  1
  H  H135  1  0.87490688  0.11150420  0.11088915  1
  H  H136  1  0.87328559  0.44603621  0.10870167  1
  H  H137  1  0.87748350  0.78080112  0.11459370  1
  H  H138  1  0.12290129  0.22134739  0.60778281  1
  H  H139  1  0.12669331  0.55374821  0.60679125  1
  H  H140  1  0.11798174  0.88516593  0.61862486  1
  H  H141  1  0.62028546  0.21758782  0.62033335  1
  H  H142  1  0.62998257  0.55363030  0.60400675  1
  H  H143  1  0.61824629  0.88588468  0.62252347  1
  H  H144  1  0.91615841  0.41711488  0.50563325  1
  H  H145  1  0.59963886  0.91786033  0.01199390  1
  H  H146  1  0.81745099  0.08471404  0.50186846  1
  H  H147  1  0.80336714  0.24989474  1.00660562  1
  H  H148  1  0.79665377  0.91658163  0.49460147  1
  H  H149  1  0.60323990  0.58781971  0.00786020  1
  H  H150  1  0.96107190  0.92627969  0.50614757  1
  H  H151  1  0.59064147  0.08325074  0.50291230  1
  H  H152  1  0.64724285  0.24666246  0.99032562  1
  H  H153  1  0.31828328  0.08202368  -0.00173066  1
  H  H154  1  0.79745760  0.58303417  1.00368206  1
  H  H155  1  0.44032596  0.58533167  -0.00430600  1
  H  H156  1  0.65144913  0.24620686  0.50762638  1
  H  H157  1  0.81312119  0.24694239  0.49679027  1
  H  H158  1  0.11154098  0.91764404  0.48692940  1
  H  H159  1  0.94091210  0.58250334  -0.00551739  1
  H  H160  1  0.39765671  0.74861028  0.99241613  1
  H  H161  1  0.08227230  0.08290716  0.50547364  1
  H  H162  1  0.40128812  0.74655634  0.51255427  1
  H  H163  1  0.33136912  0.24753166  0.50027963  1
  H  H164  1  0.69183716  0.58036962  0.49634704  1
  H  H165  1  0.16654650  0.42111343  0.00407064  1
  H  H166  1  0.67112078  0.41785228  0.00255108  1
  H  H167  1  0.30811297  0.58256661  1.00567035  1
  H  H168  1  0.57100202  0.08364458  0.99556588  1
  H  H169  1  0.04868427  0.74896163  1.00373417  1
  H  H170  1  0.08453176  0.08165594  0.99739844  1
  H  H171  1  0.20959650  0.74799240  -0.00967956  1
  H  H172  1  0.29024130  0.91704184  1.00924642  1
  H  H173  1  0.15054567  0.25095093  0.98891711  1
  H  H174  1  0.84340540  0.75116018  0.00139191  1
  H  H175  1  0.92371538  0.08252256  0.99481184  1
  H  H176  1  0.58275279  0.91833138  0.49704985  1
  H  H177  1  0.30929138  0.91917609  0.49512515  1
  H  H178  1  0.55345753  0.57923689  0.50000209  1
  H  H179  1  0.55618429  0.74837185  0.49428079  1
  H  H180  1  0.45983632  0.24972631  -0.00549910  1
  H  H181  1  0.10126508  0.91648525  0.00670017  1
  H  H182  1  0.68766276  0.75316981  0.50319111  1
  H  H183  1  0.95121831  0.25222229  -0.00543647  1
  H  H184  1  0.81478081  0.91536962  1.00142763  1
  H  H185  1  0.29752586  0.24066496  1.00457185  1
  H  H186  1  0.18766583  0.74683746  0.49814367  1
  H  H187  1  0.40972763  0.41570456  0.50528136  1
  H  H188  1  0.94838423  0.25250881  0.50243155  1
  H  H189  1  0.84898961  0.75188994  0.49096173  1
  H  H190  1  0.44391300  0.91784537  -0.00571148  1
  H  H191  1  0.32674308  0.41853616  -0.00125488  1
  Pb  Pb192  1  0.24741327  0.04579413  0.75048961  1
  Pb  Pb193  1  0.24638545  0.37934265  0.75146153  1
  Pb  Pb194  1  0.24319518  0.71423036  0.74936662  1
  Pb  Pb195  1  0.74560287  0.04751951  0.74940229  1
  Pb  Pb196  1  0.74549697  0.38004200  0.75125492  1
  Pb  Pb197  1  0.74602341  0.71161333  0.74863833  1
  Pb  Pb198  1  0.25676478  0.28510123  0.24567225  1
  Pb  Pb199  1  0.25572738  0.62029216  0.24837339  1
  Pb  Pb200  1  0.25606747  0.95349478  0.24888893  1
  Pb  Pb201  1  0.75414274  0.28830305  0.25130263  1
  Pb  Pb202  1  0.75728159  0.61805264  0.24946772  1
  Pb  Pb203  1  0.75881094  0.95213504  0.25295264  1
  Pb  Pb204  1  -0.00531559  0.21433817  0.74826967  1
  Pb  Pb205  1  -0.00317097  0.54452591  0.75243337  1
  Pb  Pb206  1  -0.00899193  0.88169371  0.74604089  1
  Pb  Pb207  1  0.49377738  0.21388074  0.75575858  1
  Pb  Pb208  1  0.49534216  0.54650837  0.74586130  1
  Pb  Pb209  1  0.49633606  0.87955530  0.75199427  1
  Pb  Pb210  1  0.00251283  0.12054661  0.24950930  1
  Pb  Pb211  1  0.00736629  0.45274643  0.25323768  1
  Pb  Pb212  1  0.00861410  0.78516928  0.24249831  1
  Pb  Pb213  1  0.50604997  0.11824703  0.24667152  1
  Pb  Pb214  1  0.50219264  0.45403393  0.25261646  1
  Pb  Pb215  1  0.50788686  0.78599204  0.25571815  1
  C  C216  1  0.00428563  0.04745735  0.63221314  1
  C  C217  1  -0.00266014  0.38049375  0.63094375  1
  C  C218  1  -0.00235553  0.71182351  0.63394996  1
  C  C219  1  0.49862457  0.04641683  0.63201650  1
  C  C220  1  0.49741765  0.38001930  0.62940699  1
  C  C221  1  0.49725863  0.71328306  0.63360896  1
  C  C222  1  0.00547120  0.28652786  0.13390875  1
  C  C223  1  0.00530968  0.61951121  0.13216789  1
  C  C224  1  0.00469798  0.95288172  0.13042521  1
  C  C225  1  0.50477878  0.28695127  0.13136928  1
  C  C226  1  0.50337815  0.62071492  0.13374378  1
  C  C227  1  0.50416134  0.95276109  0.13315201  1
  C  C228  1  -0.00144777  0.04639448  0.86636792  1
  C  C229  1  -0.00014019  0.38108502  0.86863288  1
  C  C230  1  -0.00203720  0.71270041  0.86806645  1
  C  C231  1  0.50268304  0.04689704  0.86599882  1
  C  C232  1  0.50030987  0.38060912  0.86562570  1
  C  C233  1  0.49555837  0.71385631  0.86891229  1
  C  C234  1  0.00174404  0.28762869  0.36806427  1
  C  C235  1  -0.00195179  0.61946770  0.36841752  1
  C  C236  1  0.00352498  0.95376174  0.36947849  1
  C  C237  1  0.50221451  0.28783477  0.36502594  1
  C  C238  1  0.49867877  0.61874840  0.36733015  1
  C  C239  1  0.50382011  0.95407622  0.36969601  1
  C  C240  1  0.24747258  0.21305936  0.63209980  1
  C  C241  1  0.25102446  0.54589781  0.63226828  1
  C  C242  1  0.24565049  0.88017972  0.63181705  1
  C  C243  1  0.74712354  0.21270710  0.63451153  1
  C  C244  1  0.75211045  0.54617262  0.63408032  1
  C  C245  1  0.74611325  0.88025662  0.63416181  1
  C  C246  1  0.25098323  0.12043671  0.13434860  1
  C  C247  1  0.24722393  0.45326885  0.13176541  1
  C  C248  1  0.25451321  0.78626225  0.13189515  1
  C  C249  1  0.75023712  0.11970431  0.13442142  1
  C  C250  1  0.74903033  0.45327586  0.13396355  1
  C  C251  1  0.75234568  0.78610377  0.13109125  1
  C  C252  1  0.24542630  0.21327346  0.86900787  1
  C  C253  1  0.24439324  0.54694944  0.86735857  1
  C  C254  1  0.24483867  0.88022585  0.86732202  1
  C  C255  1  0.74517035  0.21368621  0.86748061  1
  C  C256  1  0.74688962  0.54589880  0.86834038  1
  C  C257  1  0.74516074  0.87990475  0.86689913  1
  C  C258  1  0.25026858  0.12044861  0.36920678  1
  C  C259  1  0.25088862  0.45398500  0.37001362  1
  C  C260  1  0.25039208  0.78595653  0.36762784  1
  C  C261  1  0.74907698  0.12013652  0.36533307  1
  C  C262  1  0.75116426  0.45322994  0.36850157  1
  C  C263  1  0.75226692  0.78633554  0.36479909  1
  C  C264  1  0.46201151  0.40822514  0.95845733  1
  C  C265  1  0.78062720  0.09489953  0.46163878  1
  C  C266  1  0.20869608  0.23850600  0.53801781  1
  C  C267  1  0.27363467  0.57213232  0.96414052  1
  C  C268  1  0.04203455  0.07225987  0.95904070  1
  C  C269  1  0.77211612  0.23985158  0.96358752  1
  C  C270  1  0.46388813  0.07219272  0.53715543  1
  C  C271  1  0.94006865  0.73991743  0.95635858  1
  C  C272  1  0.54550001  0.07250039  0.53938854  1
  C  C273  1  0.29030442  0.23789567  0.53813400  1
  C  C274  1  0.31944030  0.76312751  0.04588518  1
  C  C275  1  0.77795071  0.23746734  0.53812563  1
  C  C276  1  0.97529911  0.92206202  0.03508611  1
  C  C277  1  0.69606236  0.23669648  0.54321163  1
  C  C278  1  0.53103329  0.41008746  0.53475308  1
  C  C279  1  0.96348217  0.59045639  0.46103453  1
  C  C280  1  0.71741680  0.75938263  0.03665457  1
  C  C281  1  0.97724262  0.41040091  0.96381676  1
  C  C282  1  0.18032955  0.90256658  0.95372657  1
  C  C283  1  0.76602492  0.90609734  0.53791478  1
  C  C284  1  0.56646150  0.26039273  0.04485147  1
  C  C285  1  0.72653219  0.42399951  0.46337154  1
  C  C286  1  0.47481019  0.59532665  0.03716140  1
  C  C287  1  0.46346321  0.92665354  0.46386368  1
  C  C288  1  0.27264086  0.90666266  0.53494680  1
  C  C289  1  0.72232812  0.76195318  0.46148129  1
  C  C290  1  0.77753297  0.90551323  0.96115177  1
  C  C291  1  0.47637898  0.92703361  0.03707111  1
  C  C292  1  0.28168858  0.09356789  0.03823049  1
  C  C293  1  0.79888667  0.76044044  0.03814091  1
  C  C294  1  0.27448681  0.09184583  0.46437845  1
  C  C295  1  0.05735266  0.59521278  0.04128359  1
  C  C296  1  0.98270831  0.26218094  0.03758190  1
  C  C297  1  0.23936317  0.75992049  0.03356724  1
  C  C298  1  0.22845429  0.42352810  0.46473936  1
  C  C299  1  0.19210813  0.57111252  0.95822595  1
  C  C300  1  0.97586017  0.59382578  0.03548022  1
  C  C301  1  0.52457751  0.73938932  0.53745471  1
  C  C302  1  0.72504273  0.57131762  0.53878114  1
  C  C303  1  0.20026358  0.09464410  0.04381612  1
  C  C304  1  0.68912385  0.57372682  0.95612623  1
  C  C305  1  0.69918883  0.09617683  0.45661088  1
  C  C306  1  0.26042551  0.90568647  0.96590571  1
  C  C307  1  0.71077046  0.42782243  0.04123384  1
  C  C308  1  0.19144071  0.90344243  0.54156639  1
  C  C309  1  0.28683890  0.42773808  0.03803611  1
  C  C310  1  0.55649994  0.59690317  0.04292750  1
  C  C311  1  0.80414022  0.76193094  0.45571839  1
  N  N312  1  0.20701894  0.42798540  0.03954999  1
  N  N313  1  0.06156599  0.26307305  0.04386934  1
  N  N314  1  0.95586804  0.40567523  0.54038124  1
  N  N315  1  0.06273601  0.93252888  0.45598145  1
  N  N316  1  0.48828568  0.25801340  0.03608606  1
  N  N317  1  0.54145714  0.25972652  0.45789526  1
  N  N318  1  0.30572130  0.42499851  0.45909264  1
  N  N319  1  0.04298081  0.07234925  0.54084150  1
  N  N320  1  0.46503943  0.25907027  0.45818653  1
  N  N321  1  0.95828541  0.74065821  0.54124988  1
  N  N322  1  0.04094618  0.59096850  0.46136532  1
  N  N323  1  0.53991489  0.40808711  0.95999169  1
  N  N324  1  0.05374841  0.92568395  0.04098786  1
  N  N325  1  0.03401346  0.40586820  0.53629671  1
  N  N326  1  0.69815888  0.90500630  0.95985556  1
  N  N327  1  0.52262121  0.74041712  0.96499993  1
  N  N328  1  0.19307978  0.23363254  0.95821637  1
  N  N329  1  0.44597362  0.59498628  0.45784434  1
  N  N330  1  0.98538145  0.91988461  0.46268301  1
  N  N331  1  0.96448532  0.07202794  0.53801001  1
  N  N332  1  0.44511073  0.73913131  0.95735838  1
  N  N333  1  0.76759094  0.57512580  0.96294096  1
  N  N334  1  0.79011772  0.42788867  0.03961219  1
  N  N335  1  0.79061034  0.09428557  0.04083381  1
  N  N336  1  0.05449932  0.40894752  0.95847206  1
  N  N337  1  0.44552992  0.73894607  0.54502678  1
  N  N338  1  0.29891027  0.76186856  0.45950471  1
  N  N339  1  0.45211853  0.40798517  0.53940875  1
  N  N340  1  0.22061514  0.76176198  0.46124398  1
  N  N341  1  0.53592839  0.07249961  0.95835082  1
  N  N342  1  0.19715110  0.09374279  0.45999680  1
  N  N343  1  0.55547992  0.92719082  0.04432727  1
  N  N344  1  0.80407186  0.57194149  0.54305996  1
  N  N345  1  0.21353135  0.57421130  0.53892524  1
  N  N346  1  0.54252101  0.92695489  0.46189904  1
  N  N347  1  0.52381043  0.59340036  0.46118453  1
  N  N348  1  0.80393885  0.42608716  0.45916050  1
  N  N349  1  0.97760245  0.25978048  0.46140088  1
  N  N350  1  0.28974627  0.57435794  0.53922298  1
  N  N351  1  0.01879674  0.74152707  0.96281702  1
  N  N352  1  0.03470691  0.74090882  0.54076659  1
  N  N353  1  0.45763442  0.07177958  0.95872134  1
  N  N354  1  0.69310644  0.23883337  0.95626632  1
  N  N355  1  0.05535903  0.26196898  0.45766167  1
  N  N356  1  0.96219119  0.07299632  0.95911251  1
  N  N357  1  0.71350122  0.09423069  0.03999003  1
  N  N358  1  0.27091533  0.24512317  0.96164773  1
  N  N359  1  0.68727432  0.90485170  0.54531195  1
  N  N360  1  0.06841967  0.05775090  0.59770727  1
  N  N361  1  0.05932866  0.38986738  0.59292181  1
  N  N362  1  0.06046140  0.72279530  0.59799755  1
  N  N363  1  0.56562956  0.05617674  0.59963243  1
  N  N364  1  0.55935558  0.39287878  0.59039797  1
  N  N365  1  0.55708949  0.72407955  0.59263574  1
  N  N366  1  0.44955437  0.27632233  0.08901200  1
  N  N367  1  0.44303147  0.61012868  0.09412664  1
  N  N368  1  0.44417573  0.94256285  0.09222080  1
  N  N369  1  0.94693883  0.27626813  0.09250117  1
  N  N370  1  0.94448470  0.60944730  0.09316511  1
  N  N371  1  0.94446840  0.93915812  0.09040688  1
  N  N372  1  0.43778697  0.05593247  0.90092620  1
  N  N373  1  0.43565016  0.39157827  0.90151494  1
  N  N374  1  0.42761240  0.72310142  0.89904030  1
  N  N375  1  0.93551076  0.05672951  0.90208220  1
  N  N376  1  0.94137346  0.39341385  0.91021464  1
  N  N377  1  0.92709043  0.72292728  0.89737688  1
  N  N378  1  0.06987702  0.27801985  0.39894231  1
  N  N379  1  0.06269286  0.60920223  0.40236556  1
  N  N380  1  0.07402753  0.94451568  0.39615798  1
  N  N381  1  0.56596457  0.27775999  0.40037035  1
  N  N382  1  0.55780986  0.60734966  0.40652727  1
  N  N383  1  0.56816803  0.94424634  0.40401515  1
  N  N384  1  0.31318263  0.22197519  0.59789818  1
  N  N385  1  0.31457225  0.55699970  0.59709597  1
  N  N386  1  0.30519063  0.89170941  0.59245647  1
  N  N387  1  0.80838264  0.22260168  0.59543196  1
  N  N388  1  0.81906632  0.55627309  0.60243918  1
  N  N389  1  0.80341802  0.89107688  0.59193663  1
  N  N390  1  0.18218919  0.11066530  0.10197535  1
  N  N391  1  0.18287362  0.44417923  0.09712103  1
  N  N392  1  0.19974073  0.77482249  0.08848627  1
  N  N393  1  0.68765413  0.10949611  0.09797396  1
  N  N394  1  0.68394162  0.44306038  0.09890973  1
  N  N395  1  0.68952648  0.77468502  0.09257906  1
  N  N396  1  0.17689115  0.22328580  0.89841825  1
  N  N397  1  0.17527777  0.55599392  0.89953105  1
  N  N398  1  0.17156053  0.88739135  0.89378192  1
  N  N399  1  0.67679625  0.22212967  0.89729349  1
  N  N400  1  0.67594502  0.55629456  0.89733777  1
  N  N401  1  0.67956184  0.88877985  0.90036077  1
  N  N402  1  0.30931579  0.10782296  0.41013150  1
  N  N403  1  0.31967838  0.44414824  0.39851832  1
  N  N404  1  0.31648877  0.77817161  0.40127871  1
  N  N405  1  0.81061136  0.10996396  0.40354194  1
  N  N406  1  0.81934896  0.44449137  0.39845941  1
  N  N407  1  0.82117162  0.77695477  0.39549912  1
  N  N408  1  0.43935298  0.27636459  0.40081396  1
  N  N409  1  0.43088931  0.61071055  0.39909146  1
  N  N410  1  0.43934084  0.94322401  0.40671762  1
  N  N411  1  0.94295421  0.27689733  0.40783238  1
  N  N412  1  0.93417618  0.60771909  0.40515360  1
  N  N413  1  0.94802442  0.94286866  0.41205919  1
  N  N414  1  0.06461317  0.05609702  0.90117191  1
  N  N415  1  0.06852482  0.39044055  0.89759667  1
  N  N416  1  0.05526457  0.72301805  0.90899849  1
  N  N417  1  0.56495498  0.05822886  0.90214999  1
  N  N418  1  0.56373723  0.39074588  0.90091771  1
  N  N419  1  0.55366238  0.72505712  0.90991752  1
  N  N420  1  0.07408558  0.27785968  0.10436537  1
  N  N421  1  0.07439418  0.61059945  0.09985999  1
  N  N422  1  0.07225545  0.94472076  0.09959240  1
  N  N423  1  0.57706013  0.27739803  0.10420571  1
  N  N424  1  0.57252749  0.61257038  0.10318365  1
  N  N425  1  0.57236999  0.94321334  0.10349842  1
  N  N426  1  0.43574961  0.05655990  0.59301102  1
  N  N427  1  0.43076190  0.38917476  0.59766489  1
  N  N428  1  0.42890652  0.72201433  0.60391994  1
  N  N429  1  0.94132617  0.05696189  0.59539234  1
  N  N430  1  0.93198725  0.39083947  0.59776439  1
  N  N431  1  0.93386759  0.72300104  0.59900971  1
  N  N432  1  0.18203676  0.11208321  0.39913508  1
  N  N433  1  0.19246763  0.44105609  0.41145571  1
  N  N434  1  0.18958823  0.77455908  0.40522848  1
  N  N435  1  0.68056597  0.11113826  0.39822601  1
  N  N436  1  0.69189698  0.44034162  0.40920526  1
  N  N437  1  0.69134833  0.77697087  0.40438540  1
  N  N438  1  0.30394810  0.22280566  0.90947289  1
  N  N439  1  0.30526227  0.55691945  0.90641543  1
  N  N440  1  0.29989863  0.89131046  0.91068245  1
  N  N441  1  0.80492132  0.22460972  0.90844346  1
  N  N442  1  0.80422638  0.55608008  0.90924200  1
  N  N443  1  0.80758358  0.89058105  0.90456078  1
  N  N444  1  0.31217464  0.10990541  0.09587330  1
  N  N445  1  0.31190794  0.44277487  0.09562345  1
  N  N446  1  0.32798060  0.77884011  0.10573559  1
  N  N447  1  0.81416867  0.11012937  0.09917160  1
  N  N448  1  0.81215595  0.44357244  0.09777712  1
  N  N449  1  0.81932559  0.77703528  0.09844722  1
  N  N450  1  0.18300288  0.22361207  0.59473030  1
  N  N451  1  0.18788919  0.55655925  0.59646495  1
  N  N452  1  0.17565791  0.88790334  0.60061521  1
  N  N453  1  0.67851015  0.22142434  0.60317321  1
  N  N454  1  0.69146636  0.55606578  0.59441574  1
  N  N455  1  0.67674186  0.88886196  0.60569149  1
  Cl  Cl456  1  0.25052786  0.05363867  0.61849462  1
  Cl  Cl457  1  0.24601929  0.38424412  0.61920899  1
  Cl  Cl458  1  0.24426697  0.72510187  0.61281697  1
  Cl  Cl459  1  0.75667163  0.05329773  0.61684174  1
  Cl  Cl460  1  0.74736076  0.38662864  0.61879459  1
  Cl  Cl461  1  0.74481412  0.72127018  0.61367591  1
  Cl  Cl462  1  0.26428786  0.27356220  0.10384053  1
  Cl  Cl463  1  0.25902210  0.61273450  0.11508403  1
  Cl  Cl464  1  0.25844558  0.94590557  0.11448537  1
  Cl  Cl465  1  0.76163511  0.27721917  0.11455393  1
  Cl  Cl466  1  0.75984600  0.61032897  0.11178409  1
  Cl  Cl467  1  0.75869103  0.94419120  0.11804679  1
  Cl  Cl468  1  0.25258281  0.05462040  0.88404044  1
  Cl  Cl469  1  0.25228569  0.38741316  0.88829694  1
  Cl  Cl470  1  0.24148915  0.72104158  0.88472056  1
  Cl  Cl471  1  0.74998907  0.05292191  0.88254729  1
  Cl  Cl472  1  0.75208613  0.38598108  0.88521923  1
  Cl  Cl473  1  0.74096348  0.71750331  0.88254667  1
  Cl  Cl474  1  0.25501348  0.28121760  0.37832787  1
  Cl  Cl475  1  0.24738817  0.61729874  0.37870936  1
  Cl  Cl476  1  0.25617580  0.94977765  0.38222249  1
  Cl  Cl477  1  0.75560472  0.27854664  0.38629244  1
  Cl  Cl478  1  0.74182921  0.60978864  0.38419953  1
  Cl  Cl479  1  0.76033659  0.94278959  0.38963539  1
  Cl  Cl480  1  -0.00688266  0.22335788  0.61089604  1
  Cl  Cl481  1  0.00376496  0.54994876  0.62136619  1
  Cl  Cl482  1  -0.01165865  0.89585088  0.60789529  1
  Cl  Cl483  1  0.49622978  0.21636340  0.62832705  1
  Cl  Cl484  1  0.50624202  0.55401235  0.60727903  1
  Cl  Cl485  1  0.49291731  0.88716794  0.61768834  1
  Cl  Cl486  1  -0.00281094  0.10945301  0.11236965  1
  Cl  Cl487  1  -0.00090327  0.44860663  0.11937995  1
  Cl  Cl488  1  0.01256554  0.77737726  0.10419929  1
  Cl  Cl489  1  0.50367023  0.11409250  0.11014019  1
  Cl  Cl490  1  0.49625195  0.44571305  0.12209054  1
  Cl  Cl491  1  0.50785757  0.78363164  0.12456288  1
  Cl  Cl492  1  -0.00926370  0.21989532  0.88515491  1
  Cl  Cl493  1  -0.01198316  0.55424874  0.88762313  1
  Cl  Cl494  1  -0.00961456  0.88492315  0.87886033  1
  Cl  Cl495  1  0.48753024  0.22597139  0.89748432  1
  Cl  Cl496  1  0.49157588  0.55340461  0.87895019  1
  Cl  Cl497  1  0.49082825  0.89044954  0.88953813  1
  Cl  Cl498  1  -0.00130959  0.11201628  0.38205886  1
  Cl  Cl499  1  0.00396303  0.44611762  0.38653319  1
  Cl  Cl500  1  0.00755183  0.78406788  0.37451317  1
  Cl  Cl501  1  0.49566599  0.11100128  0.37891969  1
  Cl  Cl502  1  0.50593451  0.44621929  0.38896958  1
  Cl  Cl503  1  0.50327107  0.77935700  0.39270747  1
  Cl  Cl504  1  0.36048204  0.14599459  0.75342206  1
  Cl  Cl505  1  0.36284017  0.47731388  0.74911552  1
  Cl  Cl506  1  0.36130982  0.81107674  0.74987239  1
  Cl  Cl507  1  0.86153124  0.14561414  0.75179343  1
  Cl  Cl508  1  0.86077107  0.47793421  0.74753661  1
  Cl  Cl509  1  0.85829965  0.81196370  0.75026890  1
  Cl  Cl510  1  0.13572394  0.18935749  0.24688411  1
  Cl  Cl511  1  0.14017195  0.52176910  0.24720442  1
  Cl  Cl512  1  0.13914878  0.85639685  0.24955667  1
  Cl  Cl513  1  0.63822558  0.18991409  0.25063652  1
  Cl  Cl514  1  0.63639213  0.52274094  0.24904687  1
  Cl  Cl515  1  0.63757678  0.85630594  0.24991190  1
  Cl  Cl516  1  0.13642095  0.14488918  0.75279063  1
  Cl  Cl517  1  0.13791472  0.47764936  0.75581756  1
  Cl  Cl518  1  0.13816820  0.81175362  0.75011995  1
  Cl  Cl519  1  0.63731033  0.14446775  0.75458962  1
  Cl  Cl520  1  0.63671938  0.47796537  0.75419980  1
  Cl  Cl521  1  0.63434649  0.81254693  0.74831243  1
  Cl  Cl522  1  0.35770870  0.18894942  0.24882271  1
  Cl  Cl523  1  0.36321775  0.52141057  0.25332338  1
  Cl  Cl524  1  0.36034174  0.85485520  0.24945695  1
  Cl  Cl525  1  0.86358949  0.18744207  0.25003494  1
  Cl  Cl526  1  0.85827311  0.52275666  0.25164402  1
  Cl  Cl527  1  0.86065587  0.85575529  0.25052299  1
  Cl  Cl528  1  0.11292102  0.31178292  0.75365627  1
  Cl  Cl529  1  0.10964582  0.64475372  0.75314031  1
  Cl  Cl530  1  0.11212762  0.97707625  0.75130065  1
  Cl  Cl531  1  0.61235686  0.31070836  0.75176165  1
  Cl  Cl532  1  0.60785911  0.64622677  0.75027514  1
  Cl  Cl533  1  0.61309497  0.97744587  0.74849792  1
  Cl  Cl534  1  0.39113956  0.02051086  0.24776284  1
  Cl  Cl535  1  0.38783025  0.35532336  0.24920123  1
  Cl  Cl536  1  0.38864381  0.68903055  0.25212458  1
  Cl  Cl537  1  0.89099927  0.01965726  0.24983190  1
  Cl  Cl538  1  0.88957504  0.35568849  0.25118320  1
  Cl  Cl539  1  0.88767307  0.68994951  0.25106621  1
  Cl  Cl540  1  0.38871029  0.31076789  0.75204235  1
  Cl  Cl541  1  0.38758865  0.64558533  0.74829789  1
  Cl  Cl542  1  0.38784254  0.98115895  0.75130272  1
  Cl  Cl543  1  0.88823807  0.31107399  0.74857837  1
  Cl  Cl544  1  0.88514206  0.64537286  0.75201501  1
  Cl  Cl545  1  0.89094954  0.97862490  0.74962198  1
  Cl  Cl546  1  0.11306589  0.02209478  0.24984820  1
  Cl  Cl547  1  0.11135237  0.35558092  0.24700348  1
  Cl  Cl548  1  0.11104001  0.68921551  0.24831228  1
  Cl  Cl549  1  0.61048433  0.02344678  0.24864101  1
  Cl  Cl550  1  0.61472692  0.35436211  0.24659835  1
  Cl  Cl551  1  0.61006320  0.69002662  0.24947877  1
