# generated using pymatgen
data_H8PbC4(N3Cl2)2
_symmetry_space_group_name_H-M   'P 1'
_cell_length_a   16.62231256
_cell_length_b   22.50739025
_cell_length_c   21.59059293
_cell_angle_alpha   89.99965722
_cell_angle_beta   90.00164307
_cell_angle_gamma   89.99505427
_symmetry_Int_Tables_number   1
_chemical_formula_structural   H8PbC4(N3Cl2)2
_chemical_formula_sum   'H192 Pb24 C96 N144 Cl96'
_cell_volume   8077.57785904
_cell_formula_units_Z   24
loop_
 _symmetry_equiv_pos_site_id
 _symmetry_equiv_pos_as_xyz
  1  'x, y, z'
loop_
 _atom_site_type_symbol
 _atom_site_label
 _atom_site_symmetry_multiplicity
 _atom_site_fract_x
 _atom_site_fract_y
 _atom_site_fract_z
 _atom_site_occupancy
  H  H0  1  -0.00052176  0.03053200  0.67872560  1
  H  H1  1  0.00096292  0.36514571  0.67921457  1
  H  H2  1  0.00063814  0.69791542  0.67628387  1
  H  H3  1  0.50543163  0.03241845  0.68453214  1
  H  H4  1  0.49944868  0.36620716  0.67577492  1
  H  H5  1  0.50701548  0.69599954  0.67834344  1
  H  H6  1  -0.00201666  0.30215233  0.17884412  1
  H  H7  1  0.00458321  0.63703302  0.17976083  1
  H  H8  1  0.00282140  0.96815742  0.18091599  1
  H  H9  1  0.50367539  0.30249443  0.18121680  1
  H  H10  1  0.49030088  0.63449704  0.18069983  1
  H  H11  1  0.49328791  0.96738772  0.17836376  1
  H  H12  1  -0.00417279  0.03190706  0.81958859  1
  H  H13  1  -0.00326227  0.36584928  0.82004632  1
  H  H14  1  0.00494259  0.69726964  0.82234062  1
  H  H15  1  0.50679970  0.03038322  0.82111358  1
  H  H16  1  0.49717497  0.36376405  0.82186252  1
  H  H17  1  0.50402539  0.69857682  0.81761531  1
  H  H18  1  0.01031487  0.30322108  0.31956040  1
  H  H19  1  -0.01074229  0.63576935  0.31788167  1
  H  H20  1  -0.00201306  0.96958842  0.32007736  1
  H  H21  1  0.49481401  0.30648072  0.32312871  1
  H  H22  1  0.50475723  0.63631531  0.32012473  1
  H  H23  1  0.49533481  0.96729889  0.31951194  1
  H  H24  1  0.24571148  0.19749202  0.67861529  1
  H  H25  1  0.26084160  0.53258412  0.67521866  1
  H  H26  1  0.25832779  0.86686096  0.68082304  1
  H  H27  1  0.76006062  0.19816002  0.68153676  1
  H  H28  1  0.75407379  0.52899543  0.68223827  1
  H  H29  1  0.74581841  0.86539291  0.68034764  1
  H  H30  1  0.25355130  0.13594160  0.17727919  1
  H  H31  1  0.25217790  0.46901994  0.17875887  1
  H  H32  1  0.24735205  0.80235239  0.17992658  1
  H  H33  1  0.75252793  0.13708551  0.18012031  1
  H  H34  1  0.75193306  0.47117505  0.17907238  1
  H  H35  1  0.73993070  0.80059039  0.18205948  1
  H  H36  1  0.25088106  0.19634271  0.82230167  1
  H  H37  1  0.25352441  0.53245029  0.81809604  1
  H  H38  1  0.25355417  0.86128986  0.82219563  1
  H  H39  1  0.74184898  0.19533450  0.82089284  1
  H  H40  1  0.75205343  0.53108422  0.82020413  1
  H  H41  1  0.75340825  0.86408340  0.82132169  1
  H  H42  1  0.26099521  0.13499581  0.32329522  1
  H  H43  1  0.25696042  0.47038455  0.32251490  1
  H  H44  1  0.25719111  0.80286533  0.32122207  1
  H  H45  1  0.73874389  0.13649153  0.31998960  1
  H  H46  1  0.74270656  0.46791819  0.32072202  1
  H  H47  1  0.74040280  0.80137811  0.32096700  1
  H  H48  1  0.13024666  0.05326976  0.61462545  1
  H  H49  1  0.12564752  0.38706693  0.61058488  1
  H  H50  1  0.11699875  0.72424971  0.60027489  1
  H  H51  1  0.62726893  0.05270803  0.61210175  1
  H  H52  1  0.62438915  0.38713758  0.60820920  1
  H  H53  1  0.61732525  0.72480001  0.59724460  1
  H  H54  1  0.37381783  0.27965577  0.11385933  1
  H  H55  1  0.38547283  0.61004877  0.09679397  1
  H  H56  1  0.38960830  0.94167845  0.09443850  1
  H  H57  1  0.87435794  0.27756615  0.10677247  1
  H  H58  1  0.87833325  0.61407252  0.10948586  1
  H  H59  1  0.88607535  0.94474212  0.10224726  1
  H  H60  1  0.37539766  0.05400843  0.88480150  1
  H  H61  1  0.38386624  0.38945015  0.90164190  1
  H  H62  1  0.37093781  0.71817316  0.87839272  1
  H  H63  1  0.87958488  0.05362468  0.89505732  1
  H  H64  1  0.88405778  0.39241201  0.90110993  1
  H  H65  1  0.87293789  0.71691272  0.88238814  1
  H  H66  1  0.11785425  0.27531162  0.40397799  1
  H  H67  1  0.12737655  0.61525696  0.37537824  1
  H  H68  1  0.12961085  0.94761896  0.38300004  1
  H  H69  1  0.62388125  0.28228945  0.38951462  1
  H  H70  1  0.62798166  0.61137791  0.39181655  1
  H  H71  1  0.62904802  0.94782674  0.38262240  1
  H  H72  1  0.37950944  0.22145276  0.61904907  1
  H  H73  1  0.36798450  0.55550429  0.59212249  1
  H  H74  1  0.36422989  0.89021569  0.59734955  1
  H  H75  1  0.87599495  0.22324151  0.60398948  1
  H  H76  1  0.86560413  0.55629613  0.60246257  1
  H  H77  1  0.87061457  0.88690504  0.60790384  1
  H  H78  1  0.12493669  0.11344179  0.11052938  1
  H  H79  1  0.11851678  0.44722495  0.11810006  1
  H  H80  1  0.13008626  0.77645348  0.10438285  1
  H  H81  1  0.62623589  0.11183506  0.11121481  1
  H  H82  1  0.61828096  0.44742895  0.11782763  1
  H  H83  1  0.63480930  0.77582678  0.09913327  1
  H  H84  1  0.12553165  0.22126926  0.89016510  1
  H  H85  1  0.12005184  0.55278807  0.88219167  1
  H  H86  1  0.11856169  0.88187221  0.88257060  1
  H  H87  1  0.62631575  0.22336050  0.89912016  1
  H  H88  1  0.62016509  0.55156937  0.88348772  1
  H  H89  1  0.61863570  0.88768360  0.88135642  1
  H  H90  1  0.36501714  0.10599006  0.40772111  1
  H  H91  1  0.37088320  0.44388430  0.40188998  1
  H  H92  1  0.37944202  0.77810286  0.39244389  1
  H  H93  1  0.87584622  0.11665846  0.37523698  1
  H  H94  1  0.87621005  0.44738169  0.38169378  1
  H  H95  1  0.88285439  0.78504172  0.37026972  1
  H  H96  1  0.37600633  0.27952007  0.39867996  1
  H  H97  1  0.37859099  0.61263418  0.39003360  1
  H  H98  1  0.38140194  0.94293183  0.39974985  1
  H  H99  1  0.87237876  0.28289241  0.37650575  1
  H  H100  1  0.88051234  0.61050585  0.40049224  1
  H  H101  1  0.88171036  0.94348804  0.39782221  1
  H  H102  1  0.12817304  0.05278105  0.88142590  1
  H  H103  1  0.13089341  0.38447751  0.88269310  1
  H  H104  1  0.12071828  0.72185824  0.89875560  1
  H  H105  1  0.62462477  0.05555594  0.89574956  1
  H  H106  1  0.63131713  0.38633204  0.88147369  1
  H  H107  1  0.61967225  0.72088694  0.89439312  1
  H  H108  1  0.12384436  0.27955726  0.11089888  1
  H  H109  1  0.12715033  0.61287862  0.10476351  1
  H  H110  1  0.13411007  0.94637034  0.11379742  1
  H  H111  1  0.62184756  0.27752372  0.10426837  1
  H  H112  1  0.63155413  0.61730411  0.12829689  1
  H  H113  1  0.63481520  0.95137568  0.12723851  1
  H  H114  1  0.37786771  0.05425427  0.61826598  1
  H  H115  1  0.37534183  0.38651066  0.60703955  1
  H  H116  1  0.37059862  0.71637111  0.62115468  1
  H  H117  1  0.88200933  0.05692189  0.60246759  1
  H  H118  1  0.87610193  0.38684529  0.61075483  1
  H  H119  1  0.86888333  0.72107083  0.61336568  1
  H  H120  1  0.12091757  0.11824034  0.37712366  1
  H  H121  1  0.12335635  0.44862058  0.38306444  1
  H  H122  1  0.12967194  0.77834520  0.38965320  1
  H  H123  1  0.62967748  0.10762112  0.40196282  1
  H  H124  1  0.62868689  0.44194487  0.40032977  1
  H  H125  1  0.63840352  0.77686865  0.40649623  1
  H  H126  1  0.37469949  0.22213707  0.89290833  1
  H  H127  1  0.36881529  0.55503704  0.89642027  1
  H  H128  1  0.36556925  0.89158383  0.90006673  1
  H  H129  1  0.87371490  0.21805768  0.88354148  1
  H  H130  1  0.86834703  0.55672090  0.89813815  1
  H  H131  1  0.86679745  0.88853104  0.90029071  1
  H  H132  1  0.37389280  0.10932464  0.10529444  1
  H  H133  1  0.36642420  0.44231137  0.09993976  1
  H  H134  1  0.37865072  0.78003942  0.11542878  1
  H  H135  1  0.87498066  0.11246423  0.10895356  1
  H  H136  1  0.86503454  0.44355182  0.09873820  1
  H  H137  1  0.88100329  0.78435499  0.12896056  1
  H  H138  1  0.13156852  0.22492235  0.59999698  1
  H  H139  1  0.12287447  0.55039789  0.62280971  1
  H  H140  1  0.11776030  0.88313401  0.62706594  1
  H  H141  1  0.62779966  0.22027091  0.61811609  1
  H  H142  1  0.61776299  0.54913974  0.62138479  1
  H  H143  1  0.62186567  0.88716650  0.60631344  1
  H  H144  1  0.57700682  0.57866358  0.49859754  1
  H  H145  1  0.32491998  0.25241853  0.99675801  1
  H  H146  1  0.54682009  0.75221240  0.49624752  1
  H  H147  1  0.28667832  0.09361994  0.50806206  1
  H  H148  1  0.79529693  0.41961292  -0.00364980  1
  H  H149  1  0.44959816  0.91445003  0.50094063  1
  H  H150  1  0.09684219  0.91682583  0.49458304  1
  H  H151  1  0.46297413  0.91466092  -0.01050853  1
  H  H152  1  0.17404819  0.75280286  0.49568164  1
  H  H153  1  0.57989948  0.25603548  0.49605432  1
  H  H154  1  0.91642584  0.41591436  0.49975825  1
  H  H155  1  0.64501029  0.91559810  0.99226533  1
  H  H156  1  0.56174146  0.74550057  1.00407362  1
  H  H157  1  0.65241530  0.58284481  0.99470848  1
  H  H158  1  0.79802185  0.58339706  0.49680954  1
  H  H159  1  0.13821337  0.08455290  0.48518949  1
  H  H160  1  0.14918616  0.91867560  0.98668456  1
  H  H161  1  0.30008618  0.41524817  -0.00267939  1
  H  H162  1  0.90000360  0.74862172  0.99654760  1
  H  H163  1  0.93445074  0.08124163  1.00439259  1
  H  H164  1  0.41788890  0.07737884  0.50446868  1
  H  H165  1  0.14118519  0.57910527  0.50681178  1
  H  H166  1  0.81571469  0.25348262  0.49873177  1
  H  H167  1  0.57754041  0.07175102  0.49910850  1
  H  H168  1  0.92329357  0.24767699  0.00362072  1
  H  H169  1  0.08281046  0.25105637  -0.00016692  1
  H  H170  1  0.71375668  0.75159110  0.51119051  1
  H  H171  1  0.45109467  0.41647089  1.00402493  1
  H  H172  1  0.45787205  0.58251561  -0.00836953  1
  H  H173  1  0.29683928  0.90567284  1.00342803  1
  H  H174  1  0.95383981  0.42022059  1.00185192  1
  H  H175  1  0.19808677  0.25193754  0.49737897  1
  H  H176  1  0.29294534  0.91844329  0.49187958  1
  H  H177  1  0.70699255  0.74839516  -0.00706509  1
  H  H178  1  0.16445900  0.08247978  0.00542692  1
  H  H179  1  0.41088027  0.08004886  0.99181628  1
  H  H180  1  0.69190497  0.24961209  1.00079444  1
  H  H181  1  0.33309023  0.74802829  0.50148136  1
  H  H182  1  0.80389882  0.91890934  1.00657469  1
  H  H183  1  0.08481103  0.41730373  0.50005102  1
  H  H184  1  0.56975909  0.08478264  1.00399645  1
  H  H185  1  0.40037993  0.74475342  0.99195355  1
  H  H186  1  0.85428489  0.08321141  0.48726903  1
  H  H187  1  0.90067132  0.75225782  0.50502883  1
  H  H188  1  0.30555957  0.58535249  1.00260353  1
  H  H189  1  0.95119577  0.58215948  0.50455030  1
  H  H190  1  0.70072622  0.08915274  0.50464015  1
  H  H191  1  0.04182726  0.25092023  0.50369779  1
  Pb  Pb192  1  0.24756343  0.04791098  0.74736342  1
  Pb  Pb193  1  0.25257092  0.38088975  0.75594649  1
  Pb  Pb194  1  0.24156287  0.71451863  0.74488857  1
  Pb  Pb195  1  0.75262075  0.04764413  0.74569319  1
  Pb  Pb196  1  0.74537563  0.38173409  0.75493095  1
  Pb  Pb197  1  0.74578833  0.71231580  0.74910633  1
  Pb  Pb198  1  0.25547171  0.28496404  0.25364180  1
  Pb  Pb199  1  0.25411533  0.61939390  0.24336561  1
  Pb  Pb200  1  0.25833556  0.95141906  0.24557662  1
  Pb  Pb201  1  0.74955982  0.28776950  0.24495056  1
  Pb  Pb202  1  0.75759028  0.61762652  0.25719338  1
  Pb  Pb203  1  0.75957629  0.95215466  0.24810856  1
  Pb  Pb204  1  -0.00105390  0.21750722  0.74663007  1
  Pb  Pb205  1  -0.00435491  0.54615935  0.74727807  1
  Pb  Pb206  1  -0.00507616  0.87883432  0.75194089  1
  Pb  Pb207  1  0.50037158  0.21318511  0.75083884  1
  Pb  Pb208  1  0.49137144  0.54782523  0.74831197  1
  Pb  Pb209  1  0.49609409  0.87966105  0.74454951  1
  Pb  Pb210  1  0.00229151  0.12096363  0.24602587  1
  Pb  Pb211  1  0.00422821  0.45079527  0.24458065  1
  Pb  Pb212  1  0.00983233  0.78543448  0.25236603  1
  Pb  Pb213  1  0.50568019  0.11770977  0.25325591  1
  Pb  Pb214  1  0.49950521  0.45455522  0.24911975  1
  Pb  Pb215  1  0.50846909  0.78393170  0.25283325  1
  C  C216  1  0.00382510  0.04628328  0.63152023  1
  C  C217  1  0.00089670  0.38036026  0.63144803  1
  C  C218  1  -0.00505956  0.71408926  0.62923402  1
  C  C219  1  0.50336731  0.04595823  0.63628350  1
  C  C220  1  0.49978014  0.38044772  0.62762166  1
  C  C221  1  0.49854283  0.71177504  0.63131199  1
  C  C222  1  -0.00172124  0.28620913  0.13128636  1
  C  C223  1  0.00361054  0.62164885  0.13218440  1
  C  C224  1  0.00789588  0.95377166  0.13300217  1
  C  C225  1  0.49973244  0.28691557  0.13372167  1
  C  C226  1  0.50226215  0.62060470  0.13347269  1
  C  C227  1  0.50610541  0.95354395  0.13116354  1
  C  C228  1  0.00098952  0.04603792  0.86735448  1
  C  C229  1  0.00383519  0.38080406  0.86750120  1
  C  C230  1  -0.00119371  0.71194035  0.86986975  1
  C  C231  1  0.50172943  0.04662028  0.86846330  1
  C  C232  1  0.50395754  0.37880965  0.86916449  1
  C  C233  1  0.49787100  0.71291401  0.86546422  1
  C  C234  1  0.00048995  0.28822568  0.36672036  1
  C  C235  1  -0.00062088  0.62051545  0.36491560  1
  C  C236  1  0.00313648  0.95358490  0.36719312  1
  C  C237  1  0.49843218  0.28988040  0.37022370  1
  C  C238  1  0.50380096  0.62028346  0.36746375  1
  C  C239  1  0.50175217  0.95229894  0.36702144  1
  C  C240  1  0.25198567  0.21327458  0.63157321  1
  C  C241  1  0.24963252  0.54634599  0.62793782  1
  C  C242  1  0.24695028  0.88056980  0.63345851  1
  C  C243  1  0.75446128  0.21346546  0.63409123  1
  C  C244  1  0.74543971  0.54446738  0.63507366  1
  C  C245  1  0.74582520  0.87993564  0.63245081  1
  C  C246  1  0.25031216  0.11957793  0.13010176  1
  C  C247  1  0.24582622  0.45389827  0.13143159  1
  C  C248  1  0.25239481  0.78684305  0.13275891  1
  C  C249  1  0.75098558  0.12092182  0.13309706  1
  C  C250  1  0.74528657  0.45516298  0.13199485  1
  C  C251  1  0.75169064  0.78704513  0.13471741  1
  C  C252  1  0.25088109  0.21296094  0.86936459  1
  C  C253  1  0.24721439  0.54683930  0.86576525  1
  C  C254  1  0.24573663  0.87773772  0.86921269  1
  C  C255  1  0.74693746  0.21175550  0.86791291  1
  C  C256  1  0.74680286  0.54661427  0.86752470  1
  C  C257  1  0.74549824  0.87988949  0.86862265  1
  C  C258  1  0.24891985  0.11983898  0.37033819  1
  C  C259  1  0.25056141  0.45479683  0.36961191  1
  C  C260  1  0.25491933  0.78696576  0.36879208  1
  C  C261  1  0.74774845  0.12149046  0.36741302  1
  C  C262  1  0.74906788  0.45289568  0.36801253  1
  C  C263  1  0.75399944  0.78790567  0.36803233  1
  C  C264  1  0.19067979  0.42520302  0.04242854  1
  C  C265  1  0.77196244  0.90766574  0.96414617  1
  C  C266  1  0.05300062  0.07079357  0.95782361  1
  C  C267  1  0.44538543  0.73585169  0.95655088  1
  C  C268  1  0.18948055  0.57048364  0.53987966  1
  C  C269  1  0.04194311  0.40678967  0.53759572  1
  C  C270  1  0.30712965  0.24415526  0.54342380  1
  C  C271  1  0.29364880  0.75878105  0.46197883  1
  C  C272  1  0.05020138  0.92685513  0.45751588  1
  C  C273  1  0.55992414  0.40817379  0.95759647  1
  C  C274  1  0.69939528  0.57271727  0.95791314  1
  C  C275  1  0.82156564  0.76563044  0.45292017  1
  C  C276  1  0.97156685  0.07139443  0.96397682  1
  C  C277  1  0.81604185  0.76372031  0.04883355  1
  C  C278  1  0.27260526  0.57396348  0.96063902  1
  C  C279  1  0.49208713  0.92647628  0.03304461  1
  C  C280  1  0.05027169  0.07174353  0.54008657  1
  C  C281  1  0.22287096  0.75644547  0.03918077  1
  C  C282  1  0.52712983  0.73661389  0.96241707  1
  C  C283  1  0.78703868  0.09046062  0.04073773  1
  C  C284  1  0.48720809  0.59386192  0.03505996  1
  C  C285  1  0.53868985  0.59084318  0.45981786  1
  C  C286  1  0.98062740  0.59299342  0.46078208  1
  C  C287  1  0.79959927  0.42530240  0.45720680  1
  C  C288  1  0.94730873  0.73848065  0.96086292  1
  C  C289  1  0.80731923  0.09315854  0.45356544  1
  C  C290  1  0.20698060  0.24324163  0.96161329  1
  C  C291  1  0.56704931  0.59703773  0.04772371  1
  C  C292  1  0.76700764  0.57198563  0.53969068  1
  C  C293  1  0.18301963  0.90383440  0.54711213  1
  C  C294  1  0.43894857  0.73981989  0.54379541  1
  C  C295  1  0.78111088  0.24153451  0.53957899  1
  C  C296  1  0.74192973  0.76235628  0.46687200  1
  C  C297  1  0.46033210  0.40545734  0.53550112  1
  C  C298  1  0.20002622  0.42657154  0.45858077  1
  C  C299  1  0.04160574  0.26024603  0.03859764  1
  C  C300  1  0.54048512  0.40578521  0.53587651  1
  C  C301  1  0.73617729  0.76028662  0.03634770  1
  C  C302  1  0.95946650  0.40632487  0.53750857  1
  C  C303  1  0.54064785  0.06669055  0.54031123  1
  C  C304  1  0.02625669  0.74464064  0.53412251  1
  C  C305  1  0.26316816  0.90692397  0.53513022  1
  C  C306  1  0.53410174  0.07415671  0.96322524  1
  C  C307  1  0.45856271  0.06808724  0.54263176  1
  C  C308  1  0.57220830  0.93005242  0.04550696  1
  C  C309  1  0.28718127  0.08963744  0.03592908  1
  C  C310  1  0.02854291  0.73994690  0.96493963  1
  C  C311  1  0.26990249  0.57209820  0.53078800  1
  N  N312  1  0.46269867  0.26123558  0.46420259  1
  N  N313  1  0.97818125  0.92897749  0.03699551  1
  N  N314  1  0.70182597  0.24033530  0.54351750  1
  N  N315  1  0.51749061  0.74251327  0.53690745  1
  N  N316  1  0.05448636  0.93002813  0.04071561  1
  N  N317  1  0.68823862  0.57002579  0.54599220  1
  N  N318  1  0.55622728  0.92979232  0.45720473  1
  N  N319  1  0.72829846  0.09037613  0.46202784  1
  N  N320  1  0.70860385  0.90484262  0.53797899  1
  N  N321  1  0.45947739  0.59153464  0.45983259  1
  N  N322  1  0.01645287  0.25933535  0.46093231  1
  N  N323  1  0.80063785  0.23908705  0.95704412  1
  N  N324  1  0.72243026  0.42336637  0.46443268  1
  N  N325  1  0.30040844  0.75830183  0.04131648  1
  N  N326  1  0.76761861  0.42591587  0.03868953  1
  N  N327  1  0.19235146  0.90093348  0.95726215  1
  N  N328  1  0.26924591  0.42442295  0.03735748  1
  N  N329  1  0.97251088  0.07381790  0.53513034  1
  N  N330  1  0.45440039  0.26002234  0.04196910  1
  N  N331  1  0.96262466  0.59524597  0.03904980  1
  N  N332  1  0.05889543  0.59381814  0.45204515  1
  N  N333  1  0.72253420  0.24190132  0.96037715  1
  N  N334  1  0.05959836  0.40406814  0.95709658  1
  N  N335  1  0.53123226  0.25927983  0.03881818  1
  N  N336  1  0.21393064  0.75846347  0.45969010  1
  N  N337  1  0.54065751  0.26190380  0.45976507  1
  N  N338  1  0.27051024  0.91289267  0.96094508  1
  N  N339  1  0.68987673  0.42741556  0.04377018  1
  N  N340  1  0.97130987  0.92511569  0.46283337  1
  N  N341  1  0.96173693  0.26063838  0.03821039  1
  N  N342  1  0.22859518  0.24392816  0.53786123  1
  N  N343  1  0.19375594  0.57319862  0.95598268  1
  N  N344  1  0.70922132  0.09059028  0.04015662  1
  N  N345  1  0.48141504  0.40827885  0.96348372  1
  N  N346  1  0.26417665  0.08668418  0.46416571  1
  N  N347  1  0.78477831  0.90529375  0.53854632  1
  N  N348  1  0.18692571  0.09901335  0.45578402  1
  N  N349  1  0.93909311  0.26252117  0.45310894  1
  N  N350  1  0.98202960  0.40695519  0.96178775  1
  N  N351  1  0.47852489  0.92840135  0.46163973  1
  N  N352  1  0.69282562  0.90660663  0.95697440  1
  N  N353  1  0.77829241  0.57429840  0.96344938  1
  N  N354  1  0.27713929  0.42468117  0.46583804  1
  N  N355  1  0.20793132  0.09117277  0.03928387  1
  N  N356  1  0.94760876  0.74264870  0.53974801  1
  N  N357  1  0.03873173  0.59459746  0.03783899  1
  N  N358  1  0.28634463  0.24294282  0.96120153  1
  N  N359  1  0.45451291  0.07351736  0.95821482  1
  N  N360  1  0.07142565  0.05569251  0.59891171  1
  N  N361  1  0.06586230  0.39086049  0.59650100  1
  N  N362  1  0.05585014  0.72693092  0.58955633  1
  N  N363  1  0.56717513  0.05324492  0.59894367  1
  N  N364  1  0.56556725  0.39074477  0.59217442  1
  N  N365  1  0.55519217  0.72374758  0.59032477  1
  N  N366  1  0.43393952  0.27664533  0.10085348  1
  N  N367  1  0.44753266  0.60879354  0.09008391  1
  N  N368  1  0.45169931  0.94155308  0.08761374  1
  N  N369  1  0.93526343  0.27576859  0.09560283  1
  N  N370  1  0.93917338  0.61175882  0.09755951  1
  N  N371  1  0.94810223  0.94371555  0.09379293  1
  N  N372  1  0.43493182  0.05585301  0.90007081  1
  N  N373  1  0.44579416  0.38838822  0.90962339  1
  N  N374  1  0.42875225  0.72140947  0.89618630  1
  N  N375  1  0.94030795  0.05586212  0.90642386  1
  N  N376  1  0.94630158  0.39310450  0.90776506  1
  N  N377  1  0.93028926  0.72106860  0.90042234  1
  N  N378  1  0.05551574  0.27727961  0.40953005  1
  N  N379  1  0.06914661  0.61084293  0.39239962  1
  N  N380  1  0.07112678  0.94394323  0.39892319  1
  N  N381  1  0.56393686  0.28032708  0.40341268  1
  N  N382  1  0.56757731  0.60851147  0.40339680  1
  N  N383  1  0.57015584  0.94465645  0.39806184  1
  N  N384  1  0.32180639  0.22554987  0.60147584  1
  N  N385  1  0.30624219  0.55751004  0.58383374  1
  N  N386  1  0.30218691  0.89213215  0.59041276  1
  N  N387  1  0.81480055  0.22498100  0.59463153  1
  N  N388  1  0.80350184  0.55678562  0.59398713  1
  N  N389  1  0.80950928  0.89006980  0.59705495  1
  N  N390  1  0.18489180  0.10956660  0.09718383  1
  N  N391  1  0.17583808  0.44292085  0.10076830  1
  N  N392  1  0.19118670  0.77386563  0.09396543  1
  N  N393  1  0.68672988  0.10977634  0.09904034  1
  N  N394  1  0.67655377  0.44404858  0.10249490  1
  N  N395  1  0.69669716  0.77529350  0.09146631  1
  N  N396  1  0.18501146  0.22495689  0.90464887  1
  N  N397  1  0.17956890  0.55639794  0.89682175  1
  N  N398  1  0.17703472  0.88870979  0.89786849  1
  N  N399  1  0.68818018  0.22366476  0.90722895  1
  N  N400  1  0.67873886  0.55615477  0.89913820  1
  N  N401  1  0.67705299  0.88896948  0.89828108  1
  N  N402  1  0.30309324  0.10955933  0.41409623  1
  N  N403  1  0.30889709  0.44297800  0.40922107  1
  N  N404  1  0.31925787  0.77568408  0.40508237  1
  N  N405  1  0.81920465  0.11080175  0.39464268  1
  N  N406  1  0.81826444  0.44301299  0.39873141  1
  N  N407  1  0.82819703  0.78068820  0.39283031  1
  N  N408  1  0.43694925  0.27767457  0.40774669  1
  N  N409  1  0.43946604  0.60961697  0.40204951  1
  N  N410  1  0.44348960  0.94060060  0.40693289  1
  N  N411  1  0.92996846  0.27887725  0.39411759  1
  N  N412  1  0.94263219  0.60911380  0.40747399  1
  N  N413  1  0.94347151  0.94170336  0.40601920  1
  N  N414  1  0.07005194  0.05581235  0.89905379  1
  N  N415  1  0.07270779  0.38797654  0.89808203  1
  N  N416  1  0.05971873  0.72397354  0.91018631  1
  N  N417  1  0.56368570  0.05806126  0.90721974  1
  N  N418  1  0.57415689  0.39052366  0.89917375  1
  N  N419  1  0.55845160  0.72249637  0.90519429  1
  N  N420  1  0.06426706  0.27627988  0.09643750  1
  N  N421  1  0.06586298  0.61099337  0.09550200  1
  N  N422  1  0.07426619  0.94527019  0.10037336  1
  N  N423  1  0.56031656  0.27593985  0.09551445  1
  N  N424  1  0.57567865  0.61287163  0.10725365  1
  N  N425  1  0.57995085  0.94615773  0.10543345  1
  N  N426  1  0.43686316  0.05509230  0.60250937  1
  N  N427  1  0.43446265  0.39040398  0.59152262  1
  N  N428  1  0.42717936  0.72163510  0.60254037  1
  N  N429  1  0.94367091  0.05741003  0.59335995  1
  N  N430  1  0.93577625  0.39008516  0.59639671  1
  N  N431  1  0.92788575  0.72378906  0.59820655  1
  N  N432  1  0.17764926  0.11011028  0.39550424  1
  N  N433  1  0.18134770  0.44434566  0.40008888  1
  N  N434  1  0.19033086  0.77771491  0.40302149  1
  N  N435  1  0.69141025  0.11180299  0.40958897  1
  N  N436  1  0.69066779  0.44110418  0.40764414  1
  N  N437  1  0.70066785  0.77640812  0.41251881  1
  N  N438  1  0.31401611  0.22383338  0.90456136  1
  N  N439  1  0.30723818  0.55786414  0.90569801  1
  N  N440  1  0.30399938  0.88829970  0.90961590  1
  N  N441  1  0.81485939  0.22195937  0.89865613  1
  N  N442  1  0.80631077  0.55805951  0.90651800  1
  N  N443  1  0.80520996  0.89136079  0.90943052  1
  N  N444  1  0.31349630  0.10686417  0.09242979  1
  N  N445  1  0.30445900  0.44358210  0.09150774  1
  N  N446  1  0.31905067  0.77742348  0.10099142  1
  N  N447  1  0.81488615  0.10878650  0.09671950  1
  N  N448  1  0.80295496  0.44494874  0.09118154  1
  N  N449  1  0.82504078  0.77967980  0.10824400  1
  N  N450  1  0.19334988  0.22305990  0.59145329  1
  N  N451  1  0.17809093  0.55458627  0.60141482  1
  N  N452  1  0.17386640  0.88831278  0.60667798  1
  N  N453  1  0.68727978  0.22309405  0.60295128  1
  N  N454  1  0.67659234  0.55290462  0.60562608  1
  N  N455  1  0.68279291  0.88945514  0.59623150  1
  Cl  Cl456  1  0.25400801  0.06406503  0.60977232  1
  Cl  Cl457  1  0.24879381  0.37994460  0.62613496  1
  Cl  Cl458  1  0.23988533  0.72319239  0.60801774  1
  Cl  Cl459  1  0.75373299  0.06148178  0.60630929  1
  Cl  Cl460  1  0.75226425  0.38351940  0.62719752  1
  Cl  Cl461  1  0.74047010  0.72223204  0.61327491  1
  Cl  Cl462  1  0.25046068  0.27984054  0.11739577  1
  Cl  Cl463  1  0.25672163  0.61072584  0.10809251  1
  Cl  Cl464  1  0.26237049  0.94068413  0.10451731  1
  Cl  Cl465  1  0.74637016  0.27565307  0.10703618  1
  Cl  Cl466  1  0.75707108  0.61562427  0.12577049  1
  Cl  Cl467  1  0.76559276  0.94571108  0.11147571  1
  Cl  Cl468  1  0.25263597  0.05406534  0.88125880  1
  Cl  Cl469  1  0.26227781  0.38876350  0.89603889  1
  Cl  Cl470  1  0.24304529  0.72078188  0.87570302  1
  Cl  Cl471  1  0.74996095  0.05171921  0.87723135  1
  Cl  Cl472  1  0.76352309  0.39112034  0.89549825  1
  Cl  Cl473  1  0.74193733  0.72162936  0.88123239  1
  Cl  Cl474  1  0.24101234  0.27259446  0.39634918  1
  Cl  Cl475  1  0.25537101  0.61642104  0.37600185  1
  Cl  Cl476  1  0.26066848  0.94715348  0.38148434  1
  Cl  Cl477  1  0.74649661  0.28050761  0.37811118  1
  Cl  Cl478  1  0.75780051  0.61083181  0.39269946  1
  Cl  Cl479  1  0.75511250  0.94991069  0.37860759  1
  Cl  Cl480  1  0.00836833  0.22640878  0.60498890  1
  Cl  Cl481  1  -0.01275277  0.55866754  0.61218920  1
  Cl  Cl482  1  -0.00720243  0.88288740  0.61961212  1
  Cl  Cl483  1  0.50429430  0.22235519  0.61822156  1
  Cl  Cl484  1  0.48982852  0.55336655  0.61572728  1
  Cl  Cl485  1  0.49076166  0.88715252  0.60635354  1
  Cl  Cl486  1  0.00064653  0.11598629  0.11227077  1
  Cl  Cl487  1  -0.01423065  0.43968393  0.10675978  1
  Cl  Cl488  1  0.00836728  0.78149772  0.12146912  1
  Cl  Cl489  1  0.49843802  0.10902001  0.11523910  1
  Cl  Cl490  1  0.48746961  0.44081571  0.10741253  1
  Cl  Cl491  1  0.50783611  0.77779427  0.11950809  1
  Cl  Cl492  1  -0.00027843  0.22117683  0.88392643  1
  Cl  Cl493  1  -0.00815027  0.55134621  0.87825278  1
  Cl  Cl494  1  -0.00670387  0.88398100  0.88353444  1
  Cl  Cl495  1  0.50206676  0.21977739  0.88406247  1
  Cl  Cl496  1  0.49159354  0.54989807  0.88390385  1
  Cl  Cl497  1  0.48778672  0.89266259  0.87994326  1
  Cl  Cl498  1  0.00025765  0.11994983  0.37727830  1
  Cl  Cl499  1  -0.00013133  0.44736332  0.37668884  1
  Cl  Cl500  1  0.00991826  0.77627761  0.38748294  1
  Cl  Cl501  1  0.49711441  0.10618862  0.39036375  1
  Cl  Cl502  1  0.49984461  0.44401548  0.38072598  1
  Cl  Cl503  1  0.51121644  0.77631353  0.39450539  1
  Cl  Cl504  1  0.36326182  0.14544461  0.74751042  1
  Cl  Cl505  1  0.35359705  0.48159874  0.74914113  1
  Cl  Cl506  1  0.35710597  0.81336968  0.74992592  1
  Cl  Cl507  1  0.85787313  0.14682912  0.75258304  1
  Cl  Cl508  1  0.85904025  0.47981843  0.75170906  1
  Cl  Cl509  1  0.85562068  0.81421028  0.74985647  1
  Cl  Cl510  1  0.13757780  0.18818750  0.25185966  1
  Cl  Cl511  1  0.13692161  0.52121804  0.24993424  1
  Cl  Cl512  1  0.14026192  0.85491711  0.25364204  1
  Cl  Cl513  1  0.64115311  0.18494277  0.24846164  1
  Cl  Cl514  1  0.63687476  0.52251178  0.24378842  1
  Cl  Cl515  1  0.64104063  0.85525104  0.25013740  1
  Cl  Cl516  1  0.14277751  0.14637315  0.75426267  1
  Cl  Cl517  1  0.13367434  0.47755857  0.74881382  1
  Cl  Cl518  1  0.13597027  0.81279356  0.74821593  1
  Cl  Cl519  1  0.63641155  0.14554343  0.74431934  1
  Cl  Cl520  1  0.63975994  0.47747368  0.75326394  1
  Cl  Cl521  1  0.63382675  0.81342554  0.75429826  1
  Cl  Cl522  1  0.35463705  0.18642528  0.25090371  1
  Cl  Cl523  1  0.35844535  0.51802992  0.24835429  1
  Cl  Cl524  1  0.35853095  0.85287505  0.24947449  1
  Cl  Cl525  1  0.86398085  0.18863259  0.25304163  1
  Cl  Cl526  1  0.85807543  0.52128467  0.25316590  1
  Cl  Cl527  1  0.86237941  0.85461073  0.25167889  1
  Cl  Cl528  1  0.10892180  0.31030053  0.75557338  1
  Cl  Cl529  1  0.10794191  0.64614680  0.74806072  1
  Cl  Cl530  1  0.11322659  0.97696177  0.75033988  1
  Cl  Cl531  1  0.61232420  0.31331898  0.75355859  1
  Cl  Cl532  1  0.60786520  0.64543354  0.74778506  1
  Cl  Cl533  1  0.60574912  0.97973114  0.75112796  1
  Cl  Cl534  1  0.38939284  0.01973829  0.24662009  1
  Cl  Cl535  1  0.38950549  0.35170419  0.25023256  1
  Cl  Cl536  1  0.38956002  0.68756072  0.25093586  1
  Cl  Cl537  1  0.89364299  0.02048346  0.25162768  1
  Cl  Cl538  1  0.88670642  0.35382444  0.25186921  1
  Cl  Cl539  1  0.89048665  0.68909434  0.25227356  1
  Cl  Cl540  1  0.38947294  0.31424104  0.75201591  1
  Cl  Cl541  1  0.39036435  0.64652481  0.75004695  1
  Cl  Cl542  1  0.38470352  0.98037278  0.74836290  1
  Cl  Cl543  1  0.89218937  0.31064560  0.75086025  1
  Cl  Cl544  1  0.88616844  0.64852381  0.74924139  1
  Cl  Cl545  1  0.89128682  0.98284761  0.74796535  1
  Cl  Cl546  1  0.11368576  0.02260783  0.25050995  1
  Cl  Cl547  1  0.10622421  0.35419456  0.24540680  1
  Cl  Cl548  1  0.11298850  0.68876087  0.25588420  1
  Cl  Cl549  1  0.60998442  0.02133114  0.24837006  1
  Cl  Cl550  1  0.61009998  0.35330835  0.24752324  1
  Cl  Cl551  1  0.61060122  0.68842860  0.24867013  1
