# generated using pymatgen
data_H8PbC4(N3Cl2)2
_symmetry_space_group_name_H-M   'P 1'
_cell_length_a   16.62581602
_cell_length_b   22.51613441
_cell_length_c   21.59460745
_cell_angle_alpha   90.00061940
_cell_angle_beta   89.99937117
_cell_angle_gamma   89.99820871
_symmetry_Int_Tables_number   1
_chemical_formula_structural   H8PbC4(N3Cl2)2
_chemical_formula_sum   'H192 Pb24 C96 N144 Cl96'
_cell_volume   8083.92203377
_cell_formula_units_Z   24
loop_
 _symmetry_equiv_pos_site_id
 _symmetry_equiv_pos_as_xyz
  1  'x, y, z'
loop_
 _atom_site_type_symbol
 _atom_site_label
 _atom_site_symmetry_multiplicity
 _atom_site_fract_x
 _atom_site_fract_y
 _atom_site_fract_z
 _atom_site_occupancy
  H  H0  1  -0.00496142  0.03069178  0.67978138  1
  H  H1  1  0.00007617  0.36294546  0.68093080  1
  H  H2  1  0.00795443  0.69793612  0.68020705  1
  H  H3  1  0.50670813  0.02750319  0.68182959  1
  H  H4  1  0.50339149  0.35988923  0.67670305  1
  H  H5  1  0.49637070  0.69537539  0.68025721  1
  H  H6  1  0.00535815  0.30290103  0.17710365  1
  H  H7  1  0.00546038  0.63863834  0.17908288  1
  H  H8  1  -0.00368395  0.97328234  0.17464052  1
  H  H9  1  0.49532976  0.30414235  0.18102893  1
  H  H10  1  0.50951888  0.63973964  0.17914687  1
  H  H11  1  0.49168609  0.96987208  0.17925313  1
  H  H12  1  -0.00618664  0.02938469  0.81949320  1
  H  H13  1  0.00252763  0.35641999  0.82538458  1
  H  H14  1  0.00922540  0.69697463  0.82663181  1
  H  H15  1  0.49857467  0.02977449  0.82582772  1
  H  H16  1  0.50531934  0.36194909  0.81985830  1
  H  H17  1  0.49815544  0.69561542  0.82040185  1
  H  H18  1  -0.00226374  0.30498685  0.31803265  1
  H  H19  1  -0.01300109  0.63685567  0.31925550  1
  H  H20  1  0.00608761  0.97149259  0.31914474  1
  H  H21  1  0.50579237  0.30744395  0.32759972  1
  H  H22  1  0.49579684  0.63869418  0.31891939  1
  H  H23  1  0.49797917  0.96735833  0.32082579  1
  H  H24  1  0.23676442  0.19847258  0.67546908  1
  H  H25  1  0.25727267  0.52919238  0.67798645  1
  H  H26  1  0.24108024  0.86247201  0.67629648  1
  H  H27  1  0.74814360  0.19644987  0.68105410  1
  H  H28  1  0.74067843  0.52417645  0.67625949  1
  H  H29  1  0.75638243  0.85880502  0.67538444  1
  H  H30  1  0.24007483  0.13510764  0.17631888  1
  H  H31  1  0.23813013  0.46729260  0.18152163  1
  H  H32  1  0.24593273  0.80560246  0.17836402  1
  H  H33  1  0.76055849  0.13489117  0.17724341  1
  H  H34  1  0.74545443  0.47060562  0.17780043  1
  H  H35  1  0.74888988  0.80440514  0.17865136  1
  H  H36  1  0.26210088  0.20079952  0.81849222  1
  H  H37  1  0.24297667  0.53287416  0.81824957  1
  H  H38  1  0.25453732  0.86115022  0.82451350  1
  H  H39  1  0.73654679  0.19799562  0.82037325  1
  H  H40  1  0.74863350  0.53129938  0.81777620  1
  H  H41  1  0.75338645  0.86262026  0.82494326  1
  H  H42  1  0.26569922  0.13985654  0.32428320  1
  H  H43  1  0.24809226  0.47284854  0.31954061  1
  H  H44  1  0.24315657  0.80252563  0.31889820  1
  H  H45  1  0.73756727  0.13354763  0.31913370  1
  H  H46  1  0.75573006  0.47185715  0.32398130  1
  H  H47  1  0.74755143  0.80605500  0.31878653  1
  H  H48  1  0.12865509  0.05491979  0.61978129  1
  H  H49  1  0.12430911  0.38673921  0.61079848  1
  H  H50  1  0.11262058  0.72330750  0.59695746  1
  H  H51  1  0.62942465  0.05245702  0.61107509  1
  H  H52  1  0.62160564  0.38832504  0.60217701  1
  H  H53  1  0.61218182  0.72423600  0.60279231  1
  H  H54  1  0.37265150  0.27729320  0.10899867  1
  H  H55  1  0.37249842  0.61783419  0.12225508  1
  H  H56  1  0.38595853  0.94230901  0.09752679  1
  H  H57  1  0.87175969  0.28078148  0.11667713  1
  H  H58  1  0.86851789  0.61258472  0.12409334  1
  H  H59  1  0.88385085  0.94272844  0.09647634  1
  H  H60  1  0.38313424  0.05624165  0.90245708  1
  H  H61  1  0.36989015  0.38464435  0.87585357  1
  H  H62  1  0.37196595  0.72056055  0.88745205  1
  H  H63  1  0.88037576  0.05514370  0.89973826  1
  H  H64  1  0.86776380  0.38640639  0.88164492  1
  H  H65  1  0.87022292  0.71836414  0.88062489  1
  H  H66  1  0.12154031  0.27921454  0.38953580  1
  H  H67  1  0.12417692  0.61653399  0.37860402  1
  H  H68  1  0.11594605  0.94319343  0.39868694  1
  H  H69  1  0.61930035  0.27628372  0.40350415  1
  H  H70  1  0.62948725  0.61355217  0.37986707  1
  H  H71  1  0.61850142  0.94353128  0.39405817  1
  H  H72  1  0.37733694  0.21868082  0.62267078  1
  H  H73  1  0.36748426  0.55612389  0.59788309  1
  H  H74  1  0.38076963  0.88054592  0.62188462  1
  H  H75  1  0.87731976  0.21773223  0.61107577  1
  H  H76  1  0.86404933  0.55480149  0.60760565  1
  H  H77  1  0.87840215  0.88989241  0.60654430  1
  H  H78  1  0.12028194  0.10868488  0.10260254  1
  H  H79  1  0.13427409  0.44022236  0.09428353  1
  H  H80  1  0.13177104  0.77629562  0.10152899  1
  H  H81  1  0.61880509  0.11575640  0.12750843  1
  H  H82  1  0.63647592  0.44187610  0.09588610  1
  H  H83  1  0.63650785  0.77622161  0.09921493  1
  H  H84  1  0.12451992  0.21753409  0.87497377  1
  H  H85  1  0.13512557  0.55908768  0.89986567  1
  H  H86  1  0.11854397  0.88350060  0.88268938  1
  H  H87  1  0.63217236  0.22234129  0.90524350  1
  H  H88  1  0.63506391  0.55807179  0.89474047  1
  H  H89  1  0.61788120  0.88582494  0.88310446  1
  H  H90  1  0.36665002  0.10884868  0.41121672  1
  H  H91  1  0.37740132  0.44735759  0.38617914  1
  H  H92  1  0.38462810  0.78723415  0.37100524  1
  H  H93  1  0.87547862  0.11653592  0.37544124  1
  H  H94  1  0.87623404  0.44418459  0.39614349  1
  H  H95  1  0.87900155  0.78067182  0.38352682  1
  H  H96  1  0.37174593  0.28172862  0.38642374  1
  H  H97  1  0.38136621  0.61193205  0.39674322  1
  H  H98  1  0.36983051  0.94393401  0.38853243  1
  H  H99  1  0.87231727  0.28011420  0.38766140  1
  H  H100  1  0.87689763  0.60806006  0.39957096  1
  H  H101  1  0.86927106  0.95291925  0.37488929  1
  H  H102  1  0.12725626  0.05279687  0.88201942  1
  H  H103  1  0.11349795  0.38695112  0.90639820  1
  H  H104  1  0.11575123  0.72918484  0.90705384  1
  H  H105  1  0.63129196  0.05116566  0.88799621  1
  H  H106  1  0.61651161  0.39193604  0.90030840  1
  H  H107  1  0.62150193  0.72188955  0.88892536  1
  H  H108  1  0.11935182  0.27508248  0.09786097  1
  H  H109  1  0.11535407  0.61122878  0.09738936  1
  H  H110  1  0.13137929  0.94863456  0.11733279  1
  H  H111  1  0.62239986  0.27961587  0.11462868  1
  H  H112  1  0.61754995  0.60903165  0.09692433  1
  H  H113  1  0.63225532  0.95044547  0.12676696  1
  H  H114  1  0.37992189  0.05547675  0.61415354  1
  H  H115  1  0.37330977  0.38678544  0.61224714  1
  H  H116  1  0.36391554  0.71684514  0.61758987  1
  H  H117  1  0.88128289  0.05533474  0.59908800  1
  H  H118  1  0.87498847  0.38801081  0.61012404  1
  H  H119  1  0.86768126  0.71534682  0.62921767  1
  H  H120  1  0.12320664  0.11812321  0.37092923  1
  H  H121  1  0.12931823  0.44545725  0.39504697  1
  H  H122  1  0.13911137  0.77486708  0.40157321  1
  H  H123  1  0.62875889  0.11270703  0.40074885  1
  H  H124  1  0.62756085  0.44445837  0.38930607  1
  H  H125  1  0.63106925  0.77880687  0.39671154  1
  H  H126  1  0.37168798  0.22093811  0.90029430  1
  H  H127  1  0.38122151  0.55027065  0.87216855  1
  H  H128  1  0.36509342  0.89290462  0.90238089  1
  H  H129  1  0.87693774  0.21395930  0.87073791  1
  H  H130  1  0.88311204  0.55069416  0.87669563  1
  H  H131  1  0.86460389  0.89142153  0.90359352  1
  H  H132  1  0.36846987  0.11460409  0.10964268  1
  H  H133  1  0.37785601  0.45078717  0.12667506  1
  H  H134  1  0.37951732  0.78258059  0.11660970  1
  H  H135  1  0.86232105  0.10573242  0.08996827  1
  H  H136  1  0.88244777  0.44556950  0.12328670  1
  H  H137  1  0.88403119  0.78395336  0.11885850  1
  H  H138  1  0.13215525  0.22769168  0.59112149  1
  H  H139  1  0.12121822  0.54852515  0.62300226  1
  H  H140  1  0.13620062  0.89424737  0.59383324  1
  H  H141  1  0.62885480  0.22256393  0.60575049  1
  H  H142  1  0.61553307  0.55290240  0.60666441  1
  H  H143  1  0.62965375  0.88555628  0.60846847  1
  H  H144  1  0.70936113  0.41594561  -0.00503946  1
  H  H145  1  0.86507046  0.24204949  0.98640860  1
  H  H146  1  0.69652044  0.58573210  1.00318972  1
  H  H147  1  0.59909334  0.08143945  0.99629301  1
  H  H148  1  0.36260958  0.57844782  -0.01353240  1
  H  H149  1  0.41342951  0.75115164  0.99776685  1
  H  H150  1  0.28576762  0.08987791  0.50974264  1
  H  H151  1  0.14465740  0.91372551  0.99152229  1
  H  H152  1  0.04230577  0.75075228  0.49215148  1
  H  H153  1  0.67523965  0.91632878  0.50332461  1
  H  H154  1  0.21269595  0.90923648  0.49272578  1
  H  H155  1  0.05016743  0.91705640  0.50576249  1
  H  H156  1  0.66486300  0.58208726  0.50337438  1
  H  H157  1  0.42670182  0.25702379  0.00250220  1
  H  H158  1  0.57647062  0.75329712  0.99860318  1
  H  H159  1  0.54798266  0.41592818  1.00204937  1
  H  H160  1  0.04279749  0.58387574  -0.00381440  1
  H  H161  1  0.42764045  0.07285454  0.50537393  1
  H  H162  1  0.64284598  0.91542416  0.99321512  1
  H  H163  1  0.21385992  0.41325330  -0.00337146  1
  H  H164  1  0.94498265  0.57961043  0.50392415  1
  H  H165  1  0.21248390  0.74455276  0.50630637  1
  H  H166  1  0.07503488  0.41614917  0.50179254  1
  H  H167  1  0.32338009  0.07207765  0.01085198  1
  H  H168  1  0.44468757  0.58090251  0.50194733  1
  H  H169  1  0.39502981  0.41976855  0.98767432  1
  H  H170  1  0.95033011  0.91534887  -0.00540135  1
  H  H171  1  0.39571643  0.74855656  0.50592665  1
  H  H172  1  0.17440715  0.09468965  -0.00116190  1
  H  H173  1  0.69634198  0.09051041  0.50974928  1
  H  H174  1  0.13330655  0.08683510  0.48562066  1
  H  H175  1  0.88214347  0.74374003  0.51457308  1
  H  H176  1  0.04035003  0.41523084  1.00626750  1
  H  H177  1  0.35944927  0.91626945  0.51590601  1
  H  H178  1  0.92007834  0.24842094  0.49534868  1
  H  H179  1  0.41623444  0.41743355  0.50713557  1
  H  H180  1  0.85770298  0.57872169  0.99029948  1
  H  H181  1  0.40427953  0.25143390  0.49438915  1
  H  H182  1  0.54246146  0.58670229  -0.00424775  1
  H  H183  1  0.88857025  0.92513875  0.48853997  1
  H  H184  1  0.30403232  0.24390500  1.00906295  1
  H  H185  1  0.89128470  0.75009265  0.99003928  1
  H  H186  1  0.45688824  0.91171631  -0.00730302  1
  H  H187  1  0.57933385  0.24695025  0.00409547  1
  H  H188  1  0.57927889  0.08291987  0.50136551  1
  H  H189  1  0.70582803  0.24862942  1.00996427  1
  H  H190  1  0.20348750  0.58631039  1.00578609  1
  H  H191  1  0.14305246  0.57973520  0.50857431  1
  Pb  Pb192  1  0.25496013  0.05055904  0.75341256  1
  Pb  Pb193  1  0.24631182  0.38065212  0.75678767  1
  Pb  Pb194  1  0.24799651  0.71396739  0.75084067  1
  Pb  Pb195  1  0.75130221  0.04583365  0.74837562  1
  Pb  Pb196  1  0.75351769  0.38282007  0.75389265  1
  Pb  Pb197  1  0.74634150  0.71527948  0.74995837  1
  Pb  Pb198  1  0.24553619  0.28356257  0.24718419  1
  Pb  Pb199  1  0.25132120  0.62070934  0.24839766  1
  Pb  Pb200  1  0.24585874  0.94971590  0.25088188  1
  Pb  Pb201  1  0.74797118  0.28574391  0.25267265  1
  Pb  Pb202  1  0.74604542  0.61563880  0.25005410  1
  Pb  Pb203  1  0.75252841  0.95432355  0.24916147  1
  Pb  Pb204  1  0.00036047  0.21278167  0.73956023  1
  Pb  Pb205  1  0.00281042  0.55060244  0.75507362  1
  Pb  Pb206  1  0.00121027  0.88128069  0.74924263  1
  Pb  Pb207  1  0.50545587  0.21726276  0.75693821  1
  Pb  Pb208  1  0.50036932  0.54761862  0.74914853  1
  Pb  Pb209  1  0.49993555  0.88017285  0.75124994  1
  Pb  Pb210  1  -0.00208990  0.12127304  0.23918486  1
  Pb  Pb211  1  0.00268945  0.45251663  0.24808810  1
  Pb  Pb212  1  -0.00195006  0.78319525  0.24881653  1
  Pb  Pb213  1  0.49628535  0.11676050  0.25839505  1
  Pb  Pb214  1  0.49847030  0.45007471  0.24647758  1
  Pb  Pb215  1  0.50581331  0.78740799  0.24643275  1
  C  C216  1  0.00144755  0.04640195  0.63269383  1
  C  C217  1  -0.00031562  0.37894916  0.63360459  1
  C  C218  1  -0.00467942  0.71217607  0.63310882  1
  C  C219  1  0.50455369  0.04361372  0.63441325  1
  C  C220  1  0.49904371  0.37738644  0.63007756  1
  C  C221  1  0.49071056  0.71175021  0.63329896  1
  C  C222  1  -0.00087602  0.28656452  0.13026910  1
  C  C223  1  -0.00328143  0.62209733  0.13237844  1
  C  C224  1  0.00347895  0.95601452  0.12803606  1
  C  C225  1  0.49619225  0.28785206  0.13357364  1
  C  C226  1  0.50006012  0.62356172  0.13242409  1
  C  C227  1  0.50326446  0.95452842  0.13242958  1
  C  C228  1  0.00059106  0.04531269  0.86662002  1
  C  C229  1  -0.00522778  0.37566267  0.87101894  1
  C  C230  1  -0.00218563  0.71367431  0.87286777  1
  C  C231  1  0.50478410  0.04601284  0.87284737  1
  C  C232  1  0.49726697  0.37800870  0.86695316  1
  C  C233  1  0.49707335  0.71253736  0.86755283  1
  C  C234  1  -0.00280162  0.28854735  0.36520482  1
  C  C235  1  -0.00361235  0.62088678  0.36618391  1
  C  C236  1  -0.00335122  0.95628062  0.36635531  1
  C  C237  1  0.49847396  0.28936772  0.37377565  1
  C  C238  1  0.50245636  0.62177658  0.36570268  1
  C  C239  1  0.49499422  0.95246259  0.36830919  1
  C  C240  1  0.24921161  0.21472942  0.62939153  1
  C  C241  1  0.24777135  0.54433239  0.63095863  1
  C  C242  1  0.25293761  0.87833670  0.62952867  1
  C  C243  1  0.75166622  0.21157799  0.63336829  1
  C  C244  1  0.73959910  0.54272930  0.62994168  1
  C  C245  1  0.75432435  0.87691115  0.62891031  1
  C  C246  1  0.24302980  0.11980161  0.12856989  1
  C  C247  1  0.25005181  0.45290626  0.13445455  1
  C  C248  1  0.25279966  0.78897903  0.13177349  1
  C  C249  1  0.74727386  0.11932880  0.13095650  1
  C  C250  1  0.75483297  0.45449879  0.13110268  1
  C  C251  1  0.75641860  0.78837478  0.13183416  1
  C  C252  1  0.25282918  0.21288689  0.86649437  1
  C  C253  1  0.25373495  0.54660940  0.86575649  1
  C  C254  1  0.24544751  0.87796774  0.87098745  1
  C  C255  1  0.74910538  0.21144102  0.86773399  1
  C  C256  1  0.75613676  0.54634617  0.86520982  1
  C  C257  1  0.74457743  0.87886311  0.87165147  1
  C  C258  1  0.25178305  0.12357960  0.37051622  1
  C  C259  1  0.25162019  0.45655123  0.36675809  1
  C  C260  1  0.25554172  0.78835843  0.36595524  1
  C  C261  1  0.74712836  0.12100602  0.36697131  1
  C  C262  1  0.75294911  0.45426640  0.37043248  1
  C  C263  1  0.75264424  0.78949064  0.36585034  1
  C  C264  1  0.76960458  0.91079615  0.96710540  1
  C  C265  1  0.54333496  0.07307950  0.54202082  1
  C  C266  1  0.01250996  0.73892974  0.53533760  1
  C  C267  1  0.19064245  0.57051248  0.54209623  1
  C  C268  1  0.31456401  0.56980230  0.95343622  1
  C  C269  1  0.06012806  0.92583121  0.04067105  1
  C  C270  1  0.19302660  0.23399987  0.95501724  1
  C  C271  1  0.27148269  0.57304188  0.53497254  1
  C  C272  1  0.23352978  0.57360971  0.96303479  1
  C  C273  1  0.23429982  0.24708265  0.53435172  1
  C  C274  1  0.44290336  0.73857392  0.54332395  1
  C  C275  1  0.68504873  0.09363871  0.04611099  1
  C  C276  1  0.94893095  0.25731772  0.04180970  1
  C  C277  1  0.80788788  0.76210319  0.04276703  1
  C  C278  1  0.93754137  0.93292506  0.45503612  1
  C  C279  1  0.27044471  0.91148625  0.96599410  1
  C  C280  1  0.52892509  0.92557996  0.46253960  1
  C  C281  1  0.52706361  0.25457701  0.46755554  1
  C  C282  1  0.03640181  0.40601104  0.54099886  1
  C  C283  1  0.80677095  0.10002166  0.45525292  1
  C  C284  1  0.44004894  0.40918612  0.95283623  1
  C  C285  1  0.73357494  0.23715016  0.96601402  1
  C  C286  1  0.48686728  0.92511539  0.03524885  1
  C  C287  1  0.72939430  0.57377295  0.96138138  1
  C  C288  1  0.45446952  0.74066493  0.96015549  1
  C  C289  1  0.53669990  0.74147347  0.96065007  1
  C  C290  1  0.79424412  0.91070893  0.53709711  1
  C  C291  1  0.54052530  0.25798342  0.04291311  1
  C  C292  1  0.93172404  0.73568282  0.54662443  1
  C  C293  1  0.81529204  0.42317481  0.04513096  1
  C  C294  1  0.27352685  0.23524211  0.96536253  1
  C  C295  1  0.01894698  0.92886418  0.46326463  1
  C  C296  1  0.72670454  0.09883328  0.46593038  1
  C  C297  1  0.32091238  0.76324280  0.45115973  1
  C  C298  1  0.56720813  0.92898977  0.04664448  1
  C  C299  1  0.01805376  0.74811126  0.96811461  1
  C  C300  1  0.24107818  0.75849764  0.46336333  1
  C  C301  1  0.78538571  0.42122049  0.46201858  1
  C  C302  1  0.81420832  0.23388258  0.95417204  1
  C  C303  1  0.18407092  0.09503043  0.45301792  1
  C  C304  1  0.93721856  0.59084352  0.04666928  1
  C  C305  1  0.81106632  0.57067308  0.95503776  1
  C  C306  1  0.97591392  0.59176480  0.46126110  1
  C  C307  1  0.22688442  0.75575997  0.03855189  1
  C  C308  1  0.05173065  0.07327764  0.54343050  1
  C  C309  1  0.47436306  0.07520078  0.96863574  1
  C  C310  1  0.47764362  0.59221408  0.46002500  1
  C  C311  1  0.95957953  0.25992576  0.45707356  1
  N  N312  1  0.94033971  0.74290172  0.95830142  1
  N  N313  1  0.44024637  0.59435949  0.04699118  1
  N  N314  1  0.51899144  0.41146179  0.96004429  1
  N  N315  1  0.97502714  0.07703900  0.96108116  1
  N  N316  1  0.72382094  0.75852633  0.45990402  1
  N  N317  1  0.28758063  0.10011238  0.03624446  1
  N  N318  1  0.71500553  0.90880613  0.53872501  1
  N  N319  1  0.01455375  0.40962362  0.96291633  1
  N  N320  1  0.22000308  0.42678734  0.46095602  1
  N  N321  1  0.79963971  0.75913264  0.45537228  1
  N  N322  1  0.20864375  0.08713973  0.03771606  1
  N  N323  1  0.30419823  0.75849778  0.04201403  1
  N  N324  1  0.46365454  0.07363372  0.54384018  1
  N  N325  1  0.19238641  0.90684241  0.95833666  1
  N  N326  1  0.05451510  0.59448839  0.45430564  1
  N  N327  1  0.69149231  0.90720557  0.95934698  1
  N  N328  1  0.23625693  0.91330470  0.53673557  1
  N  N329  1  0.55667319  0.59249310  0.45474442  1
  N  N330  1  0.73720148  0.42349962  0.03683041  1
  N  N331  1  0.78115243  0.57508827  0.53894210  1
  N  N332  1  0.01535629  0.59021577  0.03849783  1
  N  N333  1  0.03887414  0.25975295  0.45830866  1
  N  N334  1  0.45104421  0.92684613  0.46186714  1
  N  N335  1  0.45617955  0.40861050  0.54218173  1
  N  N336  1  0.53414753  0.40874619  0.53707893  1
  N  N337  1  0.70273051  0.57464786  0.54044516  1
  N  N338  1  0.52171379  0.74160104  0.53797584  1
  N  N339  1  0.05113362  0.07693478  0.95502502  1
  N  N340  1  0.95710271  0.40691811  0.54047402  1
  N  N341  1  0.46080669  0.25735417  0.04192468  1
  N  N342  1  0.70797006  0.42117963  0.46111357  1
  N  N343  1  0.44852301  0.25780846  0.46098679  1
  N  N344  1  0.71869066  0.23946468  0.53886473  1
  N  N345  1  0.26214211  0.09154443  0.46552480  1
  N  N346  1  0.93704370  0.40990580  0.95579471  1
  N  N347  1  0.98149532  0.92384332  0.03463919  1
  N  N348  1  0.23757358  0.42820057  0.03855983  1
  N  N349  1  0.31086742  0.24335428  0.54316040  1
  N  N350  1  0.31428077  0.43146068  0.04815120  1
  N  N351  1  0.29658526  0.42795143  0.45806169  1
  N  N352  1  0.79499817  0.23833183  0.54094359  1
  N  N353  1  0.73082487  0.75862764  0.03531122  1
  N  N354  1  0.51748161  0.59126831  0.03936993  1
  N  N355  1  0.02587343  0.25571709  0.03416836  1
  N  N356  1  0.76074656  0.08985428  0.03295093  1
  N  N357  1  0.97486861  0.07368446  0.53535437  1
  N  N358  1  0.55292123  0.07343426  0.96229360  1
  N  N359  1  0.31326698  0.89945934  0.54351621  1
  N  N360  1  0.07080538  0.05726775  0.60246062  1
  N  N361  1  0.06419802  0.38950658  0.59797131  1
  N  N362  1  0.05063405  0.72412776  0.58962672  1
  N  N363  1  0.56898082  0.05618401  0.59857506  1
  N  N364  1  0.56037014  0.39002493  0.59251005  1
  N  N365  1  0.54993943  0.72477723  0.59451427  1
  N  N366  1  0.43357688  0.27899588  0.09696156  1
  N  N367  1  0.42987248  0.61266268  0.10529528  1
  N  N368  1  0.44788602  0.94155772  0.08991472  1
  N  N369  1  0.92975433  0.27564409  0.10001683  1
  N  N370  1  0.92525646  0.60925211  0.10517901  1
  N  N371  1  0.94581512  0.94444364  0.08793119  1
  N  N372  1  0.44421846  0.05854572  0.91300738  1
  N  N373  1  0.42630769  0.38966971  0.89473506  1
  N  N374  1  0.43129364  0.72297090  0.90200602  1
  N  N375  1  0.94229468  0.05749585  0.90662303  1
  N  N376  1  0.92552646  0.39042554  0.89779004  1
  N  N377  1  0.92736164  0.72092531  0.89983018  1
  N  N378  1  0.06051739  0.27757724  0.40078268  1
  N  N379  1  0.06569444  0.61240321  0.39485125  1
  N  N380  1  0.05438735  0.94341483  0.40762518  1
  N  N381  1  0.55830804  0.27369165  0.41363614  1
  N  N382  1  0.57034546  0.61096174  0.39548655  1
  N  N383  1  0.55774645  0.94147293  0.40617470  1
  N  N384  1  0.32023571  0.22345451  0.60380995  1
  N  N385  1  0.30582735  0.55733894  0.58859794  1
  N  N386  1  0.32391719  0.88757835  0.60368324  1
  N  N387  1  0.81674216  0.22073101  0.59947577  1
  N  N388  1  0.80334382  0.55654983  0.59545664  1
  N  N389  1  0.81865634  0.89177946  0.59332552  1
  N  N390  1  0.18107621  0.11049200  0.09129619  1
  N  N391  1  0.19707673  0.44032399  0.09081571  1
  N  N392  1  0.19309575  0.77413497  0.09231586  1
  N  N393  1  0.67405886  0.11091921  0.10608564  1
  N  N394  1  0.69875860  0.44476150  0.08887096  1
  N  N395  1  0.69876703  0.77539130  0.09210340  1
  N  N396  1  0.18113424  0.22086339  0.89541000  1
  N  N397  1  0.19703528  0.55885568  0.90811266  1
  N  N398  1  0.17641207  0.88560941  0.89991337  1
  N  N399  1  0.69411507  0.22307990  0.91170482  1
  N  N400  1  0.69652664  0.55841254  0.90524079  1
  N  N401  1  0.67567938  0.88710077  0.90061972  1
  N  N402  1  0.30391832  0.11298866  0.41555193  1
  N  N403  1  0.31731903  0.44649925  0.39976305  1
  N  N404  1  0.32922514  0.78104087  0.39212507  1
  N  N405  1  0.81875858  0.11298688  0.39562689  1
  N  N406  1  0.81593216  0.44115296  0.40753622  1
  N  N407  1  0.81929783  0.77811858  0.39726302  1
  N  N408  1  0.43025243  0.27994291  0.40335320  1
  N  N409  1  0.44298668  0.60969221  0.40576083  1
  N  N410  1  0.42984557  0.94331757  0.40185106  1
  N  N411  1  0.93247632  0.27724677  0.40021107  1
  N  N412  1  0.93885072  0.60763899  0.40749684  1
  N  N413  1  0.92564028  0.94964461  0.39462012  1
  N  N414  1  0.06822394  0.05700862  0.89648618  1
  N  N415  1  0.05103361  0.38676786  0.91268982  1
  N  N416  1  0.05404696  0.73002029  0.91526935  1
  N  N417  1  0.57220180  0.05592997  0.90322436  1
  N  N418  1  0.55419856  0.38905725  0.90809074  1
  N  N419  1  0.56159379  0.72420653  0.90277199  1
  N  N420  1  0.05739816  0.27456941  0.09071839  1
  N  N421  1  0.05301456  0.61226671  0.09050702  1
  N  N422  1  0.07403825  0.94429079  0.09916415  1
  N  N423  1  0.56271610  0.27523813  0.10020324  1
  N  N424  1  0.55538218  0.61206135  0.09004270  1
  N  N425  1  0.57647148  0.94625330  0.10595469  1
  N  N426  1  0.43984797  0.05183707  0.59993795  1
  N  N427  1  0.43313545  0.38868873  0.59803993  1
  N  N428  1  0.42245602  0.72057615  0.60167530  1
  N  N429  1  0.94335527  0.05651986  0.59240770  1
  N  N430  1  0.93591534  0.38989239  0.59853594  1
  N  N431  1  0.92275268  0.71944313  0.60744758  1
  N  N432  1  0.17801680  0.11254544  0.39343883  1
  N  N433  1  0.19086744  0.44456852  0.40448858  1
  N  N434  1  0.20101963  0.77479752  0.40896682  1
  N  N435  1  0.68995828  0.11174668  0.40940722  1
  N  N436  1  0.68758725  0.44196826  0.40280838  1
  N  N437  1  0.69307036  0.77750028  0.40467937  1
  N  N438  1  0.31015826  0.22193325  0.90884842  1
  N  N439  1  0.32558016  0.55320687  0.89306969  1
  N  N440  1  0.30360410  0.89374954  0.91194125  1
  N  N441  1  0.82195361  0.21815656  0.89307992  1
  N  N442  1  0.82602721  0.55388910  0.89506560  1
  N  N443  1  0.80295712  0.89312430  0.91295259  1
  N  N444  1  0.30871452  0.10872200  0.09620746  1
  N  N445  1  0.32164675  0.44674693  0.10777445  1
  N  N446  1  0.32052056  0.77967813  0.10137686  1
  N  N447  1  0.79971424  0.10644022  0.08711328  1
  N  N448  1  0.82640351  0.44177175  0.10373718  1
  N  N449  1  0.82609505  0.77950580  0.10177104  1
  N  N450  1  0.19427622  0.22948607  0.58580081  1
  N  N451  1  0.17725127  0.55283162  0.60290777  1
  N  N452  1  0.19811121  0.89001681  0.58660031  1
  N  N453  1  0.69039031  0.22319925  0.59594442  1
  N  N454  1  0.67606147  0.55346347  0.59487086  1
  N  N455  1  0.68990757  0.88657494  0.59487041  1
  Cl  Cl456  1  0.25703991  0.06211085  0.60954592  1
  Cl  Cl457  1  0.25095129  0.38636826  0.62571849  1
  Cl  Cl458  1  0.23518747  0.72224068  0.61522208  1
  Cl  Cl459  1  0.75421826  0.05107958  0.61254395  1
  Cl  Cl460  1  0.74751563  0.38994820  0.62263135  1
  Cl  Cl461  1  0.73544207  0.72239915  0.61953294  1
  Cl  Cl462  1  0.24791125  0.27560224  0.11057047  1
  Cl  Cl463  1  0.23797704  0.61345792  0.11268889  1
  Cl  Cl464  1  0.25894427  0.94619155  0.11698135  1
  Cl  Cl465  1  0.74502307  0.28322925  0.11679830  1
  Cl  Cl466  1  0.73708873  0.60544156  0.11479125  1
  Cl  Cl467  1  0.76216632  0.94172490  0.11601112  1
  Cl  Cl468  1  0.25774660  0.05504356  0.89107245  1
  Cl  Cl469  1  0.23262854  0.39029043  0.90157777  1
  Cl  Cl470  1  0.23964197  0.72535135  0.88146721  1
  Cl  Cl471  1  0.75549923  0.04797937  0.88024988  1
  Cl  Cl472  1  0.73674539  0.39386267  0.89471489  1
  Cl  Cl473  1  0.74589107  0.72328970  0.88032674  1
  Cl  Cl474  1  0.24738440  0.27700290  0.37973879  1
  Cl  Cl475  1  0.25636238  0.61427146  0.37968943  1
  Cl  Cl476  1  0.24140228  0.93913170  0.39251640  1
  Cl  Cl477  1  0.74442127  0.27991167  0.38101148  1
  Cl  Cl478  1  0.75428300  0.60778425  0.38289815  1
  Cl  Cl479  1  0.73904420  0.94424775  0.38386103  1
  Cl  Cl480  1  0.00462658  0.22231505  0.60566809  1
  Cl  Cl481  1  -0.01333538  0.55596165  0.62255314  1
  Cl  Cl482  1  0.01250038  0.89382924  0.61516911  1
  Cl  Cl483  1  0.50605921  0.22155466  0.62213892  1
  Cl  Cl484  1  0.49062346  0.55604207  0.61371709  1
  Cl  Cl485  1  0.50657057  0.88836265  0.61878874  1
  Cl  Cl486  1  -0.00692908  0.10585512  0.10857876  1
  Cl  Cl487  1  0.01636301  0.44077058  0.10452524  1
  Cl  Cl488  1  0.00826769  0.78000759  0.11302936  1
  Cl  Cl489  1  0.49065066  0.11315389  0.12317638  1
  Cl  Cl490  1  0.51572165  0.43899495  0.10355816  1
  Cl  Cl491  1  0.51073950  0.77686434  0.11169211  1
  Cl  Cl492  1  0.00133409  0.21888127  0.86685141  1
  Cl  Cl493  1  0.01445954  0.56216103  0.89507365  1
  Cl  Cl494  1  -0.01188119  0.88882508  0.89034254  1
  Cl  Cl495  1  0.50081035  0.22381774  0.89765163  1
  Cl  Cl496  1  0.51416190  0.56142677  0.89115645  1
  Cl  Cl497  1  0.48894121  0.89313442  0.88510604  1
  Cl  Cl498  1  -0.00058900  0.11637220  0.36923553  1
  Cl  Cl499  1  0.00504444  0.44562468  0.38053366  1
  Cl  Cl500  1  0.01135190  0.77636785  0.38244731  1
  Cl  Cl501  1  0.49041828  0.10673716  0.40075042  1
  Cl  Cl502  1  0.49989027  0.44211744  0.37944029  1
  Cl  Cl503  1  0.51182403  0.78287282  0.37720153  1
  Cl  Cl504  1  0.36086447  0.14591136  0.74093099  1
  Cl  Cl505  1  0.36561488  0.47722400  0.75937661  1
  Cl  Cl506  1  0.36059014  0.81326517  0.74497887  1
  Cl  Cl507  1  0.86142135  0.14792638  0.75110006  1
  Cl  Cl508  1  0.85772398  0.47795199  0.75523498  1
  Cl  Cl509  1  0.86258629  0.81380071  0.74678772  1
  Cl  Cl510  1  0.14580477  0.18252780  0.25067073  1
  Cl  Cl511  1  0.14343204  0.51723307  0.25153062  1
  Cl  Cl512  1  0.14622406  0.85275216  0.24766170  1
  Cl  Cl513  1  0.63536803  0.18581479  0.24430179  1
  Cl  Cl514  1  0.64890723  0.51629751  0.25588269  1
  Cl  Cl515  1  0.64654100  0.85046890  0.24435900  1
  Cl  Cl516  1  0.14097547  0.14895069  0.75034033  1
  Cl  Cl517  1  0.14230630  0.48630391  0.74756459  1
  Cl  Cl518  1  0.14128008  0.81780361  0.75222183  1
  Cl  Cl519  1  0.64038816  0.14805680  0.75125086  1
  Cl  Cl520  1  0.63716764  0.48159171  0.75324731  1
  Cl  Cl521  1  0.64154941  0.81925482  0.75497219  1
  Cl  Cl522  1  0.36471877  0.18728069  0.24319387  1
  Cl  Cl523  1  0.36775019  0.52260520  0.23751983  1
  Cl  Cl524  1  0.36870723  0.85578973  0.25486431  1
  Cl  Cl525  1  0.85683201  0.18332254  0.24874850  1
  Cl  Cl526  1  0.86941753  0.52217943  0.23994545  1
  Cl  Cl527  1  0.86568000  0.85381953  0.25661035  1
  Cl  Cl528  1  0.10804212  0.31617249  0.75184528  1
  Cl  Cl529  1  0.09947917  0.65132408  0.74882425  1
  Cl  Cl530  1  0.11681465  0.98028031  0.75185166  1
  Cl  Cl531  1  0.60338561  0.31495986  0.75123812  1
  Cl  Cl532  1  0.60584240  0.65043181  0.74894701  1
  Cl  Cl533  1  0.60710486  0.98379840  0.75476874  1
  Cl  Cl534  1  0.39292644  0.01995401  0.25279124  1
  Cl  Cl535  1  0.39138155  0.35663955  0.24766398  1
  Cl  Cl536  1  0.38650156  0.69118720  0.24285690  1
  Cl  Cl537  1  0.89121373  0.01905542  0.25301552  1
  Cl  Cl538  1  0.88705639  0.35497116  0.24148380  1
  Cl  Cl539  1  0.89204699  0.68823232  0.24573008  1
  Cl  Cl540  1  0.38232541  0.31155411  0.75494701  1
  Cl  Cl541  1  0.38530764  0.64617711  0.75725657  1
  Cl  Cl542  1  0.38661926  0.98025390  0.74708160  1
  Cl  Cl543  1  0.88787892  0.31361470  0.75228984  1
  Cl  Cl544  1  0.88039319  0.64459551  0.75531400  1
  Cl  Cl545  1  0.89297058  0.98260994  0.74745680  1
  Cl  Cl546  1  0.11095651  0.01904332  0.24612123  1
  Cl  Cl547  1  0.10698577  0.34773714  0.24877139  1
  Cl  Cl548  1  0.11062065  0.68286757  0.25162052  1
  Cl  Cl549  1  0.61215444  0.01889606  0.24565227  1
  Cl  Cl550  1  0.60839382  0.34935667  0.25081148  1
  Cl  Cl551  1  0.60790464  0.68081182  0.25126224  1
