# generated using pymatgen
data_H8PbC4(N3Cl2)2
_symmetry_space_group_name_H-M   'P 1'
_cell_length_a   16.62223082
_cell_length_b   22.50636885
_cell_length_c   21.59030374
_cell_angle_alpha   90.00211847
_cell_angle_beta   90.00907257
_cell_angle_gamma   89.99614607
_symmetry_Int_Tables_number   1
_chemical_formula_structural   H8PbC4(N3Cl2)2
_chemical_formula_sum   'H192 Pb24 C96 N144 Cl96'
_cell_volume   8077.06329798
_cell_formula_units_Z   24
loop_
 _symmetry_equiv_pos_site_id
 _symmetry_equiv_pos_as_xyz
  1  'x, y, z'
loop_
 _atom_site_type_symbol
 _atom_site_label
 _atom_site_symmetry_multiplicity
 _atom_site_fract_x
 _atom_site_fract_y
 _atom_site_fract_z
 _atom_site_occupancy
  H  H0  1  -0.00328351  0.02983740  0.67851953  1
  H  H1  1  -0.00059977  0.36195361  0.68089769  1
  H  H2  1  0.00348718  0.69836597  0.67784857  1
  H  H3  1  0.49758163  0.03092305  0.67700316  1
  H  H4  1  0.50305556  0.36305700  0.67732998  1
  H  H5  1  0.50638393  0.69803383  0.67802924  1
  H  H6  1  -0.00659356  0.30302405  0.18272546  1
  H  H7  1  0.00682878  0.63554107  0.17615645  1
  H  H8  1  0.00151181  0.96721827  0.18417506  1
  H  H9  1  0.49824207  0.30079833  0.18025177  1
  H  H10  1  0.50221410  0.63447619  0.18126071  1
  H  H11  1  0.49538135  0.96850337  0.17584620  1
  H  H12  1  0.00061492  0.03243292  0.82008746  1
  H  H13  1  0.00406882  0.36452651  0.81908419  1
  H  H14  1  0.00065490  0.69802246  0.82075572  1
  H  H15  1  0.50574199  0.03247031  0.82201531  1
  H  H16  1  0.49672809  0.36670009  0.81877037  1
  H  H17  1  0.49149473  0.69735564  0.82079836  1
  H  H18  1  -0.00728917  0.30338230  0.32092074  1
  H  H19  1  -0.00219543  0.63498845  0.31649190  1
  H  H20  1  -0.00383128  0.97154706  0.32143202  1
  H  H21  1  0.50122607  0.30253738  0.32014533  1
  H  H22  1  0.49535498  0.63548490  0.32340491  1
  H  H23  1  0.50325374  0.96910732  0.31636395  1
  H  H24  1  0.24924145  0.19671514  0.68022381  1
  H  H25  1  0.25051235  0.53229101  0.68219921  1
  H  H26  1  0.26147736  0.86230824  0.67779429  1
  H  H27  1  0.75632061  0.19734290  0.67912889  1
  H  H28  1  0.75812904  0.53386119  0.67882949  1
  H  H29  1  0.74099359  0.86797046  0.68172828  1
  H  H30  1  0.24617902  0.13646213  0.17693065  1
  H  H31  1  0.25697781  0.47002781  0.17958673  1
  H  H32  1  0.25930191  0.80077451  0.18303868  1
  H  H33  1  0.74647703  0.13453497  0.18006387  1
  H  H34  1  0.74305127  0.46842976  0.17702765  1
  H  H35  1  0.75466587  0.80032260  0.17792362  1
  H  H36  1  0.24246202  0.19815663  0.81907364  1
  H  H37  1  0.25381786  0.53329985  0.82408046  1
  H  H38  1  0.23498363  0.86441216  0.82141121  1
  H  H39  1  0.75870857  0.19812337  0.82361861  1
  H  H40  1  0.74574446  0.53109256  0.82085816  1
  H  H41  1  0.76292916  0.86379792  0.82338435  1
  H  H42  1  0.24440462  0.13642019  0.31917881  1
  H  H43  1  0.24430668  0.46813117  0.32115598  1
  H  H44  1  0.24292748  0.80119374  0.32296810  1
  H  H45  1  0.75621216  0.13589249  0.32250527  1
  H  H46  1  0.75062123  0.46781532  0.32204269  1
  H  H47  1  0.75148590  0.80236765  0.31998298  1
  H  H48  1  0.12494674  0.05297497  0.61132343  1
  H  H49  1  0.12082123  0.38805658  0.60732377  1
  H  H50  1  0.11810031  0.72426232  0.59961485  1
  H  H51  1  0.62910707  0.05356565  0.61406960  1
  H  H52  1  0.61566686  0.38880208  0.59663736  1
  H  H53  1  0.61599306  0.72326174  0.59811117  1
  H  H54  1  0.38439730  0.27823085  0.10275642  1
  H  H55  1  0.36957389  0.61402302  0.11540133  1
  H  H56  1  0.37715948  0.94223216  0.10040592  1
  H  H57  1  0.88312652  0.27841506  0.10119307  1
  H  H58  1  0.87150932  0.61594528  0.11580185  1
  H  H59  1  0.87540979  0.94632101  0.11545713  1
  H  H60  1  0.36557542  0.05133758  0.87461598  1
  H  H61  1  0.38194563  0.38872626  0.89570179  1
  H  H62  1  0.38260167  0.72319704  0.90392117  1
  H  H63  1  0.86705601  0.05389420  0.88081267  1
  H  H64  1  0.88015535  0.38817826  0.89178938  1
  H  H65  1  0.87569669  0.72096689  0.89048851  1
  H  H66  1  0.12600441  0.28183554  0.38467038  1
  H  H67  1  0.13019663  0.61502999  0.37861486  1
  H  H68  1  0.12529729  0.94728357  0.38690643  1
  H  H69  1  0.62736885  0.28115067  0.38761291  1
  H  H70  1  0.63126362  0.61486747  0.38388315  1
  H  H71  1  0.62658072  0.94745236  0.38684307  1
  H  H72  1  0.37241496  0.21942734  0.60902412  1
  H  H73  1  0.36974766  0.55573068  0.60576182  1
  H  H74  1  0.36721675  0.89202494  0.59415545  1
  H  H75  1  0.87412246  0.22022071  0.60357558  1
  H  H76  1  0.86101209  0.55782258  0.59400506  1
  H  H77  1  0.87738106  0.88422236  0.62345291  1
  H  H78  1  0.13697673  0.10745641  0.09530512  1
  H  H79  1  0.11986531  0.45129869  0.12047988  1
  H  H80  1  0.12189948  0.78178380  0.12329423  1
  H  H81  1  0.63384522  0.10868052  0.09879984  1
  H  H82  1  0.62406110  0.44239926  0.10278471  1
  H  H83  1  0.62505820  0.78053875  0.11465128  1
  H  H84  1  0.12333487  0.22082571  0.89208943  1
  H  H85  1  0.12779331  0.55491187  0.89044485  1
  H  H86  1  0.13420800  0.89262059  0.91004560  1
  H  H87  1  0.61854080  0.21542316  0.87770513  1
  H  H88  1  0.63301295  0.55514561  0.90042589  1
  H  H89  1  0.62245657  0.88144698  0.87656067  1
  H  H90  1  0.37299614  0.11493166  0.38634929  1
  H  H91  1  0.38155340  0.44864487  0.37737757  1
  H  H92  1  0.38089776  0.78012311  0.38023546  1
  H  H93  1  0.86643245  0.10944021  0.40453208  1
  H  H94  1  0.87703637  0.44900137  0.39211492  1
  H  H95  1  0.88128769  0.78189006  0.38547680  1
  H  H96  1  0.37859329  0.28032535  0.39051686  1
  H  H97  1  0.38442953  0.60844757  0.40483000  1
  H  H98  1  0.37679521  0.94653454  0.38350661  1
  H  H99  1  0.87864454  0.27613689  0.40056173  1
  H  H100  1  0.88128839  0.61299477  0.39248031  1
  H  H101  1  0.87675212  0.94548365  0.39669558  1
  H  H102  1  0.11469878  0.05894738  0.89904764  1
  H  H103  1  0.12874741  0.38955257  0.89069306  1
  H  H104  1  0.12499756  0.71712396  0.89018856  1
  H  H105  1  0.61076198  0.05976301  0.90693070  1
  H  H106  1  0.63038584  0.38450496  0.88071371  1
  H  H107  1  0.62930585  0.71908002  0.87595752  1
  H  H108  1  0.13021813  0.28199441  0.12353377  1
  H  H109  1  0.11869969  0.60848176  0.09654552  1
  H  H110  1  0.12507498  0.94651035  0.11059074  1
  H  H111  1  0.63282624  0.28365585  0.11920960  1
  H  H112  1  0.61865668  0.61025285  0.10409632  1
  H  H113  1  0.62543985  0.94493794  0.11248119  1
  H  H114  1  0.38064129  0.05632804  0.60184407  1
  H  H115  1  0.36913562  0.38507605  0.61581463  1
  H  H116  1  0.36850578  0.71667289  0.62200709  1
  H  H117  1  0.87616076  0.05540264  0.60562886  1
  H  H118  1  0.87259569  0.38514157  0.61038815  1
  H  H119  1  0.87004576  0.72046811  0.61425314  1
  H  H120  1  0.12363850  0.11020200  0.39359208  1
  H  H121  1  0.13425021  0.44496348  0.40140241  1
  H  H122  1  0.13539704  0.77432404  0.40708978  1
  H  H123  1  0.61997620  0.11775835  0.38066274  1
  H  H124  1  0.62856938  0.44155081  0.39282692  1
  H  H125  1  0.63303203  0.77731921  0.39591860  1
  H  H126  1  0.37227413  0.21830863  0.88450823  1
  H  H127  1  0.37670944  0.55375706  0.89450128  1
  H  H128  1  0.37663671  0.88405430  0.87200409  1
  H  H129  1  0.86323342  0.22649560  0.90820139  1
  H  H130  1  0.88146645  0.55358867  0.88020485  1
  H  H131  1  0.86604603  0.89288707  0.90892399  1
  H  H132  1  0.38324381  0.11783413  0.11836325  1
  H  H133  1  0.36787985  0.44516444  0.09916156  1
  H  H134  1  0.36935181  0.77671793  0.10100340  1
  H  H135  1  0.88060958  0.11357479  0.11833451  1
  H  H136  1  0.87295856  0.44727597  0.11144656  1
  H  H137  1  0.87349346  0.77740016  0.10359536  1
  H  H138  1  0.12236127  0.21890046  0.61089791  1
  H  H139  1  0.12129483  0.55346589  0.61202069  1
  H  H140  1  0.12245749  0.88458217  0.62650051  1
  H  H141  1  0.62558700  0.21653540  0.61671946  1
  H  H142  1  0.61596209  0.54992972  0.62876887  1
  H  H143  1  0.63001098  0.88792191  0.60144961  1
  H  H144  1  0.14768968  0.42419142  0.01248438  1
  H  H145  1  0.57873215  0.92301564  0.49948218  1
  H  H146  1  0.68165216  0.42707174  0.49879756  1
  H  H147  1  0.91916165  0.92034403  0.00348271  1
  H  H148  1  0.69482781  0.90988978  0.49147613  1
  H  H149  1  0.41915543  0.92076757  0.49658388  1
  H  H150  1  0.53569200  0.08555330  1.00664657  1
  H  H151  1  0.44122218  0.41430455  1.00601594  1
  H  H152  1  0.70360471  0.08472522  -0.00338279  1
  H  H153  1  0.83016832  0.40722216  0.48985180  1
  H  H154  1  0.39729347  0.41513194  0.50787693  1
  H  H155  1  0.55096049  0.75128442  0.49139417  1
  H  H156  1  0.83194482  0.41578554  0.00545875  1
  H  H157  1  0.65799667  0.75114626  0.00089828  1
  H  H158  1  0.55683594  0.58050163  -0.00270694  1
  H  H159  1  0.78416150  0.24211006  1.00853558  1
  H  H160  1  0.07230737  0.91353973  0.00771308  1
  H  H161  1  0.19761387  0.41770403  0.50819108  1
  H  H162  1  0.93800836  0.58640499  0.50231055  1
  H  H163  1  0.78722214  0.90451684  1.00841345  1
  H  H164  1  0.60466747  0.58467965  0.49405013  1
  H  H165  1  0.78617951  0.58419714  0.48905618  1
  H  H166  1  0.30212519  0.41939131  -0.00788740  1
  H  H167  1  0.65574081  0.24833701  0.50402846  1
  H  H168  1  0.43294709  0.91397215  -0.00216290  1
  H  H169  1  0.16650163  0.24787733  0.50591438  1
  H  H170  1  0.44261383  0.25202045  -0.00584616  1
  H  H171  1  0.59543884  0.08475878  0.50691640  1
  H  H172  1  0.29096512  0.91491237  0.49374119  1
  H  H173  1  0.21056774  0.09192511  -0.00710364  1
  H  H174  1  0.45538102  0.74860225  1.00477266  1
  H  H175  1  0.63958461  0.91362608  0.98460843  1
  H  H176  1  0.95161374  0.25156187  -0.00388435  1
  H  H177  1  0.33042913  0.08468043  0.49619065  1
  H  H178  1  0.35836812  0.08483860  0.00980896  1
  H  H179  1  0.29968424  0.74672125  -0.00320991  1
  H  H180  1  0.08644303  0.91878766  0.49778252  1
  H  H181  1  0.09886587  0.58631503  0.49101621  1
  H  H182  1  0.85209111  0.58206755  0.98802234  1
  H  H183  1  0.21751524  0.91533375  1.00730203  1
  H  H184  1  0.90567447  0.74988751  0.50833299  1
  H  H185  1  0.04849870  0.08433794  1.00232613  1
  H  H186  1  0.08121495  0.74630558  1.00191317  1
  H  H187  1  0.63562515  0.25150045  0.98581756  1
  H  H188  1  0.32639783  0.25019542  0.50027865  1
  H  H189  1  0.69692584  0.58504750  1.00684626  1
  H  H190  1  0.35828317  0.75089966  0.48974089  1
  H  H191  1  0.17455027  0.25103575  1.00175366  1
  Pb  Pb192  1  0.24864961  0.04604405  0.75035418  1
  Pb  Pb193  1  0.24752557  0.37920147  0.75427911  1
  Pb  Pb194  1  0.24918961  0.71280054  0.75443626  1
  Pb  Pb195  1  0.74691286  0.04594769  0.75581065  1
  Pb  Pb196  1  0.75410035  0.38202253  0.74567104  1
  Pb  Pb197  1  0.74895493  0.71345692  0.74713037  1
  Pb  Pb198  1  0.25148101  0.28706228  0.25195918  1
  Pb  Pb199  1  0.25252330  0.62021886  0.24955647  1
  Pb  Pb200  1  0.24568238  0.95079516  0.25019924  1
  Pb  Pb201  1  0.75406113  0.28632987  0.24804302  1
  Pb  Pb202  1  0.74572437  0.61793543  0.24680329  1
  Pb  Pb203  1  0.75462456  0.95181867  0.24768300  1
  Pb  Pb204  1  -0.00252945  0.21078398  0.75611994  1
  Pb  Pb205  1  0.00247223  0.54827377  0.74369707  1
  Pb  Pb206  1  -0.00048429  0.87950473  0.76568254  1
  Pb  Pb207  1  0.49900093  0.21422180  0.74858150  1
  Pb  Pb208  1  0.49833641  0.54604787  0.75547587  1
  Pb  Pb209  1  0.49855600  0.87919076  0.74236881  1
  Pb  Pb210  1  0.00241845  0.12082122  0.24751150  1
  Pb  Pb211  1  0.00116529  0.45534099  0.25289348  1
  Pb  Pb212  1  -0.00068204  0.78227983  0.25387254  1
  Pb  Pb213  1  0.50198649  0.11860157  0.24761647  1
  Pb  Pb214  1  0.49848284  0.45100805  0.24631735  1
  Pb  Pb215  1  0.50065692  0.78756089  0.24403434  1
  C  C216  1  -0.00050050  0.04600326  0.63145565  1
  C  C217  1  -0.00244821  0.37794149  0.63353403  1
  C  C218  1  -0.00330646  0.71397634  0.63062917  1
  C  C219  1  0.50281089  0.04683220  0.62976480  1
  C  C220  1  0.49570739  0.37857447  0.63001472  1
  C  C221  1  0.49724672  0.71275873  0.63081718  1
  C  C222  1  0.00257716  0.28804194  0.13548967  1
  C  C223  1  -0.00141803  0.62044885  0.12906642  1
  C  C224  1  0.00111300  0.95306678  0.13601887  1
  C  C225  1  0.50493368  0.28757257  0.13222361  1
  C  C226  1  0.49654431  0.61972485  0.13359528  1
  C  C227  1  0.49893913  0.95210285  0.12865876  1
  C  C228  1  -0.00570194  0.04704789  0.86757701  1
  C  C229  1  0.00433321  0.38002886  0.86672527  1
  C  C230  1  0.00096573  0.71251652  0.86856200  1
  C  C231  1  0.49399517  0.04667173  0.86922440  1
  C  C232  1  0.50284284  0.37992949  0.86675834  1
  C  C233  1  0.50086101  0.71223400  0.86805531  1
  C  C234  1  -0.00096794  0.28786259  0.36828071  1
  C  C235  1  0.00339497  0.62086787  0.36442580  1
  C  C236  1  -0.00061423  0.95516699  0.36852610  1
  C  C237  1  0.50241555  0.28801039  0.36788944  1
  C  C238  1  0.50425328  0.61999293  0.37056367  1
  C  C239  1  0.50210118  0.95430846  0.36424837  1
  C  C240  1  0.24750587  0.21229792  0.63253060  1
  C  C241  1  0.24687555  0.54652191  0.63420082  1
  C  C242  1  0.25062827  0.87829445  0.63113321  1
  C  C243  1  0.75135498  0.21190905  0.63146935  1
  C  C244  1  0.74490859  0.54713046  0.63151917  1
  C  C245  1  0.74928319  0.87990495  0.63357393  1
  C  C246  1  0.25583142  0.12092192  0.12975656  1
  C  C247  1  0.24765379  0.45518810  0.13217066  1
  C  C248  1  0.24986472  0.78663325  0.13551082  1
  C  C249  1  0.75354202  0.11954339  0.13262843  1
  C  C250  1  0.74711848  0.45256027  0.12976749  1
  C  C251  1  0.75036736  0.78559235  0.13026360  1
  C  C252  1  0.24566814  0.21294320  0.86674339  1
  C  C253  1  0.25272815  0.54772294  0.87217372  1
  C  C254  1  0.24816759  0.87966812  0.86799100  1
  C  C255  1  0.74649072  0.21373802  0.87039937  1
  C  C256  1  0.75406983  0.54646656  0.86818948  1
  C  C257  1  0.75051586  0.87918189  0.87028397  1
  C  C258  1  0.24693685  0.12059568  0.36656504  1
  C  C259  1  0.25309101  0.45385265  0.36858098  1
  C  C260  1  0.25351870  0.78575133  0.36989883  1
  C  C261  1  0.74761775  0.12134173  0.36978072  1
  C  C262  1  0.75214999  0.45256881  0.36984225  1
  C  C263  1  0.75510784  0.78759879  0.36754007  1
  C  C264  1  0.28666969  0.23959776  0.53923330  1
  C  C265  1  0.21045061  0.57378797  0.96343547  1
  C  C266  1  0.80068880  0.76225087  0.45918817  1
  C  C267  1  0.43735794  0.73686056  0.54309774  1
  C  C268  1  0.52364438  0.59274977  0.03893168  1
  C  C269  1  0.70212825  0.23844105  0.53975918  1
  C  C270  1  0.27181526  0.42899913  0.03560439  1
  C  C271  1  0.71176560  0.42217036  0.03538103  1
  C  C272  1  0.43026671  0.07128842  0.95566264  1
  C  C273  1  0.93910071  0.07542774  0.95675497  1
  C  C274  1  0.46377230  0.26128069  0.46120626  1
  C  C275  1  0.56197882  0.74038177  0.95470458  1
  C  C276  1  0.98226483  0.26181158  0.03947843  1
  C  C277  1  0.18633837  0.90695296  0.54600021  1
  C  C278  1  0.75780187  0.57297192  0.53297824  1
  C  C279  1  0.72807054  0.57414676  0.96400317  1
  C  C280  1  0.26973383  0.75919368  0.03978311  1
  C  C281  1  0.54100564  0.93084407  0.45916475  1
  C  C282  1  0.95769108  0.93055807  0.04275711  1
  C  C283  1  0.51808573  0.73992573  0.53338018  1
  C  C284  1  0.04276569  0.92815157  0.45982708  1
  C  C285  1  0.78360918  0.23939284  0.53654898  1
  C  C286  1  0.05450708  0.59645190  0.45547414  1
  C  C287  1  0.54557131  0.26177639  0.46012836  1
  C  C288  1  0.21231016  0.24015944  0.96226583  1
  C  C289  1  0.45902951  0.93047875  0.45793433  1
  C  C290  1  0.67777741  0.56999991  0.54604985  1
  C  C291  1  0.95947588  0.73868908  0.96177155  1
  C  C292  1  0.28888896  0.09429371  0.45815000  1
  C  C293  1  0.54902164  0.92564941  0.03724369  1
  C  C294  1  0.96703443  0.07613108  0.53878035  1
  C  C295  1  0.02170878  0.59018484  0.03426158  1
  C  C296  1  0.70282238  0.76011282  0.03751095  1
  C  C297  1  0.23152622  0.42789399  0.46639407  1
  C  C298  1  0.55642232  0.40241239  0.95733719  1
  C  C299  1  0.29081649  0.57346354  0.96463566  1
  C  C300  1  0.72635780  0.90142121  0.53475228  1
  C  C301  1  0.31231633  0.42977462  0.45662480  1
  C  C302  1  0.04097317  0.73731146  0.96334463  1
  C  C303  1  0.29373355  0.23911834  0.95807844  1
  C  C304  1  0.80666509  0.90005974  0.54427619  1
  C  C305  1  0.55987396  0.26596519  0.04179317  1
  C  C306  1  0.78443589  0.75907138  0.03538046  1
  C  C307  1  0.69308812  0.09620222  0.45834680  1
  C  C308  1  0.47536041  0.40417225  0.96431241  1
  C  C309  1  0.97253811  0.59604713  0.46070657  1
  C  C310  1  0.47878680  0.26286096  0.03473712  1
  C  C311  1  0.47085967  0.07749723  0.53479159  1
  N  N312  1  0.31610197  0.90562203  0.95147859  1
  N  N313  1  0.55633707  0.59427085  0.45841974  1
  N  N314  1  0.46973958  0.92438184  0.03445913  1
  N  N315  1  0.79359963  0.43343042  0.46296612  1
  N  N316  1  0.20694168  0.23950416  0.54091704  1
  N  N317  1  0.04331351  0.40809709  0.95972321  1
  N  N318  1  0.94922813  0.74081847  0.54230059  1
  N  N319  1  0.47903346  0.59159545  0.46627672  1
  N  N320  1  0.27982347  0.57209278  0.53896901  1
  N  N321  1  0.20972311  0.09251293  0.46108903  1
  N  N322  1  0.20384853  0.57088316  0.54096291  1
  N  N323  1  0.97308950  0.25848395  0.46354780  1
  N  N324  1  0.96639958  0.40715962  0.96033146  1
  N  N325  1  0.76994206  0.09285529  0.46728179  1
  N  N326  1  0.26460740  0.90903979  0.53630421  1
  N  N327  1  0.03280528  0.40638009  0.53969918  1
  N  N328  1  0.23505382  0.08802285  0.03674385  1
  N  N329  1  0.03738692  0.93209402  0.04164854  1
  N  N330  1  0.73175520  0.09345405  0.03834410  1
  N  N331  1  0.72304552  0.76054035  0.46377171  1
  N  N332  1  0.68805508  0.89905938  0.95579265  1
  N  N333  1  0.79069446  0.42433557  0.03938292  1
  N  N334  1  0.76210661  0.24681412  0.96403886  1
  N  N335  1  0.06093689  0.26191148  0.04701850  1
  N  N336  1  0.54973927  0.07562730  0.54028847  1
  N  N337  1  0.23938901  0.90901807  0.96279441  1
  N  N338  1  0.44524116  0.40527652  0.54214559  1
  N  N339  1  0.19113285  0.76110430  0.04710861  1
  N  N340  1  0.80945328  0.09560077  0.04335261  1
  N  N341  1  0.52279557  0.40697539  0.53449357  1
  N  N342  1  0.50833553  0.07445782  0.96513123  1
  N  N343  1  0.76510076  0.91175808  0.96448650  1
  N  N344  1  0.04441477  0.07536290  0.53926895  1
  N  N345  1  0.31237382  0.09957227  0.04237281  1
  N  N346  1  0.80695656  0.57389672  0.95579498  1
  N  N347  1  0.94453924  0.59328142  0.03924088  1
  N  N348  1  0.02718193  0.74204262  0.53559096  1
  N  N349  1  0.30886289  0.76011884  0.45622369  1
  N  N350  1  0.68479532  0.23581692  0.95555602  1
  N  N351  1  0.95603036  0.40453661  0.54060369  1
  N  N352  1  0.01767780  0.07564012  0.96207621  1
  N  N353  1  0.23190457  0.75776843  0.46636813  1
  N  N354  1  0.04932110  0.26061919  0.45836972  1
  N  N355  1  0.71514044  0.41921235  0.45977305  1
  N  N356  1  0.19301550  0.43023977  0.04450544  1
  N  N357  1  0.48364297  0.74160840  0.96309077  1
  N  N358  1  0.44462538  0.59464737  0.04256491  1
  N  N359  1  0.96359011  0.92655651  0.46332061  1
  N  N360  1  0.06490189  0.05650249  0.59839365  1
  N  N361  1  0.05961377  0.39003178  0.59715781  1
  N  N362  1  0.05625525  0.72558634  0.59103668  1
  N  N363  1  0.56979962  0.05656407  0.59866383  1
  N  N364  1  0.55375895  0.39016733  0.58936559  1
  N  N365  1  0.55445353  0.72472193  0.58950938  1
  N  N366  1  0.44559690  0.27662599  0.09245449  1
  N  N367  1  0.42952440  0.61091559  0.10163904  1
  N  N368  1  0.43847886  0.94117033  0.09085224  1
  N  N369  1  0.94509113  0.27756314  0.09336361  1
  N  N370  1  0.92998514  0.61263740  0.09952203  1
  N  N371  1  0.93494442  0.94482810  0.10081464  1
  N  N372  1  0.42096955  0.05481691  0.89584380  1
  N  N373  1  0.44284924  0.38989205  0.90653250  1
  N  N374  1  0.44505481  0.72167746  0.91043572  1
  N  N375  1  0.92430863  0.05788222  0.89827932  1
  N  N376  1  0.94126775  0.38994817  0.90280982  1
  N  N377  1  0.93564567  0.72384823  0.90451010  1
  N  N378  1  0.06662894  0.27904283  0.39929775  1
  N  N379  1  0.07207576  0.61176084  0.39553248  1
  N  N380  1  0.06605918  0.94483239  0.40160325  1
  N  N381  1  0.56827566  0.27780431  0.40287445  1
  N  N382  1  0.57281857  0.61158073  0.40020027  1
  N  N383  1  0.56657984  0.94536355  0.40054222  1
  N  N384  1  0.31195068  0.22330045  0.59630565  1
  N  N385  1  0.30812647  0.55714438  0.59640103  1
  N  N386  1  0.30516607  0.88859253  0.58800393  1
  N  N387  1  0.81333902  0.22343843  0.59178370  1
  N  N388  1  0.79889366  0.55831594  0.58738627  1
  N  N389  1  0.82024109  0.88752443  0.60383482  1
  N  N390  1  0.19930153  0.11093727  0.08765903  1
  N  N391  1  0.17836300  0.44675525  0.10368070  1
  N  N392  1  0.18053993  0.77761837  0.10696247  1
  N  N393  1  0.69602605  0.10918192  0.09173085  1
  N  N394  1  0.68449739  0.43950945  0.09134840  1
  N  N395  1  0.68302783  0.77657316  0.09805928  1
  N  N396  1  0.18338373  0.22371538  0.90415918  1
  N  N397  1  0.18661251  0.55834031  0.90693092  1
  N  N398  1  0.19657347  0.89086900  0.91306919  1
  N  N399  1  0.67525490  0.22431664  0.89539693  1
  N  N400  1  0.69484485  0.55748217  0.90950376  1
  N  N401  1  0.67911059  0.88891759  0.89526787  1
  N  N402  1  0.31333602  0.11112864  0.40033980  1
  N  N403  1  0.32465628  0.44512059  0.39712676  1
  N  N404  1  0.32316348  0.77716032  0.39784983  1
  N  N405  1  0.80417618  0.10936724  0.41085274  1
  N  N406  1  0.81687950  0.44206058  0.40366515  1
  N  N407  1  0.82243222  0.77830751  0.40057811  1
  N  N408  1  0.43843002  0.27727664  0.40447137  1
  N  N409  1  0.44675042  0.60748722  0.41160271  1
  N  N410  1  0.43615937  0.94507714  0.39860172  1
  N  N411  1  0.94057367  0.27517845  0.40793232  1
  N  N412  1  0.94214822  0.61119127  0.40370588  1
  N  N413  1  0.93829260  0.94366491  0.40609561  1
  N  N414  1  0.05289495  0.05666550  0.90771023  1
  N  N415  1  0.06789449  0.39108145  0.90188936  1
  N  N416  1  0.06569471  0.72110255  0.90409021  1
  N  N417  1  0.54824873  0.05768835  0.91225607  1
  N  N418  1  0.57251941  0.38800410  0.89843190  1
  N  N419  1  0.57264274  0.72342340  0.89547636  1
  N  N420  1  0.07174721  0.27796888  0.10701566  1
  N  N421  1  0.05704165  0.60676630  0.08807410  1
  N  N422  1  0.06396246  0.94291353  0.10018193  1
  N  N423  1  0.57514991  0.28044602  0.10124587  1
  N  N424  1  0.55723622  0.60826316  0.09436394  1
  N  N425  1  0.56706772  0.94204114  0.09579797  1
  N  N426  1  0.44150797  0.05948258  0.59027567  1
  N  N427  1  0.42775592  0.38826015  0.59994677  1
  N  N428  1  0.42542459  0.72080434  0.60242673  1
  N  N429  1  0.93654704  0.05820727  0.59405796  1
  N  N430  1  0.93304670  0.38719470  0.59885796  1
  N  N431  1  0.92951389  0.72369832  0.59969401  1
  N  N432  1  0.18512669  0.10893029  0.40347834  1
  N  N433  1  0.19568891  0.44298996  0.41003962  1
  N  N434  1  0.19759920  0.77363335  0.41235745  1
  N  N435  1  0.67719684  0.11303720  0.39886183  1
  N  N436  1  0.68905857  0.44302241  0.40584651  1
  N  N437  1  0.69460622  0.77683685  0.40546533  1
  N  N438  1  0.31334701  0.22298230  0.90032318  1
  N  N439  1  0.31744304  0.55766033  0.90898086  1
  N  N440  1  0.32059568  0.88944160  0.89199866  1
  N  N441  1  0.80061187  0.22426011  0.91413603  1
  N  N442  1  0.82270967  0.55637519  0.89705879  1
  N  N443  1  0.80441067  0.88904153  0.91446283  1
  N  N444  1  0.32568750  0.11054485  0.10231814  1
  N  N445  1  0.30616165  0.44378159  0.09030319  1
  N  N446  1  0.30720034  0.77520072  0.09350391  1
  N  N447  1  0.82249764  0.11066101  0.10258447  1
  N  N448  1  0.81322307  0.44288798  0.09755685  1
  N  N449  1  0.81283842  0.77425615  0.09118800  1
  N  N450  1  0.18297864  0.22237716  0.59839287  1
  N  N451  1  0.18174805  0.55481926  0.60005121  1
  N  N452  1  0.17795423  0.88939490  0.60514119  1
  N  N453  1  0.68359879  0.22136642  0.60006689  1
  N  N454  1  0.67088992  0.55452991  0.60631391  1
  N  N455  1  0.69105377  0.88866964  0.59184539  1
  Cl  Cl456  1  0.25679865  0.05098095  0.61865262  1
  Cl  Cl457  1  0.24466667  0.38462905  0.62017271  1
  Cl  Cl458  1  0.24042033  0.72282871  0.62286339  1
  Cl  Cl459  1  0.75162543  0.05172927  0.62536141  1
  Cl  Cl460  1  0.74333334  0.39000389  0.60562376  1
  Cl  Cl461  1  0.74568830  0.72077998  0.61695102  1
  Cl  Cl462  1  0.25825673  0.28132764  0.11956428  1
  Cl  Cl463  1  0.24277534  0.61252449  0.11672859  1
  Cl  Cl464  1  0.24871460  0.94215180  0.10464187  1
  Cl  Cl465  1  0.76074326  0.27466727  0.10759048  1
  Cl  Cl466  1  0.74268753  0.60944568  0.11124679  1
  Cl  Cl467  1  0.75179230  0.93871802  0.10832741  1
  Cl  Cl468  1  0.23571083  0.06173707  0.89435628  1
  Cl  Cl469  1  0.25360033  0.39089893  0.88956922  1
  Cl  Cl470  1  0.26012587  0.72234969  0.89034052  1
  Cl  Cl471  1  0.73236800  0.05909064  0.89716316  1
  Cl  Cl472  1  0.75828514  0.38762229  0.88209476  1
  Cl  Cl473  1  0.75288041  0.71955934  0.88137559  1
  Cl  Cl474  1  0.25072717  0.27738305  0.38762453  1
  Cl  Cl475  1  0.26246379  0.61319676  0.38094563  1
  Cl  Cl476  1  0.25288183  0.94036335  0.38714551  1
  Cl  Cl477  1  0.75572047  0.28127188  0.38051366  1
  Cl  Cl478  1  0.75598101  0.61259643  0.38095054  1
  Cl  Cl479  1  0.75143653  0.94661929  0.37978839  1
  Cl  Cl480  1  -0.00074041  0.21530615  0.62425383  1
  Cl  Cl481  1  -0.00944414  0.55784168  0.60886262  1
  Cl  Cl482  1  -0.00014310  0.88280671  0.63473707  1
  Cl  Cl483  1  0.49583267  0.21413348  0.61834929  1
  Cl  Cl484  1  0.49035830  0.55215236  0.62360238  1
  Cl  Cl485  1  0.49435375  0.89399703  0.60846815  1
  Cl  Cl486  1  0.01628641  0.10571937  0.10486656  1
  Cl  Cl487  1  -0.00384533  0.45113375  0.11911030  1
  Cl  Cl488  1  -0.00360252  0.78398476  0.12003332  1
  Cl  Cl489  1  0.51305238  0.10754968  0.10275297  1
  Cl  Cl490  1  0.49456227  0.44469823  0.11257726  1
  Cl  Cl491  1  0.49148890  0.77776783  0.10605680  1
  Cl  Cl492  1  -0.01461136  0.22115465  0.89284267  1
  Cl  Cl493  1  0.00388297  0.55389888  0.87588072  1
  Cl  Cl494  1  0.00512085  0.89383924  0.90512073  1
  Cl  Cl495  1  0.49537006  0.21341801  0.88206658  1
  Cl  Cl496  1  0.51019971  0.55420838  0.88979643  1
  Cl  Cl497  1  0.50011684  0.88410452  0.88049139  1
  Cl  Cl498  1  -0.00465021  0.11009542  0.37865632  1
  Cl  Cl499  1  0.00112685  0.44914000  0.38353530  1
  Cl  Cl500  1  0.00850113  0.77802211  0.38640394  1
  Cl  Cl501  1  0.49655400  0.11413030  0.37984126  1
  Cl  Cl502  1  0.50781757  0.44444260  0.37927216  1
  Cl  Cl503  1  0.50722188  0.77817237  0.37770193  1
  Cl  Cl504  1  0.36073511  0.14499677  0.75495423  1
  Cl  Cl505  1  0.36067848  0.47871966  0.75305484  1
  Cl  Cl506  1  0.36036964  0.81397622  0.75183401  1
  Cl  Cl507  1  0.85599973  0.14706981  0.75551229  1
  Cl  Cl508  1  0.85501134  0.47847659  0.75050699  1
  Cl  Cl509  1  0.85990959  0.81439382  0.75124002  1
  Cl  Cl510  1  0.14329225  0.18471878  0.24695749  1
  Cl  Cl511  1  0.14016360  0.52036696  0.25007412  1
  Cl  Cl512  1  0.14269773  0.85616305  0.24619023  1
  Cl  Cl513  1  0.63899364  0.18768558  0.24949478  1
  Cl  Cl514  1  0.64451486  0.52126937  0.25104270  1
  Cl  Cl515  1  0.63683061  0.85480532  0.24651227  1
  Cl  Cl516  1  0.13955854  0.14705294  0.75018784  1
  Cl  Cl517  1  0.13773332  0.47956492  0.75146497  1
  Cl  Cl518  1  0.13842626  0.81485579  0.75175537  1
  Cl  Cl519  1  0.63590461  0.14672913  0.75279491  1
  Cl  Cl520  1  0.63506923  0.47932159  0.74703049  1
  Cl  Cl521  1  0.63650442  0.81335132  0.75839053  1
  Cl  Cl522  1  0.36422438  0.18673058  0.24569448  1
  Cl  Cl523  1  0.36241142  0.51874000  0.24969552  1
  Cl  Cl524  1  0.36339935  0.85362993  0.25557652  1
  Cl  Cl525  1  0.86282025  0.18406621  0.24353760  1
  Cl  Cl526  1  0.86145416  0.51984653  0.24870450  1
  Cl  Cl527  1  0.85758533  0.85557107  0.24637845  1
  Cl  Cl528  1  0.11133879  0.31069636  0.75183033  1
  Cl  Cl529  1  0.10607348  0.64734970  0.74652357  1
  Cl  Cl530  1  0.11056456  0.97991042  0.75018904  1
  Cl  Cl531  1  0.60834516  0.31115696  0.75323058  1
  Cl  Cl532  1  0.61330155  0.64483762  0.75017435  1
  Cl  Cl533  1  0.60823525  0.98053463  0.75343466  1
  Cl  Cl534  1  0.39203826  0.02116138  0.24366915  1
  Cl  Cl535  1  0.39147750  0.35428761  0.25476935  1
  Cl  Cl536  1  0.39039712  0.68654817  0.24741409  1
  Cl  Cl537  1  0.89005837  0.02004684  0.24256600  1
  Cl  Cl538  1  0.89014107  0.35407771  0.24851454  1
  Cl  Cl539  1  0.89205302  0.68933509  0.24618254  1
  Cl  Cl540  1  0.38840418  0.31254971  0.74877122  1
  Cl  Cl541  1  0.39015713  0.64924631  0.74839673  1
  Cl  Cl542  1  0.38678180  0.97963854  0.75784597  1
  Cl  Cl543  1  0.88737722  0.31308123  0.74906960  1
  Cl  Cl544  1  0.88514937  0.64572426  0.75097923  1
  Cl  Cl545  1  0.88619161  0.97980283  0.75777900  1
  Cl  Cl546  1  0.11433341  0.01937801  0.24752314  1
  Cl  Cl547  1  0.11413054  0.35436417  0.24626136  1
  Cl  Cl548  1  0.11239700  0.68975845  0.25066924  1
  Cl  Cl549  1  0.60801818  0.02094866  0.24522942  1
  Cl  Cl550  1  0.61697027  0.35395576  0.24566358  1
  Cl  Cl551  1  0.61069920  0.68623400  0.25166441  1
