# generated using pymatgen
data_H8PbC4(N3Cl2)2
_symmetry_space_group_name_H-M   'P 1'
_cell_length_a   16.63372313
_cell_length_b   22.53469719
_cell_length_c   21.60646116
_cell_angle_alpha   89.99989784
_cell_angle_beta   89.96375753
_cell_angle_gamma   89.99416902
_symmetry_Int_Tables_number   1
_chemical_formula_structural   H8PbC4(N3Cl2)2
_chemical_formula_sum   'H192 Pb24 C96 N144 Cl96'
_cell_volume   8098.87595211
_cell_formula_units_Z   24
loop_
 _symmetry_equiv_pos_site_id
 _symmetry_equiv_pos_as_xyz
  1  'x, y, z'
loop_
 _atom_site_type_symbol
 _atom_site_label
 _atom_site_symmetry_multiplicity
 _atom_site_fract_x
 _atom_site_fract_y
 _atom_site_fract_z
 _atom_site_occupancy
  H  H0  1  0.00961818  0.02942712  0.68011501  1
  H  H1  1  0.01010720  0.36354653  0.68040570  1
  H  H2  1  0.00672896  0.68702870  0.67057314  1
  H  H3  1  0.48812661  0.02814439  0.67876854  1
  H  H4  1  0.49063914  0.36266722  0.68049534  1
  H  H5  1  0.50314738  0.69337741  0.67216989  1
  H  H6  1  0.00957166  0.30610654  0.17747077  1
  H  H7  1  0.00264728  0.64175529  0.18011328  1
  H  H8  1  0.01334020  0.97738190  0.17629624  1
  H  H9  1  0.48844158  0.30770974  0.17501335  1
  H  H10  1  0.49031749  0.63337236  0.18411010  1
  H  H11  1  0.49378925  0.97487703  0.16862301  1
  H  H12  1  -0.01274690  0.02808633  0.82716702  1
  H  H13  1  0.00815268  0.35942921  0.82412860  1
  H  H14  1  0.00416585  0.69291810  0.82204573  1
  H  H15  1  0.49622022  0.02447472  0.82603961  1
  H  H16  1  0.49053674  0.36111664  0.81919706  1
  H  H17  1  0.49993308  0.69434752  0.82600245  1
  H  H18  1  0.02523839  0.30794591  0.32320386  1
  H  H19  1  0.02065095  0.63674469  0.32834610  1
  H  H20  1  0.00488526  0.97075970  0.32007545  1
  H  H21  1  0.47710908  0.30730557  0.32724261  1
  H  H22  1  0.49104610  0.64454087  0.32212056  1
  H  H23  1  0.50409038  0.96920934  0.31968259  1
  H  H24  1  0.24879619  0.17861680  0.67266030  1
  H  H25  1  0.24364448  0.52722455  0.67239384  1
  H  H26  1  0.25850142  0.85658323  0.67913537  1
  H  H27  1  0.74042056  0.19481040  0.68025491  1
  H  H28  1  0.75770643  0.53133329  0.67694931  1
  H  H29  1  0.73792418  0.85256941  0.67677246  1
  H  H30  1  0.23294397  0.13701921  0.17258384  1
  H  H31  1  0.26577540  0.47074334  0.18079727  1
  H  H32  1  0.25671592  0.79984689  0.17645065  1
  H  H33  1  0.75214170  0.14294295  0.17406098  1
  H  H34  1  0.73646964  0.47022268  0.17631588  1
  H  H35  1  0.75315243  0.80595240  0.18062692  1
  H  H36  1  0.25319600  0.18743171  0.82625105  1
  H  H37  1  0.26005703  0.53202313  0.81736769  1
  H  H38  1  0.23295714  0.86175945  0.82499959  1
  H  H39  1  0.74121172  0.19225038  0.82016623  1
  H  H40  1  0.75079533  0.52450556  0.81887619  1
  H  H41  1  0.77681687  0.86759153  0.82910155  1
  H  H42  1  0.25193120  0.13235500  0.31700669  1
  H  H43  1  0.25986311  0.47741045  0.32551322  1
  H  H44  1  0.23533520  0.80948644  0.32651830  1
  H  H45  1  0.73660037  0.13766624  0.32322687  1
  H  H46  1  0.75585998  0.47064083  0.31814562  1
  H  H47  1  0.77603834  0.80552714  0.32873224  1
  H  H48  1  0.11958450  0.05585649  0.59995281  1
  H  H49  1  0.13350589  0.39268540  0.61088482  1
  H  H50  1  0.12400723  0.71882989  0.59749337  1
  H  H51  1  0.61708558  0.05292514  0.61328991  1
  H  H52  1  0.62917270  0.38525179  0.62424579  1
  H  H53  1  0.62012555  0.72194956  0.59962445  1
  H  H54  1  0.38698568  0.27195637  0.09006175  1
  H  H55  1  0.38302888  0.61162157  0.10164416  1
  H  H56  1  0.37307195  0.95014497  0.09418764  1
  H  H57  1  0.88264402  0.28055961  0.10807287  1
  H  H58  1  0.88429736  0.61047517  0.10765774  1
  H  H59  1  0.87137134  0.95055232  0.12913332  1
  H  H60  1  0.36779753  0.05467455  0.89093408  1
  H  H61  1  0.37903909  0.38987593  0.89846217  1
  H  H62  1  0.36168595  0.71893525  0.88082246  1
  H  H63  1  0.87108898  0.05773651  0.90248184  1
  H  H64  1  0.87482563  0.38100278  0.88318168  1
  H  H65  1  0.86712916  0.71778250  0.87813364  1
  H  H66  1  0.12383101  0.27277829  0.40982109  1
  H  H67  1  0.12997534  0.60972294  0.40739381  1
  H  H68  1  0.11920650  0.94338148  0.39534300  1
  H  H69  1  0.62156191  0.28338464  0.37133780  1
  H  H70  1  0.62837199  0.62007858  0.38036677  1
  H  H71  1  0.60449270  0.94053697  0.40535222  1
  H  H72  1  0.37338788  0.21877799  0.61185027  1
  H  H73  1  0.36599521  0.55840035  0.60399560  1
  H  H74  1  0.38560236  0.88388343  0.61298642  1
  H  H75  1  0.87075696  0.21889736  0.61427435  1
  H  H76  1  0.86686226  0.55969575  0.59657348  1
  H  H77  1  0.87933843  0.87932526  0.62822549  1
  H  H78  1  0.13232978  0.10496926  0.08726341  1
  H  H79  1  0.12514088  0.45194331  0.12678813  1
  H  H80  1  0.14117097  0.77645670  0.10165519  1
  H  H81  1  0.62901748  0.11111484  0.10445585  1
  H  H82  1  0.62912636  0.43956946  0.09358122  1
  H  H83  1  0.64099591  0.77962816  0.10150903  1
  H  H84  1  0.11613923  0.21500511  0.87841831  1
  H  H85  1  0.12032660  0.54734092  0.86980178  1
  H  H86  1  0.14463394  0.89571044  0.91541988  1
  H  H87  1  0.62178468  0.22236015  0.89308789  1
  H  H88  1  0.61811824  0.55031212  0.88162903  1
  H  H89  1  0.63054418  0.88249252  0.87055114  1
  H  H90  1  0.37986247  0.11090655  0.38660017  1
  H  H91  1  0.36089803  0.44007006  0.40866999  1
  H  H92  1  0.38092860  0.78594850  0.37047341  1
  H  H93  1  0.87763223  0.11874249  0.37436160  1
  H  H94  1  0.86854513  0.44927075  0.39781151  1
  H  H95  1  0.87413843  0.76936942  0.41430742  1
  H  H96  1  0.38186490  0.27105475  0.41571259  1
  H  H97  1  0.38194305  0.60791780  0.40240735  1
  H  H98  1  0.36064627  0.95486036  0.36869480  1
  H  H99  1  0.88190132  0.28539794  0.36819161  1
  H  H100  1  0.88442206  0.61954702  0.38283197  1
  H  H101  1  0.87185895  0.95083398  0.37988956  1
  H  H102  1  0.11911972  0.05498900  0.88858340  1
  H  H103  1  0.12275618  0.38706458  0.90011543  1
  H  H104  1  0.11343773  0.72390747  0.90150324  1
  H  H105  1  0.61568349  0.05584732  0.89823737  1
  H  H106  1  0.62642114  0.38306684  0.87859739  1
  H  H107  1  0.60667071  0.72731857  0.90854036  1
  H  H108  1  0.13075882  0.27394251  0.10556425  1
  H  H109  1  0.13295401  0.61635101  0.11500037  1
  H  H110  1  0.11290545  0.94555523  0.08852644  1
  H  H111  1  0.62959767  0.28343740  0.12543432  1
  H  H112  1  0.62875025  0.61763588  0.13008131  1
  H  H113  1  0.62007770  0.94157219  0.10594436  1
  H  H114  1  0.36887660  0.05613535  0.60372701  1
  H  H115  1  0.38300056  0.39554960  0.60021781  1
  H  H116  1  0.37126158  0.71520195  0.60976594  1
  H  H117  1  0.87299711  0.04842964  0.62497033  1
  H  H118  1  0.88450953  0.38911631  0.60989230  1
  H  H119  1  0.87569742  0.71729020  0.60959106  1
  H  H120  1  0.13146197  0.11013848  0.39300842  1
  H  H121  1  0.11738197  0.45938149  0.37507226  1
  H  H122  1  0.14090527  0.76936096  0.41384774  1
  H  H123  1  0.63223086  0.10772591  0.40544235  1
  H  H124  1  0.62111906  0.44986061  0.37568359  1
  H  H125  1  0.63229803  0.78494988  0.37525632  1
  H  H126  1  0.36191507  0.22274378  0.90561415  1
  H  H127  1  0.36573830  0.55724857  0.90042739  1
  H  H128  1  0.38170804  0.87341310  0.86328565  1
  H  H129  1  0.87025105  0.21661894  0.88579502  1
  H  H130  1  0.86645766  0.55309766  0.89502311  1
  H  H131  1  0.86984472  0.89959668  0.91775100  1
  H  H132  1  0.37552202  0.11640331  0.12357480  1
  H  H133  1  0.37028077  0.44061214  0.09729809  1
  H  H134  1  0.38929403  0.78317018  0.11317845  1
  H  H135  1  0.87782196  0.11093865  0.10716774  1
  H  H136  1  0.87461655  0.45083826  0.12109427  1
  H  H137  1  0.88871073  0.78089845  0.12192757  1
  H  H138  1  0.12571255  0.21692889  0.60883211  1
  H  H139  1  0.11692504  0.55758122  0.60546974  1
  H  H140  1  0.13716716  0.88543456  0.60747887  1
  H  H141  1  0.62285991  0.22135573  0.60511996  1
  H  H142  1  0.62010330  0.55078825  0.62246611  1
  H  H143  1  0.63683853  0.88928346  0.59263269  1
  H  H144  1  0.29427390  0.41173232  -0.00486284  1
  H  H145  1  0.80211007  0.58907037  0.49167009  1
  H  H146  1  0.31624586  0.24048465  0.50615412  1
  H  H147  1  0.56728006  0.75010592  0.49049451  1
  H  H148  1  0.34633446  0.91804626  0.50366469  1
  H  H149  1  0.37397405  0.75132082  0.48035755  1
  H  H150  1  0.13602729  0.57648206  -0.01579965  1
  H  H151  1  0.42054974  0.91196141  -0.00610903  1
  H  H152  1  0.61109947  0.58744812  1.01625314  1
  H  H153  1  0.41063496  0.08223749  0.99614469  1
  H  H154  1  0.78704187  0.92831703  1.01601724  1
  H  H155  1  0.58465262  0.91788094  -0.00190814  1
  H  H156  1  0.85884603  0.75523451  0.01284475  1
  H  H157  1  0.89193304  0.07968458  0.51059990  1
  H  H158  1  0.44715286  0.42407781  1.00167473  1
  H  H159  1  0.70460897  0.07654369  0.50937302  1
  H  H160  1  0.02912050  0.91721640  -0.00655389  1
  H  H161  1  0.90045857  0.41248372  0.99580346  1
  H  H162  1  0.67939476  0.24957165  0.49856347  1
  H  H163  1  0.42805120  0.08199396  0.50110242  1
  H  H164  1  0.53043056  0.75521591  1.00770029  1
  H  H165  1  0.08589227  0.42386596  0.50296942  1
  H  H166  1  0.68496116  0.07990320  0.00101181  1
  H  H167  1  0.52687324  0.91314538  0.50819271  1
  H  H168  1  0.23447148  0.92127698  1.01336851  1
  H  H169  1  0.18816099  0.23740762  0.50388449  1
  H  H170  1  0.80416776  0.58304487  1.00134455  1
  H  H171  1  0.06129635  0.91326315  0.50335784  1
  H  H172  1  0.89119302  0.25060594  0.48058538  1
  H  H173  1  0.04368473  0.75431278  1.00572226  1
  H  H174  1  0.04171681  0.25282484  0.50729445  1
  H  H175  1  0.27991443  0.41768576  0.50822104  1
  H  H176  1  0.47097242  0.24747420  0.51045863  1
  H  H177  1  0.71899704  0.91740751  0.49598163  1
  H  H178  1  0.28904478  0.25204591  1.00542999  1
  H  H179  1  0.89967384  0.91964794  0.49236051  1
  H  H180  1  0.45202229  0.58392316  -0.00462137  1
  H  H181  1  0.05464053  0.08349578  0.49387960  1
  H  H182  1  0.45462174  0.42649188  0.49730937  1
  H  H183  1  0.64036114  0.58211941  0.50946410  1
  H  H184  1  0.46956317  0.24525205  -0.00666166  1
  H  H185  1  0.64608983  0.42199596  0.48956295  1
  H  H186  1  0.80705060  0.41985854  0.50440551  1
  H  H187  1  0.06537677  0.41747804  1.00688660  1
  H  H188  1  0.19925078  0.74894107  -0.00910600  1
  H  H189  1  0.29442108  0.58641312  1.00512694  1
  H  H190  1  0.67794225  0.25644844  0.99814087  1
  H  H191  1  0.70408582  0.75004057  -0.00451414  1
  Pb  Pb192  1  0.24796409  0.04674417  0.74966193  1
  Pb  Pb193  1  0.24355823  0.38490691  0.75135004  1
  Pb  Pb194  1  0.24604161  0.71400183  0.74917767  1
  Pb  Pb195  1  0.74769038  0.04767725  0.75737068  1
  Pb  Pb196  1  0.75137218  0.37990326  0.74557938  1
  Pb  Pb197  1  0.74526577  0.71564661  0.75404962  1
  Pb  Pb198  1  0.25830925  0.27920600  0.24743018  1
  Pb  Pb199  1  0.25226872  0.61816664  0.25453857  1
  Pb  Pb200  1  0.24877894  0.95060510  0.24135177  1
  Pb  Pb201  1  0.75351272  0.28641535  0.24816554  1
  Pb  Pb202  1  0.75563722  0.61711690  0.24459590  1
  Pb  Pb203  1  0.74907401  0.94970366  0.26233967  1
  Pb  Pb204  1  -0.00202338  0.21321973  0.74039379  1
  Pb  Pb205  1  -0.00971664  0.54986680  0.74708146  1
  Pb  Pb206  1  0.00224485  0.88184616  0.76032007  1
  Pb  Pb207  1  0.49582408  0.21676882  0.75377102  1
  Pb  Pb208  1  0.49649200  0.54791823  0.75290428  1
  Pb  Pb209  1  0.50209560  0.88082171  0.74485844  1
  Pb  Pb210  1  0.00004133  0.11738824  0.24515291  1
  Pb  Pb211  1  0.00001248  0.45178883  0.25376743  1
  Pb  Pb212  1  0.00685268  0.78358401  0.26020750  1
  Pb  Pb213  1  0.50712167  0.11504227  0.25422839  1
  Pb  Pb214  1  0.49975511  0.45029593  0.24779997  1
  Pb  Pb215  1  0.50437847  0.78421526  0.23899650  1
  C  C216  1  0.00022759  0.04446868  0.63283127  1
  C  C217  1  0.00933251  0.38108869  0.63366734  1
  C  C218  1  0.00189010  0.70648931  0.62505826  1
  C  C219  1  0.49099186  0.04508723  0.63179783  1
  C  C220  1  0.50131604  0.37977809  0.63425419  1
  C  C221  1  0.49864383  0.70960573  0.62508024  1
  C  C222  1  0.00793870  0.28790516  0.13103519  1
  C  C223  1  0.00703440  0.62364572  0.13395917  1
  C  C224  1  -0.00047514  0.95876262  0.13134050  1
  C  C225  1  0.50141157  0.28893623  0.12989243  1
  C  C226  1  0.50140326  0.62054619  0.13633342  1
  C  C227  1  0.49537266  0.95582460  0.12235318  1
  C  C228  1  -0.00726044  0.04609044  0.87329110  1
  C  C229  1  0.00169453  0.37578605  0.87123052  1
  C  C230  1  -0.00565737  0.71091242  0.86806592  1
  C  C231  1  0.49291339  0.04373723  0.87194722  1
  C  C232  1  0.49884312  0.37752272  0.86595095  1
  C  C233  1  0.48971519  0.71206287  0.87207424  1
  C  C234  1  0.01033170  0.29084394  0.36893002  1
  C  C235  1  0.01121266  0.62173109  0.37528262  1
  C  C236  1  -0.00179411  0.95509588  0.36738572  1
  C  C237  1  0.49320399  0.28873618  0.37188672  1
  C  C238  1  0.50031248  0.62582911  0.36780864  1
  C  C239  1  0.48974706  0.95591379  0.36663700  1
  C  C240  1  0.24930228  0.20269013  0.62918813  1
  C  C241  1  0.24184847  0.54683502  0.62673013  1
  C  C242  1  0.26045286  0.87451585  0.63272053  1
  C  C243  1  0.74507611  0.21101116  0.63306900  1
  C  C244  1  0.74776099  0.54692497  0.62993055  1
  C  C245  1  0.75125863  0.87220310  0.63215804  1
  C  C246  1  0.24739366  0.12042402  0.12704567  1
  C  C247  1  0.25334646  0.45481565  0.13439182  1
  C  C248  1  0.26234881  0.78654303  0.12842364  1
  C  C249  1  0.75251978  0.12323866  0.12831910  1
  C  C250  1  0.74648710  0.45398651  0.12987182  1
  C  C251  1  0.76165812  0.78983458  0.13362766  1
  C  C252  1  0.24402806  0.20681604  0.87150115  1
  C  C253  1  0.24802659  0.54529723  0.86488165  1
  C  C254  1  0.25347954  0.87649341  0.87017669  1
  C  C255  1  0.74429122  0.20974408  0.86681695  1
  C  C256  1  0.74480645  0.54194721  0.86549112  1
  C  C257  1  0.75897980  0.88322082  0.87460328  1
  C  C258  1  0.25440785  0.11830548  0.36500713  1
  C  C259  1  0.24633011  0.46012258  0.37118555  1
  C  C260  1  0.25285397  0.79021893  0.37056055  1
  C  C261  1  0.74867445  0.12145732  0.36959892  1
  C  C262  1  0.74800319  0.45650538  0.36586899  1
  C  C263  1  0.76045638  0.78774525  0.37362420  1
  C  C264  1  0.02259859  0.07228101  0.53619657  1
  C  C265  1  0.69227935  0.43110436  0.45502393  1
  C  C266  1  0.96537278  0.08138538  0.96493939  1
  C  C267  1  0.18488992  0.56845355  0.95158408  1
  C  C268  1  0.47787682  0.40997118  0.95962037  1
  C  C269  1  0.42053839  0.93306778  0.45086971  1
  C  C270  1  0.01385005  0.74261798  0.96245382  1
  C  C271  1  0.48169015  0.59486098  0.03870878  1
  C  C272  1  0.02666571  0.92596176  0.46281658  1
  C  C273  1  0.77382440  0.43051920  0.46256457  1
  C  C274  1  0.31518991  0.76286521  0.03764986  1
  C  C275  1  0.97599041  0.58841980  0.04265398  1
  C  C276  1  0.18358933  0.24322048  0.95483588  1
  C  C277  1  0.25595512  0.90667287  0.96788653  1
  C  C278  1  0.27716253  0.58330838  0.53715442  1
  C  C279  1  0.77119786  0.57190999  0.95936225  1
  C  C280  1  0.68845596  0.57328765  0.54256522  1
  C  C281  1  0.76825259  0.75138630  0.46736833  1
  C  C282  1  0.94128369  0.07016495  0.54483752  1
  C  C283  1  0.04561819  0.41216898  0.54198674  1
  C  C284  1  0.52895256  0.73894902  0.52978103  1
  C  C285  1  0.03060593  0.74346620  0.53439149  1
  C  C286  1  0.44743787  0.73618073  0.53467563  1
  C  C287  1  0.81347460  0.09494528  0.45426491  1
  C  C288  1  0.56276036  0.59662579  0.04902695  1
  C  C289  1  0.94134946  0.26017485  0.44969285  1
  C  C290  1  0.30153991  0.90599898  0.54227068  1
  C  C291  1  0.26688074  0.42418612  0.03911848  1
  C  C292  1  0.26561521  0.57277651  0.96225131  1
  C  C293  1  0.73373338  0.09008174  0.46649988  1
  C  C294  1  0.95315927  0.59548459  0.46185387  1
  C  C295  1  0.17832745  0.43179165  0.45429047  1
  C  C296  1  0.48368723  0.41226589  0.54007757  1
  C  C297  1  0.73559391  0.76147240  0.03810487  1
  C  C298  1  0.49993494  0.92713571  0.46452230  1
  C  C299  1  0.03331549  0.59205947  0.46993094  1
  C  C300  1  0.68319876  0.90816060  0.95469544  1
  C  C301  1  0.71406897  0.24285026  0.95873200  1
  C  C302  1  0.23362745  0.76024568  0.03204483  1
  C  C303  1  0.80357647  0.42530166  0.04361581  1
  C  C304  1  0.94502701  0.92873155  0.45717346  1
  C  C305  1  0.76136581  0.91440973  0.97214446  1
  C  C306  1  0.71553927  0.23855963  0.53891421  1
  C  C307  1  0.33311173  0.89823110  0.94885873  1
  C  C308  1  0.94796490  0.40278711  0.96105704  1
  C  C309  1  0.02981512  0.40529922  0.96662380  1
  C  C310  1  0.76960179  0.57649642  0.53349254  1
  C  C311  1  0.23662404  0.08736261  0.03206181  1
  N  N312  1  0.24524707  0.75368845  0.46498455  1
  N  N313  1  0.18881897  0.42675266  0.04932010  1
  N  N314  1  0.00777534  0.92417758  0.03864435  1
  N  N315  1  0.04269749  0.25357523  0.03921420  1
  N  N316  1  0.53972303  0.07401561  0.54161419  1
  N  N317  1  0.05327209  0.59115536  0.04374818  1
  N  N318  1  0.50517645  0.74608309  0.96456278  1
  N  N319  1  0.95347671  0.74331913  0.53719449  1
  N  N320  1  0.79311278  0.24071461  0.95695988  1
  N  N321  1  0.01900093  0.25606029  0.46294614  1
  N  N322  1  0.79468421  0.23777029  0.54163868  1
  N  N323  1  0.29166711  0.25233962  0.54835358  1
  N  N324  1  0.56197460  0.40855210  0.54808059  1
  N  N325  1  0.71867080  0.08735156  0.04009486  1
  N  N326  1  0.48956757  0.25451242  0.46501055  1
  N  N327  1  0.20887496  0.25097814  0.54675404  1
  N  N328  1  0.55656981  0.40753106  0.95325932  1
  N  N329  1  0.55494619  0.59422473  0.45405371  1
  N  N330  1  0.79668755  0.08681542  0.03996157  1
  N  N331  1  0.47979732  0.58962291  0.46112272  1
  N  N332  1  0.93131667  0.92633817  0.05075899  1
  N  N333  1  0.72735562  0.42169671  0.03325370  1
  N  N334  1  0.52948628  0.07575644  0.96422023  1
  N  N335  1  0.22235360  0.90684011  0.53990232  1
  N  N336  1  0.96674082  0.25618749  0.03979723  1
  N  N337  1  0.74076295  0.90950700  0.54071650  1
  N  N338  1  0.96638785  0.41129029  0.54147763  1
  N  N339  1  0.22083978  0.09428597  0.46044956  1
  N  N340  1  0.26170184  0.24414758  0.96324635  1
  N  N341  1  0.93544267  0.74141196  0.95433879  1
  N  N342  1  0.31272857  0.09150719  0.04263189  1
  N  N343  1  0.45117362  0.07575711  0.96011323  1
  N  N344  1  0.56813920  0.25650924  0.04844894  1
  N  N345  1  0.53934904  0.91980637  0.03505169  1
  N  N346  1  0.56542211  0.25859676  0.45141463  1
  N  N347  1  0.46157275  0.07562695  0.54037078  1
  N  N348  1  0.69242424  0.75671907  0.45640522  1
  N  N349  1  0.49150510  0.25277962  0.03788531  1
  N  N350  1  0.81438869  0.76249170  0.04605015  1
  N  N351  1  0.46190406  0.93120459  0.02852741  1
  N  N352  1  0.04255320  0.08057138  0.96180771  1
  N  N353  1  0.42798794  0.74269376  0.95666575  1
  N  N354  1  0.19998328  0.58310029  0.53656423  1
  N  N355  1  0.69236036  0.57185308  0.95454880  1
  N  N356  1  0.25563000  0.42495197  0.46473456  1
  N  N357  1  0.81716966  0.90601166  0.55142549  1
  N  N358  1  0.29770483  0.09464635  0.45822221  1
  N  N359  1  0.32045092  0.75979522  0.44991356  1
  N  N360  1  0.05802289  0.05631524  0.59130184  1
  N  N361  1  0.07332514  0.39387827  0.59844919  1
  N  N362  1  0.06315522  0.72168127  0.58720200  1
  N  N363  1  0.55724954  0.05683674  0.59947371  1
  N  N364  1  0.57139360  0.38853128  0.60683512  1
  N  N365  1  0.55964920  0.72235815  0.58748587  1
  N  N366  1  0.44937616  0.27476521  0.08602267  1
  N  N367  1  0.44486815  0.60986114  0.09343957  1
  N  N368  1  0.43392078  0.94560732  0.08496763  1
  N  N369  1  0.94348705  0.27780289  0.09651906  1
  N  N370  1  0.94535077  0.60811875  0.09693510  1
  N  N371  1  0.92707273  0.94583371  0.10908132  1
  N  N372  1  0.42766910  0.05450177  0.90508020  1
  N  N373  1  0.44077089  0.39168776  0.90649974  1
  N  N374  1  0.41886199  0.72315619  0.89856552  1
  N  N375  1  0.93184518  0.06050631  0.91194774  1
  N  N376  1  0.93245110  0.38460339  0.90138616  1
  N  N377  1  0.92470857  0.72131813  0.89541098  1
  N  N378  1  0.06177285  0.27869003  0.41402411  1
  N  N379  1  0.06879150  0.60792706  0.41723099  1
  N  N380  1  0.05816628  0.94265219  0.40669041  1
  N  N381  1  0.56681143  0.27772381  0.39270118  1
  N  N382  1  0.56951407  0.61692313  0.39655408  1
  N  N383  1  0.54215448  0.94190997  0.41088170  1
  N  N384  1  0.31364016  0.21886388  0.59753404  1
  N  N385  1  0.30582250  0.56158979  0.59136059  1
  N  N386  1  0.32616210  0.88661134  0.59918494  1
  N  N387  1  0.81132929  0.22079970  0.60067196  1
  N  N388  1  0.80509658  0.55983120  0.58828187  1
  N  N389  1  0.82326871  0.88479450  0.60899523  1
  N  N390  1  0.19434777  0.10492164  0.08243003  1
  N  N391  1  0.18235423  0.44569357  0.10860804  1
  N  N392  1  0.20180121  0.77555709  0.08954512  1
  N  N393  1  0.68996231  0.11100210  0.09279310  1
  N  N394  1  0.69126383  0.44038986  0.08838297  1
  N  N395  1  0.70262379  0.77795900  0.09263230  1
  N  N396  1  0.17253364  0.22103025  0.89776228  1
  N  N397  1  0.17556712  0.55165914  0.89119847  1
  N  N398  1  0.20703158  0.89277355  0.91759599  1
  N  N399  1  0.68233946  0.22403635  0.90364928  1
  N  N400  1  0.67743507  0.55328639  0.89581219  1
  N  N401  1  0.68285812  0.88958760  0.89561054  1
  N  N402  1  0.31944675  0.10943033  0.39908393  1
  N  N403  1  0.29874019  0.44526960  0.41434131  1
  N  N404  1  0.32609102  0.78294062  0.39289628  1
  N  N405  1  0.82233917  0.11347217  0.39564177  1
  N  N406  1  0.80701796  0.44648863  0.40681783  1
  N  N407  1  0.81229657  0.77008742  0.41821510  1
  N  N408  1  0.44409314  0.27521335  0.41799267  1
  N  N409  1  0.44435665  0.60895069  0.40791252  1
  N  N410  1  0.41516058  0.95032528  0.39145712  1
  N  N411  1  0.93606411  0.28006249  0.39103926  1
  N  N412  1  0.93985650  0.61327169  0.40385148  1
  N  N413  1  0.92879098  0.94652888  0.39772408  1
  N  N414  1  0.05978578  0.05822392  0.90353988  1
  N  N415  1  0.06183386  0.38882853  0.91035401  1
  N  N416  1  0.05135000  0.72465664  0.90958511  1
  N  N417  1  0.55455050  0.05748202  0.90840940  1
  N  N418  1  0.56772084  0.38744121  0.89485145  1
  N  N419  1  0.54433250  0.72548502  0.91435824  1
  N  N420  1  0.06985765  0.27277078  0.09583003  1
  N  N421  1  0.07304646  0.61321719  0.10168255  1
  N  N422  1  0.05061034  0.94601621  0.08628096  1
  N  N423  1  0.57351755  0.27707596  0.10657372  1
  N  N424  1  0.57326468  0.61248582  0.10959704  1
  N  N425  1  0.56066666  0.94183667  0.09043327  1
  N  N426  1  0.43031626  0.05611302  0.59393894  1
  N  N427  1  0.44502331  0.39455302  0.59256030  1
  N  N428  1  0.42984082  0.71872259  0.59285170  1
  N  N429  1  0.92921358  0.05304852  0.60509445  1
  N  N430  1  0.94564517  0.39216134  0.59869377  1
  N  N431  1  0.93523392  0.71958787  0.59474696  1
  N  N432  1  0.19304641  0.10850850  0.40278326  1
  N  N433  1  0.17236822  0.45170600  0.39574572  1
  N  N434  1  0.20340630  0.77196642  0.41530186  1
  N  N435  1  0.69415391  0.10695414  0.41221088  1
  N  N436  1  0.67775511  0.44703892  0.39481395  1
  N  N437  1  0.68777956  0.77956415  0.39652831  1
  N  N438  1  0.29999504  0.21987102  0.91276717  1
  N  N439  1  0.30365772  0.55799105  0.90787594  1
  N  N440  1  0.33065561  0.88022645  0.88953609  1
  N  N441  1  0.81018127  0.22006777  0.89959194  1
  N  N442  1  0.80490658  0.55414963  0.90492300  1
  N  N443  1  0.80794324  0.89841090  0.92078041  1
  N  N444  1  0.31946049  0.11225933  0.10309515  1
  N  N445  1  0.30805540  0.44101442  0.09102185  1
  N  N446  1  0.33159871  0.77869991  0.09624032  1
  N  N447  1  0.81724530  0.10823039  0.09557900  1
  N  N448  1  0.81795279  0.44456052  0.10229947  1
  N  N449  1  0.83040506  0.78108673  0.10441733  1
  N  N450  1  0.18593625  0.21738447  0.59577985  1
  N  N451  1  0.17757058  0.55993288  0.59359836  1
  N  N452  1  0.19845401  0.88692422  0.59660204  1
  N  N453  1  0.68376581  0.22230215  0.59463984  1
  N  N454  1  0.67641383  0.55527450  0.60250801  1
  N  N455  1  0.69913843  0.88650827  0.58838322  1
  Cl  Cl456  1  0.24610265  0.05741096  0.61706365  1
  Cl  Cl457  1  0.26086178  0.39893684  0.60656056  1
  Cl  Cl458  1  0.24721481  0.71936390  0.61927360  1
  Cl  Cl459  1  0.73945475  0.04940591  0.62451085  1
  Cl  Cl460  1  0.76025347  0.38896005  0.61197035  1
  Cl  Cl461  1  0.74840413  0.72566752  0.62254754  1
  Cl  Cl462  1  0.26459191  0.27090429  0.10266996  1
  Cl  Cl463  1  0.26071835  0.61369783  0.11932240  1
  Cl  Cl464  1  0.24030936  0.94875046  0.10523407  1
  Cl  Cl465  1  0.75886584  0.27975793  0.11641105  1
  Cl  Cl466  1  0.76281091  0.61233188  0.10988100  1
  Cl  Cl467  1  0.74100900  0.94442186  0.12847620  1
  Cl  Cl468  1  0.24618201  0.06114040  0.88285433  1
  Cl  Cl469  1  0.25344191  0.38640765  0.88658731  1
  Cl  Cl470  1  0.23394896  0.72351916  0.88423550  1
  Cl  Cl471  1  0.73891468  0.05854467  0.89358151  1
  Cl  Cl472  1  0.75088436  0.38408554  0.87214454  1
  Cl  Cl473  1  0.72966006  0.72565309  0.89150439  1
  Cl  Cl474  1  0.25421758  0.26432162  0.40647514  1
  Cl  Cl475  1  0.26014079  0.60662373  0.38799762  1
  Cl  Cl476  1  0.23717554  0.94232671  0.37126022  1
  Cl  Cl477  1  0.75169714  0.27666428  0.37825934  1
  Cl  Cl478  1  0.75458248  0.61759377  0.37597327  1
  Cl  Cl479  1  0.72887561  0.93632645  0.40103252  1
  Cl  Cl480  1  0.00390556  0.22894546  0.60349968  1
  Cl  Cl481  1  -0.00954474  0.56090321  0.61285240  1
  Cl  Cl482  1  0.01203587  0.88557816  0.62735980  1
  Cl  Cl483  1  0.49473933  0.22660244  0.60802300  1
  Cl  Cl484  1  0.48894560  0.55555845  0.62379708  1
  Cl  Cl485  1  0.51573403  0.89222924  0.61076040  1
  Cl  Cl486  1  0.00317154  0.10528132  0.11321505  1
  Cl  Cl487  1  -0.00132076  0.45196553  0.12185370  1
  Cl  Cl488  1  0.01499347  0.77564072  0.12022168  1
  Cl  Cl489  1  0.50643576  0.10865163  0.12067982  1
  Cl  Cl490  1  0.49615909  0.43826539  0.11164764  1
  Cl  Cl491  1  0.51956919  0.77804656  0.10094269  1
  Cl  Cl492  1  -0.00786996  0.21447207  0.86818219  1
  Cl  Cl493  1  -0.01127737  0.55604763  0.87783638  1
  Cl  Cl494  1  0.01596740  0.89750605  0.90194747  1
  Cl  Cl495  1  0.48507892  0.22758660  0.89696060  1
  Cl  Cl496  1  0.48853160  0.55666085  0.88863590  1
  Cl  Cl497  1  0.50712283  0.88685092  0.87766416  1
  Cl  Cl498  1  0.00994631  0.11318189  0.37990391  1
  Cl  Cl499  1  -0.00817492  0.45105189  0.38557403  1
  Cl  Cl500  1  0.01338025  0.77067510  0.39284622  1
  Cl  Cl501  1  0.50325327  0.10883179  0.39039987  1
  Cl  Cl502  1  0.48108566  0.43759154  0.38474145  1
  Cl  Cl503  1  0.50447540  0.77815091  0.36902822  1
  Cl  Cl504  1  0.36457031  0.14593357  0.74573323  1
  Cl  Cl505  1  0.35656252  0.48375961  0.74873516  1
  Cl  Cl506  1  0.36730893  0.80960506  0.75623704  1
  Cl  Cl507  1  0.85709418  0.14919541  0.74013940  1
  Cl  Cl508  1  0.85186379  0.48600277  0.74697808  1
  Cl  Cl509  1  0.86464011  0.81322433  0.75685202  1
  Cl  Cl510  1  0.13959274  0.18333331  0.24496489  1
  Cl  Cl511  1  0.13801867  0.51893436  0.24765437  1
  Cl  Cl512  1  0.14832760  0.84356977  0.24533606  1
  Cl  Cl513  1  0.64248491  0.18414656  0.24750443  1
  Cl  Cl514  1  0.63309643  0.52239188  0.25311840  1
  Cl  Cl515  1  0.64113705  0.84777472  0.25461126  1
  Cl  Cl516  1  0.14028911  0.15037686  0.74731691  1
  Cl  Cl517  1  0.13554030  0.47710506  0.75278271  1
  Cl  Cl518  1  0.14549790  0.82115072  0.74911413  1
  Cl  Cl519  1  0.63428900  0.14810265  0.75153542  1
  Cl  Cl520  1  0.63142283  0.47670201  0.74158323  1
  Cl  Cl521  1  0.64377758  0.82130105  0.75583746  1
  Cl  Cl522  1  0.36092640  0.18752021  0.23983152  1
  Cl  Cl523  1  0.36100288  0.51587568  0.25165623  1
  Cl  Cl524  1  0.36989341  0.85509641  0.24643696  1
  Cl  Cl525  1  0.86230183  0.18398012  0.25331559  1
  Cl  Cl526  1  0.85615947  0.51197895  0.24562275  1
  Cl  Cl527  1  0.86065498  0.85554944  0.25105971  1
  Cl  Cl528  1  0.11327809  0.31236669  0.75020016  1
  Cl  Cl529  1  0.10782333  0.64714314  0.75038267  1
  Cl  Cl530  1  0.10376639  0.98840501  0.75832496  1
  Cl  Cl531  1  0.61391907  0.31215818  0.74856091  1
  Cl  Cl532  1  0.60663257  0.64951468  0.74722944  1
  Cl  Cl533  1  0.60537624  0.98573222  0.75528653  1
  Cl  Cl534  1  0.37928830  0.02430570  0.25127474  1
  Cl  Cl535  1  0.38651655  0.34958529  0.24634693  1
  Cl  Cl536  1  0.39331780  0.68455350  0.25226770  1
  Cl  Cl537  1  0.88178063  0.01992814  0.25573179  1
  Cl  Cl538  1  0.89458978  0.34801612  0.25202681  1
  Cl  Cl539  1  0.89079251  0.68540691  0.25045768  1
  Cl  Cl540  1  0.39098728  0.31416308  0.74625699  1
  Cl  Cl541  1  0.38597222  0.64942023  0.75320717  1
  Cl  Cl542  1  0.38641254  0.97894935  0.75304844  1
  Cl  Cl543  1  0.89486690  0.31909706  0.74425544  1
  Cl  Cl544  1  0.88631196  0.65159953  0.75193589  1
  Cl  Cl545  1  0.88428508  0.97878536  0.74682783  1
  Cl  Cl546  1  0.10694549  0.01392222  0.24949603  1
  Cl  Cl547  1  0.11476540  0.35414613  0.25088059  1
  Cl  Cl548  1  0.11112328  0.68231375  0.25232142  1
  Cl  Cl549  1  0.59761925  0.01303800  0.24548450  1
  Cl  Cl550  1  0.61106698  0.34959201  0.25490853  1
  Cl  Cl551  1  0.62038092  0.68675073  0.24293931  1
