# generated using pymatgen
data_H8PbC4(N3Cl2)2
_symmetry_space_group_name_H-M   'P 1'
_cell_length_a   16.62465357
_cell_length_b   22.51094036
_cell_length_c   21.59255055
_cell_angle_alpha   90.00074139
_cell_angle_beta   89.98554046
_cell_angle_gamma   89.99743355
_symmetry_Int_Tables_number   1
_chemical_formula_structural   H8PbC4(N3Cl2)2
_chemical_formula_sum   'H192 Pb24 C96 N144 Cl96'
_cell_volume   8080.72211459
_cell_formula_units_Z   24
loop_
 _symmetry_equiv_pos_site_id
 _symmetry_equiv_pos_as_xyz
  1  'x, y, z'
loop_
 _atom_site_type_symbol
 _atom_site_label
 _atom_site_symmetry_multiplicity
 _atom_site_fract_x
 _atom_site_fract_y
 _atom_site_fract_z
 _atom_site_occupancy
  H  H0  1  -0.00774639  0.03227322  0.68103964  1
  H  H1  1  -0.00889842  0.36449204  0.67636676  1
  H  H2  1  0.00324432  0.69516299  0.67667661  1
  H  H3  1  0.49856278  0.02998801  0.67966105  1
  H  H4  1  0.50460169  0.36525885  0.68177208  1
  H  H5  1  0.50688180  0.69363938  0.68139891  1
  H  H6  1  -0.00161549  0.30276520  0.17787277  1
  H  H7  1  -0.01663518  0.63575770  0.17244978  1
  H  H8  1  0.00062924  0.97054835  0.17790815  1
  H  H9  1  0.49193891  0.30367843  0.17624925  1
  H  H10  1  0.51171620  0.63347221  0.18306333  1
  H  H11  1  0.49326327  0.96897039  0.17635523  1
  H  H12  1  0.00106469  0.02898735  0.82205804  1
  H  H13  1  0.00437365  0.36175759  0.82242873  1
  H  H14  1  0.01023550  0.69628988  0.82340825  1
  H  H15  1  0.50221576  0.03028531  0.82134569  1
  H  H16  1  0.50454435  0.36133914  0.82326285  1
  H  H17  1  0.49943101  0.69567229  0.81822583  1
  H  H18  1  -0.00562763  0.30044645  0.31613920  1
  H  H19  1  -0.00575038  0.63883371  0.32100693  1
  H  H20  1  0.01495500  0.96596658  0.31993500  1
  H  H21  1  0.51044907  0.30029510  0.31798795  1
  H  H22  1  0.49310443  0.63856994  0.32341960  1
  H  H23  1  0.48638227  0.97113846  0.32243993  1
  H  H24  1  0.24081202  0.19962281  0.68115658  1
  H  H25  1  0.26392739  0.53261125  0.67487434  1
  H  H26  1  0.25292812  0.85253229  0.67448566  1
  H  H27  1  0.75654586  0.19579564  0.68106973  1
  H  H28  1  0.75185178  0.53254637  0.68155834  1
  H  H29  1  0.74254315  0.86216943  0.67808909  1
  H  H30  1  0.24825188  0.13822532  0.17941322  1
  H  H31  1  0.24586412  0.47010916  0.17979034  1
  H  H32  1  0.26250675  0.80488948  0.17830886  1
  H  H33  1  0.74120106  0.13658507  0.17645774  1
  H  H34  1  0.75274234  0.46909943  0.18045958  1
  H  H35  1  0.73816534  0.80150253  0.17911163  1
  H  H36  1  0.25433591  0.19505459  0.82151962  1
  H  H37  1  0.25749970  0.53118845  0.81626173  1
  H  H38  1  0.25797278  0.86577714  0.82264258  1
  H  H39  1  0.74972231  0.19597407  0.82354471  1
  H  H40  1  0.74259525  0.53245975  0.82004282  1
  H  H41  1  0.74890638  0.86488757  0.82260362  1
  H  H42  1  0.25125509  0.13680224  0.32564226  1
  H  H43  1  0.26022746  0.47024003  0.32204259  1
  H  H44  1  0.23888476  0.79909938  0.32386635  1
  H  H45  1  0.75954695  0.13311345  0.31814747  1
  H  H46  1  0.73701532  0.47012553  0.31868571  1
  H  H47  1  0.74723147  0.80374749  0.32271401  1
  H  H48  1  0.13160554  0.05212289  0.62444472  1
  H  H49  1  0.12706054  0.38669731  0.61788741  1
  H  H50  1  0.11467290  0.72363691  0.59597179  1
  H  H51  1  0.63143891  0.05163300  0.61764010  1
  H  H52  1  0.62652539  0.38872672  0.60840421  1
  H  H53  1  0.62125488  0.72145786  0.60181244  1
  H  H54  1  0.38696519  0.27389337  0.09158399  1
  H  H55  1  0.37781670  0.61541232  0.12312333  1
  H  H56  1  0.37560401  0.94410435  0.10183176  1
  H  H57  1  0.87933793  0.27529487  0.10379953  1
  H  H58  1  0.88144674  0.60639584  0.08769800  1
  H  H59  1  0.88124165  0.94463779  0.10256270  1
  H  H60  1  0.37657848  0.05293496  0.88853189  1
  H  H61  1  0.37195305  0.38455384  0.88538388  1
  H  H62  1  0.37596426  0.72351782  0.88961011  1
  H  H63  1  0.87180720  0.05136996  0.88647476  1
  H  H64  1  0.86724742  0.38405002  0.87898023  1
  H  H65  1  0.87474920  0.71612157  0.88493384  1
  H  H66  1  0.12271199  0.28067721  0.38203224  1
  H  H67  1  0.12711228  0.61773880  0.38502446  1
  H  H68  1  0.11515856  0.94046964  0.40657733  1
  H  H69  1  0.61975820  0.27409934  0.40009933  1
  H  H70  1  0.62753147  0.61892962  0.38026136  1
  H  H71  1  0.62390205  0.94718472  0.37592779  1
  H  H72  1  0.37811880  0.21580318  0.62373140  1
  H  H73  1  0.36781053  0.55928109  0.59096776  1
  H  H74  1  0.37450383  0.88802831  0.60629976  1
  H  H75  1  0.87679555  0.22215018  0.60649056  1
  H  H76  1  0.86531366  0.55464178  0.60308261  1
  H  H77  1  0.87657533  0.88375726  0.61853064  1
  H  H78  1  0.12342463  0.11153658  0.10923409  1
  H  H79  1  0.13610092  0.44452931  0.09868467  1
  H  H80  1  0.12342552  0.78263514  0.12415242  1
  H  H81  1  0.63080436  0.10918077  0.09489930  1
  H  H82  1  0.63329298  0.44228061  0.10545544  1
  H  H83  1  0.63204061  0.77717698  0.09519329  1
  H  H84  1  0.12041311  0.21818696  0.88160098  1
  H  H85  1  0.12497070  0.55189846  0.88143787  1
  H  H86  1  0.12207874  0.88593822  0.88330987  1
  H  H87  1  0.61694948  0.21787990  0.88733748  1
  H  H88  1  0.62921887  0.55321261  0.89819522  1
  H  H89  1  0.62460981  0.89033619  0.89156828  1
  H  H90  1  0.36866366  0.10978366  0.39985663  1
  H  H91  1  0.36788999  0.44662930  0.40518179  1
  H  H92  1  0.37849365  0.78301689  0.37479094  1
  H  H93  1  0.86356634  0.10763812  0.40206712  1
  H  H94  1  0.87520755  0.45034739  0.37656953  1
  H  H95  1  0.88500305  0.78316189  0.37858948  1
  H  H96  1  0.37263088  0.28197783  0.37734721  1
  H  H97  1  0.38049940  0.61143098  0.40201955  1
  H  H98  1  0.37817337  0.94252613  0.40543693  1
  H  H99  1  0.87312188  0.28157282  0.38967423  1
  H  H100  1  0.87873763  0.60944595  0.39663249  1
  H  H101  1  0.87122399  0.95111406  0.36854655  1
  H  H102  1  0.12015490  0.05698273  0.89658934  1
  H  H103  1  0.11331881  0.39231667  0.90282801  1
  H  H104  1  0.12107028  0.72521196  0.90563278  1
  H  H105  1  0.62581426  0.05313184  0.89191259  1
  H  H106  1  0.61846294  0.39004723  0.90124023  1
  H  H107  1  0.62556783  0.71978304  0.88567587  1
  H  H108  1  0.12882951  0.28019185  0.11360057  1
  H  H109  1  0.12458339  0.62058503  0.12419664  1
  H  H110  1  0.12968042  0.94649321  0.11406827  1
  H  H111  1  0.63179748  0.28241899  0.12451861  1
  H  H112  1  0.62650699  0.61142509  0.10507450  1
  H  H113  1  0.62375436  0.94993669  0.11391214  1
  H  H114  1  0.38356856  0.05774006  0.60118132  1
  H  H115  1  0.37672450  0.38567439  0.61397528  1
  H  H116  1  0.37338006  0.71702722  0.61757075  1
  H  H117  1  0.88521487  0.05671581  0.59748528  1
  H  H118  1  0.88028157  0.39309444  0.59616367  1
  H  H119  1  0.86789305  0.71781397  0.61588897  1
  H  H120  1  0.12016643  0.11213788  0.38916961  1
  H  H121  1  0.12132026  0.45046453  0.37763184  1
  H  H122  1  0.13369557  0.77488306  0.40854628  1
  H  H123  1  0.61770161  0.11706187  0.37041924  1
  H  H124  1  0.62831773  0.44568467  0.40211668  1
  H  H125  1  0.63874994  0.77504092  0.40485188  1
  H  H126  1  0.36781328  0.22228480  0.90075789  1
  H  H127  1  0.37304498  0.55659311  0.89584762  1
  H  H128  1  0.36874709  0.89234674  0.90370337  1
  H  H129  1  0.86459297  0.22399091  0.90115638  1
  H  H130  1  0.87723301  0.55130439  0.88000358  1
  H  H131  1  0.87387725  0.89003987  0.89218296  1
  H  H132  1  0.37189193  0.11264041  0.10804644  1
  H  H133  1  0.38314575  0.44570673  0.12308176  1
  H  H134  1  0.36823221  0.77757344  0.09228140  1
  H  H135  1  0.87735301  0.11390743  0.11735788  1
  H  H136  1  0.88135816  0.44830411  0.11021951  1
  H  H137  1  0.87809433  0.78312045  0.12443533  1
  H  H138  1  0.13120291  0.22278128  0.60125370  1
  H  H139  1  0.12379233  0.54832629  0.62450229  1
  H  H140  1  0.12605548  0.88404376  0.61032451  1
  H  H141  1  0.62735314  0.21965355  0.61644122  1
  H  H142  1  0.61622469  0.55173082  0.62105195  1
  H  H143  1  0.62971275  0.89094110  0.59771843  1
  H  H144  1  0.45238820  0.91849719  0.50614384  1
  H  H145  1  0.20262238  0.41623826  -0.00690475  1
  H  H146  1  0.79036528  0.07956044  0.50705858  1
  H  H147  1  0.85624471  0.75104985  0.01647448  1
  H  H148  1  0.28859734  0.75420756  -0.00672072  1
  H  H149  1  0.08292080  0.26024252  0.49721468  1
  H  H150  1  0.03729620  0.91554473  0.51060797  1
  H  H151  1  0.40583111  0.58590984  0.01004534  1
  H  H152  1  0.65033542  0.24619090  0.99458136  1
  H  H153  1  0.36348392  0.75145568  0.48994181  1
  H  H154  1  0.58167337  0.74955640  0.99677264  1
  H  H155  1  0.29774829  0.42054333  0.51104985  1
  H  H156  1  0.17537345  0.08467496  0.00450871  1
  H  H157  1  0.59201579  0.92009957  0.00031305  1
  H  H158  1  0.57257481  0.42360972  0.50646381  1
  H  H159  1  0.81825876  0.23361684  0.49884443  1
  H  H160  1  0.13722031  0.58076198  0.50982883  1
  H  H161  1  0.15181988  0.91199064  0.99122857  1
  H  H162  1  0.31201758  0.90352364  0.50046528  1
  H  H163  1  0.92465687  0.26945898  0.50358665  1
  H  H164  1  0.93563371  0.24787891  -0.00020291  1
  H  H165  1  0.18157328  0.90011245  0.50307022  1
  H  H166  1  0.09442615  0.24890135  0.00277142  1
  H  H167  1  0.42872178  0.74424756  0.99633317  1
  H  H168  1  0.19812802  0.24575137  0.49147065  1
  H  H169  1  0.11354828  0.58791187  1.00885288  1
  H  H170  1  0.70122894  0.41953879  0.50664416  1
  H  H171  1  0.84882825  0.91663643  0.50667702  1
  H  H172  1  0.80479791  0.58285241  0.49509639  1
  H  H173  1  0.84770939  0.08643392  0.00941567  1
  H  H174  1  0.82468144  0.91898225  0.99738207  1
  H  H175  1  0.15791859  0.08308701  0.49621413  1
  H  H176  1  0.89434907  0.42408192  0.98265019  1
  H  H177  1  0.41932849  0.08454355  1.00003676  1
  H  H178  1  0.89803567  0.74726248  0.50816521  1
  H  H179  1  0.56673737  0.58451798  -0.00346133  1
  H  H180  1  0.41965386  0.41005761  0.50116677  1
  H  H181  1  0.70330474  0.74787616  -0.00903032  1
  H  H182  1  0.60562080  0.58566959  0.49402255  1
  H  H183  1  0.14461883  0.42282501  0.48667973  1
  H  H184  1  0.35694281  0.41927470  0.01454745  1
  H  H185  1  0.69125941  0.57806977  1.00846754  1
  H  H186  1  0.66668519  0.24417239  0.50289372  1
  H  H187  1  0.04032416  0.41248025  1.00436055  1
  H  H188  1  0.55248263  0.41569234  1.00375350  1
  H  H189  1  0.60040515  0.08244647  0.50592942  1
  H  H190  1  0.95756087  0.08209647  0.49291620  1
  H  H191  1  0.54786919  0.24668970  0.50499113  1
  Pb  Pb192  1  0.25145963  0.04751781  0.75118793  1
  Pb  Pb193  1  0.25235270  0.38177695  0.75313663  1
  Pb  Pb194  1  0.24644955  0.71313964  0.75284535  1
  Pb  Pb195  1  0.75295545  0.04720822  0.74875912  1
  Pb  Pb196  1  0.74761992  0.38024655  0.74561157  1
  Pb  Pb197  1  0.75193343  0.71556157  0.75070311  1
  Pb  Pb198  1  0.25073268  0.28707836  0.24498971  1
  Pb  Pb199  1  0.25207284  0.62065968  0.25381272  1
  Pb  Pb200  1  0.25632955  0.94953714  0.25900004  1
  Pb  Pb201  1  0.74897164  0.28412258  0.25621062  1
  Pb  Pb202  1  0.75812788  0.61859449  0.24736682  1
  Pb  Pb203  1  0.75006758  0.95386494  0.24016751  1
  Pb  Pb204  1  0.00246864  0.21644944  0.75001571  1
  Pb  Pb205  1  -0.00300221  0.54596441  0.74327567  1
  Pb  Pb206  1  0.00298861  0.88079537  0.75045034  1
  Pb  Pb207  1  0.50008680  0.21266687  0.75243459  1
  Pb  Pb208  1  0.50007581  0.54893330  0.75293223  1
  Pb  Pb209  1  0.49893829  0.88062357  0.74873814  1
  Pb  Pb210  1  0.00122196  0.11855025  0.25490337  1
  Pb  Pb211  1  0.00311360  0.45407145  0.24041545  1
  Pb  Pb212  1  0.00335151  0.78739574  0.25792580  1
  Pb  Pb213  1  0.49628149  0.12000195  0.24401680  1
  Pb  Pb214  1  0.50271772  0.45333550  0.25783545  1
  Pb  Pb215  1  0.50721252  0.78375206  0.24263901  1
  C  C216  1  0.00347544  0.04681655  0.63382830  1
  C  C217  1  -0.00015621  0.38072223  0.62974096  1
  C  C218  1  -0.00508455  0.71147185  0.62983406  1
  C  C219  1  0.50462878  0.04593706  0.63254540  1
  C  C220  1  0.50294428  0.38106685  0.63413690  1
  C  C221  1  0.50051265  0.70965664  0.63427894  1
  C  C222  1  0.00188540  0.28631404  0.13057502  1
  C  C223  1  -0.00238588  0.62048216  0.12618916  1
  C  C224  1  0.00364879  0.95442050  0.13086915  1
  C  C225  1  0.50342059  0.28691502  0.13016541  1
  C  C226  1  0.50497127  0.61966830  0.13512600  1
  C  C227  1  0.49825587  0.95420508  0.12879008  1
  C  C228  1  -0.00214062  0.04560885  0.86893680  1
  C  C229  1  -0.00528317  0.37859141  0.86909882  1
  C  C230  1  0.00215899  0.71126123  0.87087185  1
  C  C231  1  0.50094584  0.04562859  0.86883401  1
  C  C232  1  0.49833095  0.37806174  0.87017946  1
  C  C233  1  0.49965097  0.71186502  0.86568662  1
  C  C234  1  -0.00323471  0.28743641  0.36456763  1
  C  C235  1  0.00035607  0.62248177  0.36777130  1
  C  C236  1  0.00055456  0.95295215  0.36705603  1
  C  C237  1  0.50065128  0.28606779  0.36542400  1
  C  C238  1  0.50113166  0.62286191  0.37043743  1
  C  C239  1  0.49584008  0.95508308  0.36909200  1
  C  C240  1  0.25001196  0.21243530  0.63333886  1
  C  C241  1  0.25068262  0.54694422  0.62801749  1
  C  C242  1  0.25119435  0.87306435  0.62897128  1
  C  C243  1  0.75415937  0.21151143  0.63339636  1
  C  C244  1  0.74484440  0.54637739  0.63379819  1
  C  C245  1  0.74946751  0.87851584  0.63122821  1
  C  C246  1  0.24747618  0.12143933  0.13237219  1
  C  C247  1  0.25580331  0.45457396  0.13271561  1
  C  C248  1  0.25191042  0.78930136  0.13148935  1
  C  C249  1  0.75016028  0.12050971  0.12962416  1
  C  C250  1  0.75602048  0.45446601  0.13257749  1
  C  C251  1  0.74997854  0.78651528  0.13209585  1
  C  C252  1  0.24759044  0.21139165  0.86826977  1
  C  C253  1  0.25184526  0.54644331  0.86365819  1
  C  C254  1  0.24919218  0.88090248  0.86987402  1
  C  C255  1  0.74331441  0.21200575  0.87066708  1
  C  C256  1  0.74950838  0.54594723  0.86783524  1
  C  C257  1  0.74960964  0.88111122  0.86979578  1
  C  C258  1  0.24616109  0.12020583  0.37261420  1
  C  C259  1  0.24922138  0.45520378  0.36919453  1
  C  C260  1  0.25148589  0.78575189  0.37109926  1
  C  C261  1  0.74710658  0.11964887  0.36545336  1
  C  C262  1  0.74704865  0.45501028  0.36578839  1
  C  C263  1  0.75696502  0.78733947  0.36916397  1
  C  C264  1  0.55635215  0.59544813  0.45966774  1
  C  C265  1  0.01063327  0.92709902  0.46614647  1
  C  C266  1  0.18729915  0.57218617  0.54148259  1
  C  C267  1  0.56286742  0.25903147  0.04474330  1
  C  C268  1  0.26759371  0.57557321  0.53123243  1
  C  C269  1  0.68952060  0.57094062  0.54459075  1
  C  C270  1  0.23356613  0.75925462  0.46856571  1
  C  C271  1  0.98656126  0.07205247  0.53702024  1
  C  C272  1  0.51932470  0.25878219  0.46138411  1
  C  C273  1  0.30870846  0.23340173  0.54479468  1
  C  C274  1  0.46568356  0.92675559  0.03392352  1
  C  C275  1  0.54717307  0.92864290  0.03670231  1
  C  C276  1  0.04888361  0.92509881  0.04047623  1
  C  C277  1  0.23252656  0.42651258  0.03659912  1
  C  C278  1  0.68175149  0.09666760  0.45111932  1
  C  C279  1  0.80066088  0.90658461  0.54266183  1
  C  C280  1  0.04241518  0.26778246  0.45853844  1
  C  C281  1  0.06307494  0.59536814  0.04040603  1
  C  C282  1  0.19696577  0.24053844  0.95690224  1
  C  C283  1  0.45142257  0.59534272  0.04482242  1
  C  C284  1  0.97302189  0.58889685  0.46058825  1
  C  C285  1  0.45961632  0.07341606  0.96228042  1
  C  C286  1  0.55706291  0.92342228  0.45439738  1
  C  C287  1  0.47529129  0.59276689  0.46545025  1
  C  C288  1  0.72384234  0.56996518  0.96558001  1
  C  C289  1  0.98282306  0.59011801  0.02946445  1
  C  C290  1  0.27935421  0.08912587  0.46697699  1
  C  C291  1  0.73102844  0.75889419  0.03517401  1
  C  C292  1  0.81271494  0.75992375  0.45618486  1
  C  C293  1  0.95242452  0.07476500  0.95934977  1
  C  C294  1  0.54115336  0.07314703  0.96194373  1
  C  C295  1  0.70681197  0.23659572  0.54198388  1
  C  C296  1  0.80475546  0.57009237  0.95730792  1
  C  C297  1  0.05048249  0.25825991  0.04023903  1
  C  C298  1  0.77033527  0.57231912  0.53643854  1
  C  C299  1  0.76154527  0.09244965  0.46377482  1
  C  C300  1  0.26967747  0.42902828  0.46636058  1
  C  C301  1  0.31403186  0.76102228  0.45814301  1
  C  C302  1  0.45842340  0.40344417  0.54112340  1
  C  C303  1  0.97789488  0.41250146  0.53516870  1
  C  C304  1  0.22845906  0.23608509  0.53491157  1
  C  C305  1  0.93153560  0.93106793  0.45128364  1
  C  C306  1  0.53309594  0.59444630  0.03841216  1
  C  C307  1  0.55319187  0.07243448  0.54272098  1
  C  C308  1  0.54322853  0.74024873  0.95719874  1
  C  C309  1  0.96052473  0.27010398  0.46151651  1
  C  C310  1  0.72950700  0.42914594  0.46226969  1
  C  C311  1  0.70738341  0.91100993  0.96235548  1
  N  N312  1  0.20358319  0.57351120  0.95394135  1
  N  N313  1  0.05487400  0.40968748  0.54089093  1
  N  N314  1  0.78647979  0.23711954  0.53930083  1
  N  N315  1  0.80915088  0.76016148  0.04657645  1
  N  N316  1  0.52254579  0.40965800  0.96251973  1
  N  N317  1  0.97078126  0.25637833  0.03787158  1
  N  N318  1  0.02454808  0.74038029  0.96682122  1
  N  N319  1  0.46364869  0.74189384  0.95735020  1
  N  N320  1  0.69574507  0.23824875  0.95939607  1
  N  N321  1  0.31113870  0.42665672  0.04622615  1
  N  N322  1  0.05011751  0.59220984  0.45755873  1
  N  N323  1  0.27401624  0.24266050  0.96416877  1
  N  N324  1  0.79919223  0.43181672  0.03899601  1
  N  N325  1  0.93810779  0.40453802  0.95512470  1
  N  N326  1  0.28844719  0.91596279  0.54277651  1
  N  N327  1  0.20670809  0.91458828  0.54407034  1
  N  N328  1  0.03024167  0.07708529  0.96370729  1
  N  N329  1  0.18848900  0.76134135  0.04677020  1
  N  N330  1  0.73593214  0.75652268  0.46593717  1
  N  N331  1  0.27524843  0.90721467  0.96628547  1
  N  N332  1  0.01614388  0.41546944  0.96037272  1
  N  N333  1  0.80232062  0.09375601  0.04273736  1
  N  N334  1  0.02163856  0.74156409  0.53487958  1
  N  N335  1  0.72474214  0.09252675  0.03363674  1
  N  N336  1  0.26550304  0.75956814  0.03747431  1
  N  N337  1  0.77370481  0.24069456  0.96549183  1
  N  N338  1  0.80784545  0.42983065  0.45354283  1
  N  N339  1  0.06489601  0.07066198  0.54608125  1
  N  N340  1  0.47907725  0.92409155  0.46355987  1
  N  N341  1  0.97108062  0.92415382  0.03562529  1
  N  N342  1  0.94419733  0.73933668  0.54275335  1
  N  N343  1  0.94885586  0.73695575  0.96025503  1
  N  N344  1  0.45116700  0.73792292  0.54477004  1
  N  N345  1  0.52681348  0.73984502  0.53941079  1
  N  N346  1  0.19143723  0.42883986  0.45531939  1
  N  N347  1  0.28965526  0.09182498  0.04044275  1
  N  N348  1  0.47437564  0.07436763  0.53669139  1
  N  N349  1  0.78651534  0.91023685  0.96144257  1
  N  N350  1  0.72214395  0.90904042  0.53542838  1
  N  N351  1  0.21143757  0.09047645  0.04243368  1
  N  N352  1  0.72277758  0.42895245  0.03740571  1
  N  N353  1  0.44083338  0.26156767  0.45376093  1
  N  N354  1  0.44457718  0.40590512  0.95878730  1
  N  N355  1  0.19755435  0.90475302  0.95776984  1
  N  N356  1  0.48668314  0.25561904  0.03297148  1
  N  N357  1  0.27987279  0.57463741  0.95894149  1
  N  N358  1  0.20067150  0.09099609  0.46212991  1
  N  N359  1  0.53803665  0.40461872  0.54028521  1
  N  N360  1  0.07373678  0.05517727  0.60669233  1
  N  N361  1  0.06878484  0.38972667  0.60098618  1
  N  N362  1  0.05287844  0.72433640  0.58913101  1
  N  N363  1  0.57310350  0.05545668  0.60146356  1
  N  N364  1  0.56530627  0.39416895  0.59866135  1
  N  N365  1  0.55915559  0.72240582  0.59474235  1
  N  N366  1  0.44949018  0.27336139  0.08762799  1
  N  N367  1  0.43557271  0.61082767  0.10510814  1
  N  N368  1  0.43627800  0.94213665  0.08937746  1
  N  N369  1  0.94085839  0.27519427  0.09308632  1
  N  N370  1  0.94345443  0.60529859  0.08111538  1
  N  N371  1  0.94304262  0.94299269  0.09336864  1
  N  N372  1  0.43573273  0.05614662  0.90319236  1
  N  N373  1  0.43028134  0.38859945  0.90043844  1
  N  N374  1  0.43677104  0.72128206  0.90185032  1
  N  N375  1  0.93067912  0.05609653  0.90170847  1
  N  N376  1  0.92498393  0.39050528  0.89576723  1
  N  N377  1  0.93349520  0.71869016  0.90089935  1
  N  N378  1  0.06358903  0.27837677  0.39809352  1
  N  N379  1  0.06754297  0.61330270  0.39883815  1
  N  N380  1  0.05309804  0.94123175  0.41208386  1
  N  N381  1  0.55782526  0.27396224  0.40759379  1
  N  N382  1  0.57087656  0.61401403  0.39929889  1
  N  N383  1  0.56756347  0.94227010  0.39590948  1
  N  N384  1  0.32143973  0.21959676  0.60408923  1
  N  N385  1  0.30582637  0.56028394  0.58342304  1
  N  N386  1  0.31382372  0.88696174  0.59401759  1
  N  N387  1  0.81564646  0.21867935  0.59517600  1
  N  N388  1  0.80377581  0.55668039  0.59345773  1
  N  N389  1  0.81880200  0.88855660  0.60144880  1
  N  N390  1  0.18414219  0.11037752  0.09728670  1
  N  N391  1  0.19780101  0.44333621  0.09041745  1
  N  N392  1  0.18073405  0.77781578  0.10597035  1
  N  N393  1  0.69273217  0.10826978  0.08836917  1
  N  N394  1  0.69475766  0.44307951  0.09520265  1
  N  N395  1  0.69375253  0.77518066  0.08832953  1
  N  N396  1  0.17813223  0.22232070  0.89845132  1
  N  N397  1  0.18481943  0.55676078  0.89505108  1
  N  N398  1  0.18068391  0.88846345  0.89963603  1
  N  N399  1  0.67623758  0.22041916  0.90221690  1
  N  N400  1  0.69012798  0.55507611  0.90847883  1
  N  N401  1  0.68425812  0.89328393  0.90561235  1
  N  N402  1  0.30787786  0.10689888  0.41150863  1
  N  N403  1  0.30620036  0.44479184  0.41266281  1
  N  N404  1  0.32365281  0.77773802  0.39663594  1
  N  N405  1  0.80148749  0.10738396  0.40894883  1
  N  N406  1  0.81684468  0.44568600  0.39361265  1
  N  N407  1  0.82808355  0.77810826  0.39706063  1
  N  N408  1  0.43104102  0.27816020  0.39413787  1
  N  N409  1  0.44203689  0.60923324  0.41161199  1
  N  N410  1  0.44007703  0.94552301  0.41168321  1
  N  N411  1  0.93328760  0.28167044  0.40249082  1
  N  N412  1  0.94009050  0.60738496  0.40657317  1
  N  N413  1  0.92579841  0.94637036  0.39140866  1
  N  N414  1  0.05841289  0.05861050  0.90592618  1
  N  N415  1  0.05141003  0.38957925  0.91077767  1
  N  N416  1  0.05913416  0.72430572  0.91164195  1
  N  N417  1  0.56581729  0.05662191  0.90553779  1
  N  N418  1  0.55675131  0.39004604  0.90979028  1
  N  N419  1  0.56582187  0.72311396  0.89993541  1
  N  N420  1  0.06981325  0.27590099  0.09821835  1
  N  N421  1  0.07042221  0.61380325  0.10158650  1
  N  N422  1  0.07084999  0.94328817  0.09829913  1
  N  N423  1  0.57579657  0.27742850  0.10416296  1
  N  N424  1  0.56525111  0.60952502  0.09503090  1
  N  N425  1  0.56598200  0.94555916  0.09707817  1
  N  N426  1  0.44571999  0.05790279  0.59311685  1
  N  N427  1  0.43639154  0.38812997  0.59911840  1
  N  N428  1  0.43306782  0.71891145  0.60319316  1
  N  N429  1  0.94748824  0.05767250  0.59050672  1
  N  N430  1  0.94181856  0.39471526  0.58842269  1
  N  N431  1  0.92673547  0.72087875  0.60019990  1
  N  N432  1  0.17938531  0.11081894  0.40415331  1
  N  N433  1  0.17911706  0.44496358  0.39564298  1
  N  N434  1  0.19583526  0.77400679  0.41607936  1
  N  N435  1  0.67336478  0.11271786  0.39162007  1
  N  N436  1  0.69032963  0.44409270  0.40865926  1
  N  N437  1  0.70125849  0.77410357  0.41044085  1
  N  N438  1  0.30574467  0.22374867  0.90780330  1
  N  N439  1  0.31099916  0.55770456  0.90319691  1
  N  N440  1  0.30690915  0.89289393  0.91086975  1
  N  N441  1  0.80275058  0.22467447  0.90980541  1
  N  N442  1  0.81963332  0.55570336  0.89831500  1
  N  N443  1  0.81332564  0.89093213  0.90470682  1
  N  N444  1  0.31130760  0.10953261  0.09720605  1
  N  N445  1  0.32534717  0.44521475  0.10493733  1
  N  N446  1  0.30590928  0.77924015  0.08769920  1
  N  N447  1  0.81891972  0.11132588  0.10055608  1
  N  N448  1  0.82113720  0.44764149  0.09799060  1
  N  N449  1  0.82056076  0.77644485  0.10632141  1
  N  N450  1  0.19239478  0.22294971  0.59155984  1
  N  N451  1  0.17831081  0.55443161  0.60262484  1
  N  N452  1  0.18602734  0.88503394  0.59616026  1
  N  N453  1  0.68666062  0.22260101  0.60067432  1
  N  N454  1  0.67427070  0.55547963  0.60352747  1
  N  N455  1  0.69169170  0.89103259  0.59109198  1
  Cl  Cl456  1  0.25938572  0.05690356  0.61596981  1
  Cl  Cl457  1  0.25428262  0.38940735  0.61792514  1
  Cl  Cl458  1  0.24275871  0.72393329  0.62000816  1
  Cl  Cl459  1  0.76214245  0.05653389  0.61408423  1
  Cl  Cl460  1  0.75063703  0.38769822  0.60910140  1
  Cl  Cl461  1  0.74397028  0.71955916  0.61964693  1
  Cl  Cl462  1  0.25743128  0.28152313  0.11450388  1
  Cl  Cl463  1  0.25423063  0.61747136  0.12563497  1
  Cl  Cl464  1  0.25292698  0.94570405  0.12637603  1
  Cl  Cl465  1  0.75843508  0.27803819  0.12343623  1
  Cl  Cl466  1  0.75426170  0.61237780  0.11173231  1
  Cl  Cl467  1  0.75708612  0.94291649  0.10448083  1
  Cl  Cl468  1  0.24368568  0.05545358  0.88520049  1
  Cl  Cl469  1  0.23841833  0.39132531  0.89024672  1
  Cl  Cl470  1  0.25290501  0.72972421  0.89555775  1
  Cl  Cl471  1  0.74949475  0.04941758  0.88083764  1
  Cl  Cl472  1  0.73992983  0.38564558  0.87814198  1
  Cl  Cl473  1  0.74857475  0.72220152  0.88717043  1
  Cl  Cl474  1  0.24621945  0.28175816  0.37933023  1
  Cl  Cl475  1  0.25581211  0.61341646  0.38816731  1
  Cl  Cl476  1  0.24963465  0.93596866  0.40262352  1
  Cl  Cl477  1  0.74609519  0.27248049  0.39445496  1
  Cl  Cl478  1  0.75897988  0.61345479  0.37968720  1
  Cl  Cl479  1  0.74667566  0.94986308  0.36707790  1
  Cl  Cl480  1  0.00056754  0.22653965  0.61478635  1
  Cl  Cl481  1  -0.01101614  0.55401419  0.61262077  1
  Cl  Cl482  1  0.00499347  0.88571066  0.61527474  1
  Cl  Cl483  1  0.50623494  0.22271109  0.61741573  1
  Cl  Cl484  1  0.48807080  0.55196155  0.61974773  1
  Cl  Cl485  1  0.49754125  0.89413178  0.60660837  1
  Cl  Cl486  1  0.00107582  0.11445874  0.12209000  1
  Cl  Cl487  1  0.00993324  0.43846685  0.10179741  1
  Cl  Cl488  1  -0.00009123  0.78648754  0.12703181  1
  Cl  Cl489  1  0.50159108  0.10969417  0.10869728  1
  Cl  Cl490  1  0.51111810  0.43857100  0.11499553  1
  Cl  Cl491  1  0.49459281  0.77481220  0.09872162  1
  Cl  Cl492  1  -0.01147919  0.22567192  0.89162746  1
  Cl  Cl493  1  0.00216946  0.54682129  0.87626816  1
  Cl  Cl494  1  -0.00203829  0.88969711  0.88157388  1
  Cl  Cl495  1  0.49377113  0.22023085  0.88316155  1
  Cl  Cl496  1  0.49713421  0.55549489  0.88916691  1
  Cl  Cl497  1  0.49638121  0.88841249  0.88239954  1
  Cl  Cl498  1  -0.00897776  0.10887281  0.39026882  1
  Cl  Cl499  1  -0.00088227  0.45211232  0.37130569  1
  Cl  Cl500  1  0.01181978  0.77767014  0.38902371  1
  Cl  Cl501  1  0.48984106  0.11334680  0.37474172  1
  Cl  Cl502  1  0.50033459  0.44393950  0.39623882  1
  Cl  Cl503  1  0.51621464  0.78360692  0.37384311  1
  Cl  Cl504  1  0.35961640  0.14970163  0.74836604  1
  Cl  Cl505  1  0.35181856  0.47945919  0.75190923  1
  Cl  Cl506  1  0.35890085  0.81404555  0.75176727  1
  Cl  Cl507  1  0.85417134  0.14778388  0.75439693  1
  Cl  Cl508  1  0.86060826  0.47903187  0.75632698  1
  Cl  Cl509  1  0.85494513  0.81258102  0.74777444  1
  Cl  Cl510  1  0.13598067  0.18824123  0.25400407  1
  Cl  Cl511  1  0.14332466  0.51799957  0.24991674  1
  Cl  Cl512  1  0.14168291  0.85093655  0.25183479  1
  Cl  Cl513  1  0.64424134  0.18706186  0.24986310  1
  Cl  Cl514  1  0.63930854  0.52119818  0.24917097  1
  Cl  Cl515  1  0.64189401  0.85204206  0.24280534  1
  Cl  Cl516  1  0.13697916  0.14740773  0.75047060  1
  Cl  Cl517  1  0.13268591  0.47779899  0.74253563  1
  Cl  Cl518  1  0.13969952  0.81642083  0.75476103  1
  Cl  Cl519  1  0.63820255  0.14633946  0.75089634  1
  Cl  Cl520  1  0.63710630  0.48212699  0.74511612  1
  Cl  Cl521  1  0.63593655  0.81397907  0.75309698  1
  Cl  Cl522  1  0.35537337  0.18279493  0.25097567  1
  Cl  Cl523  1  0.36585642  0.51983790  0.24658616  1
  Cl  Cl524  1  0.35988048  0.85376528  0.25749936  1
  Cl  Cl525  1  0.86481436  0.18674156  0.24823559  1
  Cl  Cl526  1  0.86169406  0.51910168  0.25164439  1
  Cl  Cl527  1  0.86398746  0.85402634  0.25197555  1
  Cl  Cl528  1  0.10334908  0.31277317  0.75177012  1
  Cl  Cl529  1  0.10632879  0.64798951  0.74829272  1
  Cl  Cl530  1  0.11350797  0.97952216  0.74421327  1
  Cl  Cl531  1  0.60831301  0.31504546  0.74865381  1
  Cl  Cl532  1  0.60394344  0.64554402  0.75067310  1
  Cl  Cl533  1  0.61029455  0.98048239  0.74986839  1
  Cl  Cl534  1  0.39066021  0.01735608  0.24589470  1
  Cl  Cl535  1  0.38917118  0.35385387  0.25175557  1
  Cl  Cl536  1  0.38954290  0.68702314  0.25158388  1
  Cl  Cl537  1  0.88539863  0.02115039  0.24950409  1
  Cl  Cl538  1  0.89479160  0.35348206  0.24821949  1
  Cl  Cl539  1  0.89449065  0.68546086  0.24617797  1
  Cl  Cl540  1  0.38917871  0.31520205  0.75088949  1
  Cl  Cl541  1  0.38326699  0.64699444  0.75444117  1
  Cl  Cl542  1  0.38906827  0.98188451  0.74631789  1
  Cl  Cl543  1  0.88481841  0.31362471  0.75224525  1
  Cl  Cl544  1  0.88537500  0.64674381  0.75228971  1
  Cl  Cl545  1  0.89153495  0.98188585  0.75035071  1
  Cl  Cl546  1  0.10899233  0.01867323  0.25193891  1
  Cl  Cl547  1  0.11290589  0.35354938  0.24834748  1
  Cl  Cl548  1  0.11349447  0.68576326  0.24574145  1
  Cl  Cl549  1  0.61209635  0.02076257  0.24989800  1
  Cl  Cl550  1  0.61168109  0.35127050  0.24814329  1
  Cl  Cl551  1  0.60909016  0.68692801  0.24788024  1
