# generated using pymatgen
data_H8PbC4(N3Cl2)2
_symmetry_space_group_name_H-M   'P 1'
_cell_length_a   16.63072302
_cell_length_b   22.52869516
_cell_length_c   21.60200033
_cell_angle_alpha   90.00173369
_cell_angle_beta   89.98975951
_cell_angle_gamma   89.99421165
_symmetry_Int_Tables_number   1
_chemical_formula_structural   H8PbC4(N3Cl2)2
_chemical_formula_sum   'H192 Pb24 C96 N144 Cl96'
_cell_volume   8093.58865003
_cell_formula_units_Z   24
loop_
 _symmetry_equiv_pos_site_id
 _symmetry_equiv_pos_as_xyz
  1  'x, y, z'
loop_
 _atom_site_type_symbol
 _atom_site_label
 _atom_site_symmetry_multiplicity
 _atom_site_fract_x
 _atom_site_fract_y
 _atom_site_fract_z
 _atom_site_occupancy
  H  H0  1  -0.00896101  0.02846537  0.67470617  1
  H  H1  1  -0.00245953  0.36456309  0.68217915  1
  H  H2  1  -0.00476668  0.69098915  0.67842759  1
  H  H3  1  0.51157289  0.02925030  0.68080691  1
  H  H4  1  0.50410438  0.35994180  0.67353157  1
  H  H5  1  0.48908665  0.69873375  0.67230542  1
  H  H6  1  -0.01026059  0.31025005  0.17447220  1
  H  H7  1  0.01442895  0.63522707  0.18033537  1
  H  H8  1  -0.00252349  0.97681191  0.17456066  1
  H  H9  1  0.49856496  0.30027149  0.18699876  1
  H  H10  1  0.48884106  0.63451507  0.18236311  1
  H  H11  1  0.49433927  0.97089948  0.17258629  1
  H  H12  1  -0.00431380  0.02745194  0.82205198  1
  H  H13  1  0.00946803  0.35753694  0.82851938  1
  H  H14  1  0.00804118  0.69607975  0.82171389  1
  H  H15  1  0.49039229  0.02677380  0.82725482  1
  H  H16  1  0.48824427  0.35904230  0.82482164  1
  H  H17  1  0.48708433  0.69757549  0.81896324  1
  H  H18  1  -0.01020832  0.30376281  0.31766596  1
  H  H19  1  -0.01773760  0.63953059  0.32632800  1
  H  H20  1  0.01010776  0.97497518  0.32544475  1
  H  H21  1  0.50709656  0.30632070  0.32588024  1
  H  H22  1  0.50513852  0.64617600  0.32749174  1
  H  H23  1  0.49306501  0.97313674  0.31797917  1
  H  H24  1  0.25165239  0.19283151  0.67893937  1
  H  H25  1  0.27386209  0.52921810  0.67002941  1
  H  H26  1  0.25591903  0.85964800  0.67934506  1
  H  H27  1  0.75245705  0.19537516  0.68095861  1
  H  H28  1  0.73140633  0.52956800  0.67586479  1
  H  H29  1  0.74060439  0.85537943  0.67885995  1
  H  H30  1  0.25368750  0.13483136  0.18358231  1
  H  H31  1  0.25663377  0.46849030  0.18175835  1
  H  H32  1  0.24553815  0.80918685  0.17568492  1
  H  H33  1  0.74807554  0.13616426  0.17755563  1
  H  H34  1  0.74756402  0.47418116  0.17111396  1
  H  H35  1  0.74617497  0.80243508  0.17952180  1
  H  H36  1  0.25923197  0.19823450  0.81854950  1
  H  H37  1  0.25540058  0.52946550  0.81700671  1
  H  H38  1  0.24634754  0.86308880  0.81913280  1
  H  H39  1  0.75013312  0.19377629  0.82195857  1
  H  H40  1  0.75184054  0.52963473  0.81705194  1
  H  H41  1  0.75011204  0.86572356  0.82165530  1
  H  H42  1  0.24665002  0.13880606  0.31896982  1
  H  H43  1  0.23289954  0.47694951  0.32727658  1
  H  H44  1  0.25066570  0.80636923  0.32640788  1
  H  H45  1  0.75658338  0.13462370  0.33096827  1
  H  H46  1  0.76077077  0.46724269  0.31977750  1
  H  H47  1  0.75457761  0.80340015  0.32607400  1
  H  H48  1  0.12032358  0.05104610  0.61216640  1
  H  H49  1  0.13185829  0.38761252  0.62042577  1
  H  H50  1  0.13064071  0.71500359  0.61877418  1
  H  H51  1  0.62161622  0.05630434  0.59713003  1
  H  H52  1  0.62541693  0.38846605  0.60189463  1
  H  H53  1  0.62890252  0.71638050  0.62210974  1
  H  H54  1  0.38248822  0.27802584  0.10680772  1
  H  H55  1  0.38028062  0.61388774  0.09913902  1
  H  H56  1  0.38787422  0.93611046  0.09212124  1
  H  H57  1  0.87960361  0.27511283  0.09562070  1
  H  H58  1  0.87915611  0.60967357  0.12114164  1
  H  H59  1  0.88704277  0.94739062  0.09322145  1
  H  H60  1  0.38974132  0.06400325  0.91043134  1
  H  H61  1  0.39016336  0.39434541  0.91061776  1
  H  H62  1  0.36895733  0.72422155  0.89674041  1
  H  H63  1  0.87841393  0.05845354  0.89540236  1
  H  H64  1  0.88479976  0.38737789  0.89428763  1
  H  H65  1  0.86841907  0.71757337  0.87589632  1
  H  H66  1  0.12861166  0.28367444  0.37460589  1
  H  H67  1  0.11868767  0.61558811  0.38080473  1
  H  H68  1  0.12728927  0.94461872  0.40006854  1
  H  H69  1  0.63382901  0.27688829  0.39186025  1
  H  H70  1  0.61155715  0.61264605  0.40931203  1
  H  H71  1  0.62968815  0.95385985  0.37408113  1
  H  H72  1  0.36564662  0.22321013  0.60336647  1
  H  H73  1  0.37130943  0.56279931  0.58495597  1
  H  H74  1  0.36794175  0.88714672  0.59991753  1
  H  H75  1  0.86074817  0.21953464  0.59793083  1
  H  H76  1  0.87590050  0.54775707  0.62833973  1
  H  H77  1  0.86881490  0.88596005  0.61343903  1
  H  H78  1  0.11524318  0.11676900  0.12993545  1
  H  H79  1  0.11505512  0.44948338  0.12907643  1
  H  H80  1  0.13491794  0.77769448  0.09636162  1
  H  H81  1  0.61451023  0.11685139  0.11598893  1
  H  H82  1  0.61683288  0.44752580  0.10926694  1
  H  H83  1  0.63153288  0.77662745  0.10195851  1
  H  H84  1  0.11953931  0.21295381  0.87105554  1
  H  H85  1  0.12072585  0.54981979  0.87921401  1
  H  H86  1  0.11248016  0.88776020  0.88061873  1
  H  H87  1  0.61582156  0.21540831  0.87818437  1
  H  H88  1  0.62327940  0.55401095  0.88376881  1
  H  H89  1  0.61207549  0.88182445  0.87575888  1
  H  H90  1  0.37902489  0.11909119  0.37866257  1
  H  H91  1  0.37359926  0.45361334  0.37890362  1
  H  H92  1  0.36515718  0.77381397  0.40247361  1
  H  H93  1  0.88059003  0.11043690  0.39799618  1
  H  H94  1  0.86299206  0.44063446  0.40547414  1
  H  H95  1  0.86053628  0.77631228  0.40829309  1
  H  H96  1  0.38510685  0.27885356  0.39570781  1
  H  H97  1  0.36643020  0.61663038  0.37693162  1
  H  H98  1  0.38242727  0.94511771  0.39709953  1
  H  H99  1  0.88235239  0.27373895  0.39931604  1
  H  H100  1  0.87213602  0.61021943  0.40790619  1
  H  H101  1  0.87936835  0.95011002  0.39003928  1
  H  H102  1  0.12635713  0.05253994  0.88559355  1
  H  H103  1  0.13331948  0.38923599  0.89696484  1
  H  H104  1  0.11445957  0.72294356  0.90487311  1
  H  H105  1  0.63325590  0.04718616  0.87693338  1
  H  H106  1  0.63197046  0.37476154  0.87485556  1
  H  H107  1  0.61693003  0.72175232  0.88527616  1
  H  H108  1  0.12516613  0.28409651  0.11791945  1
  H  H109  1  0.12545638  0.61161093  0.09643097  1
  H  H110  1  0.13233979  0.94640428  0.11887166  1
  H  H111  1  0.63058104  0.27888976  0.12040489  1
  H  H112  1  0.62653950  0.61544155  0.12830700  1
  H  H113  1  0.63347274  0.94994614  0.11939576  1
  H  H114  1  0.37513343  0.05260187  0.62199201  1
  H  H115  1  0.37715958  0.38896781  0.60943842  1
  H  H116  1  0.38459319  0.72463043  0.58876926  1
  H  H117  1  0.87148317  0.05454947  0.60086459  1
  H  H118  1  0.88407025  0.38880250  0.60280229  1
  H  H119  1  0.88262931  0.72364183  0.60207203  1
  H  H120  1  0.13094091  0.11157735  0.39469039  1
  H  H121  1  0.13006804  0.44426213  0.41238115  1
  H  H122  1  0.11751473  0.78036205  0.38837501  1
  H  H123  1  0.63209554  0.11220448  0.39798710  1
  H  H124  1  0.61831515  0.45064489  0.37087074  1
  H  H125  1  0.61572766  0.78570077  0.37773165  1
  H  H126  1  0.36463143  0.22402449  0.90142138  1
  H  H127  1  0.36868140  0.55661439  0.89511020  1
  H  H128  1  0.36012585  0.89118915  0.89695292  1
  H  H129  1  0.86304282  0.22322105  0.89937748  1
  H  H130  1  0.87205940  0.55186391  0.89140159  1
  H  H131  1  0.85778412  0.89378774  0.90267414  1
  H  H132  1  0.36114075  0.10877942  0.10140552  1
  H  H133  1  0.35942617  0.44076662  0.09579280  1
  H  H134  1  0.38139908  0.78099718  0.12146903  1
  H  H135  1  0.86183405  0.11193182  0.09777171  1
  H  H136  1  0.86512534  0.44019238  0.09886582  1
  H  H137  1  0.87965318  0.78010424  0.11684313  1
  H  H138  1  0.11766322  0.21272054  0.61937126  1
  H  H139  1  0.13051672  0.54447875  0.62492194  1
  H  H140  1  0.12079134  0.88613889  0.62126641  1
  H  H141  1  0.61423333  0.21678706  0.62401501  1
  H  H142  1  0.63557308  0.56437196  0.58723676  1
  H  H143  1  0.62093489  0.88471182  0.60453127  1
  H  H144  1  0.29380853  0.25038689  1.00701829  1
  H  H145  1  0.14533329  0.24423657  0.50743587  1
  H  H146  1  0.29335282  0.08373612  -0.00451955  1
  H  H147  1  0.80672555  0.41335450  -0.00557352  1
  H  H148  1  0.62012024  0.41086038  0.98280467  1
  H  H149  1  0.04362120  0.75086500  1.00908573  1
  H  H150  1  0.88992662  0.74556267  0.98473205  1
  H  H151  1  0.78957526  0.24496370  0.49320501  1
  H  H152  1  0.60752435  0.59111545  0.01316381  1
  H  H153  1  0.35292447  0.42376699  0.48744968  1
  H  H154  1  0.94784747  0.75896306  0.49863257  1
  H  H155  1  0.15480099  0.74863069  0.49391473  1
  H  H156  1  0.47193400  0.08482488  1.00911069  1
  H  H157  1  0.47347834  0.41147701  1.00904049  1
  H  H158  1  0.09942488  0.58287161  0.49380484  1
  H  H159  1  0.58959855  0.24525909  0.49690554  1
  H  H160  1  0.13468449  0.24095247  -0.01460961  1
  H  H161  1  0.62815655  0.90945103  -0.00823064  1
  H  H162  1  0.28340704  0.41349688  -0.00543288  1
  H  H163  1  0.72229322  0.59123885  0.49294195  1
  H  H164  1  0.34939265  0.08681175  0.49181551  1
  H  H165  1  0.93827819  0.58275569  0.50683639  1
  H  H166  1  0.81793889  0.58299154  0.99840747  1
  H  H167  1  0.92243880  0.92079132  0.49592368  1
  H  H168  1  0.46299718  0.91235563  -0.00984099  1
  H  H169  1  0.30307298  0.58956315  0.99974756  1
  H  H170  1  0.44802296  0.59037839  -0.00759807  1
  H  H171  1  0.08472545  0.42132938  1.00038219  1
  H  H172  1  0.62331365  0.75409236  0.50099650  1
  H  H173  1  0.95430589  0.24067216  0.50129878  1
  H  H174  1  0.63455174  0.42243077  0.47991338  1
  H  H175  1  0.95163835  0.24688360  -0.00420108  1
  H  H176  1  0.69319323  0.74773558  -0.00428226  1
  H  H177  1  0.29980468  0.92080175  0.49622843  1
  H  H178  1  0.20586673  0.74816058  -0.00427031  1
  H  H179  1  0.78988423  0.92222078  1.00795385  1
  H  H180  1  0.13319236  0.09029164  1.01545331  1
  H  H181  1  0.29498509  0.92033838  1.00281196  1
  H  H182  1  0.64088012  0.25014058  -0.00882707  1
  H  H183  1  0.61881972  0.08660696  0.98364863  1
  H  H184  1  0.08475801  0.08429632  0.49965185  1
  H  H185  1  0.30686499  0.25196511  0.49599057  1
  H  H186  1  0.44776295  0.91360278  0.50288429  1
  H  H187  1  0.96026555  0.91836181  -0.00646925  1
  H  H188  1  0.60766978  0.92167756  0.48616673  1
  H  H189  1  0.78745979  0.41115251  0.50763647  1
  H  H190  1  0.94938513  0.41871633  0.49731253  1
  H  H191  1  0.53529055  0.58128082  0.50744324  1
  Pb  Pb192  1  0.24423513  0.05049514  0.75723617  1
  Pb  Pb193  1  0.24947078  0.38190705  0.75715824  1
  Pb  Pb194  1  0.24419312  0.71595159  0.75461610  1
  Pb  Pb195  1  0.74465806  0.04888045  0.74391663  1
  Pb  Pb196  1  0.74616371  0.38252551  0.74756444  1
  Pb  Pb197  1  0.74698247  0.71529628  0.75111692  1
  Pb  Pb198  1  0.25072888  0.28361372  0.24871299  1
  Pb  Pb199  1  0.24863356  0.61903298  0.23855721  1
  Pb  Pb200  1  0.25289769  0.95140569  0.25046370  1
  Pb  Pb201  1  0.75230981  0.28373963  0.25107797  1
  Pb  Pb202  1  0.75043232  0.61778600  0.25931677  1
  Pb  Pb203  1  0.75473252  0.95167080  0.24639766  1
  Pb  Pb204  1  -0.01085745  0.21812752  0.74948561  1
  Pb  Pb205  1  -0.00238066  0.54691355  0.75057974  1
  Pb  Pb206  1  -0.00859758  0.88398592  0.75495412  1
  Pb  Pb207  1  0.49289629  0.21678260  0.74903043  1
  Pb  Pb208  1  0.49482057  0.55025422  0.74207272  1
  Pb  Pb209  1  0.49018335  0.88519430  0.74901084  1
  Pb  Pb210  1  -0.00481610  0.11645314  0.25021053  1
  Pb  Pb211  1  -0.00208167  0.45073305  0.25672166  1
  Pb  Pb212  1  0.00013970  0.78510877  0.25070298  1
  Pb  Pb213  1  0.50159737  0.11731767  0.24256493  1
  Pb  Pb214  1  0.49636074  0.45117599  0.24034653  1
  Pb  Pb215  1  0.50036779  0.78516537  0.25298624  1
  C  C216  1  -0.00510365  0.04436405  0.62751954  1
  C  C217  1  0.00469187  0.37914359  0.63465033  1
  C  C218  1  0.00317272  0.70937222  0.63236502  1
  C  C219  1  0.50292061  0.04540384  0.63390818  1
  C  C220  1  0.50253314  0.37840935  0.62741860  1
  C  C221  1  0.50131133  0.71355030  0.62548111  1
  C  C222  1  -0.00223439  0.29045036  0.12923983  1
  C  C223  1  0.00655621  0.61952611  0.13320576  1
  C  C224  1  0.00534124  0.95838192  0.12864799  1
  C  C225  1  0.50392955  0.28633747  0.13901296  1
  C  C226  1  0.49901610  0.62129972  0.13461264  1
  C  C227  1  0.50499264  0.95362767  0.12636199  1
  C  C228  1  0.00053211  0.04526500  0.86825460  1
  C  C229  1  0.00977022  0.37656815  0.87450535  1
  C  C230  1  -0.00383571  0.71141137  0.86857709  1
  C  C231  1  0.50473773  0.04530459  0.87248723  1
  C  C232  1  0.50373943  0.37505881  0.87081402  1
  C  C233  1  0.49077865  0.71348635  0.86632494  1
  C  C234  1  0.00064756  0.28787063  0.36436574  1
  C  C235  1  -0.00931825  0.62266763  0.37308835  1
  C  C236  1  0.00524534  0.95731880  0.37200989  1
  C  C237  1  0.50923066  0.28834487  0.37231419  1
  C  C238  1  0.49454257  0.62662398  0.37249319  1
  C  C239  1  0.50206826  0.95781467  0.36518608  1
  C  C240  1  0.24468834  0.20888345  0.63182766  1
  C  C241  1  0.25807178  0.54533268  0.62446751  1
  C  C242  1  0.24801764  0.87668076  0.63281237  1
  C  C243  1  0.74212262  0.20990143  0.63370790  1
  C  C244  1  0.74737954  0.54575892  0.63019010  1
  C  C245  1  0.74343569  0.87360589  0.63237379  1
  C  C246  1  0.24277205  0.12096478  0.13618681  1
  C  C247  1  0.24326903  0.45470833  0.13473902  1
  C  C248  1  0.25373279  0.79076312  0.12991146  1
  C  C249  1  0.74133948  0.12278968  0.12978845  1
  C  C250  1  0.74361714  0.45564560  0.12484365  1
  C  C251  1  0.75278606  0.78648494  0.13232385  1
  C  C252  1  0.24710860  0.21179427  0.86597227  1
  C  C253  1  0.24802604  0.54552786  0.86396817  1
  C  C254  1  0.23921612  0.87929049  0.86611631  1
  C  C255  1  0.74210273  0.21035878  0.86856086  1
  C  C256  1  0.74890370  0.54539569  0.86446887  1
  C  C257  1  0.73936548  0.87958705  0.86906911  1
  C  C258  1  0.25300682  0.12303983  0.36605717  1
  C  C259  1  0.24580189  0.45907877  0.37286573  1
  C  C260  1  0.24379768  0.78822626  0.37259538  1
  C  C261  1  0.75633674  0.11880660  0.37837475  1
  C  C262  1  0.74653018  0.45314442  0.36671365  1
  C  C263  1  0.74305494  0.78871823  0.37304664  1
  C  C264  1  0.56467833  0.73996679  0.54017864  1
  C  C265  1  0.76142233  0.76006115  0.46908931  1
  C  C266  1  0.56019498  0.93141008  0.45302911  1
  C  C267  1  0.26934530  0.90845519  0.53897627  1
  C  C268  1  0.26267810  0.09502424  0.03853274  1
  C  C269  1  0.97125846  0.08081345  0.95974804  1
  C  C270  1  0.31231011  0.75529130  0.04519272  1
  C  C271  1  0.55943939  0.59976047  0.04617976  1
  C  C272  1  0.56718743  0.92223997  0.04191323  1
  C  C273  1  0.76096510  0.42408119  0.46348675  1
  C  C274  1  0.47835709  0.59880247  0.03606862  1
  C  C275  1  0.47889200  0.92760177  0.46112814  1
  C  C276  1  0.19095708  0.23507022  0.54230423  1
  C  C277  1  0.22293636  0.09360409  0.46066332  1
  C  C278  1  0.47014722  0.25474761  0.46429822  1
  C  C279  1  0.04931206  0.59274446  0.45930073  1
  C  C280  1  0.68122565  0.76319178  0.45950882  1
  C  C281  1  0.43211793  0.58861405  0.45424641  1
  C  C282  1  0.30413690  0.09590957  0.45664776  1
  C  C283  1  0.18165164  0.09807969  0.04849161  1
  C  C284  1  0.72698578  0.75857981  0.03752656  1
  C  C285  1  0.67816399  0.90223958  0.95722065  1
  C  C286  1  0.79659270  0.08852023  0.46913491  1
  C  C287  1  0.04155990  0.07327595  0.53604260  1
  C  C288  1  0.27249957  0.23909273  0.53668498  1
  C  C289  1  0.76011353  0.23524247  0.53715197  1
  C  C290  1  0.68748427  0.24007531  0.95716816  1
  C  C291  1  0.98330447  0.25542658  0.45868693  1
  C  C292  1  0.96666113  0.41301010  0.96434684  1
  C  C293  1  0.96000480  0.07419830  0.53390278  1
  C  C294  1  0.48445303  0.74270652  0.52943004  1
  C  C295  1  0.45997913  0.41035976  0.53709349  1
  C  C296  1  0.01530130  0.74009501  0.96502580  1
  C  C297  1  0.71575260  0.08904289  0.46927398  1
  C  C298  1  0.25577438  0.42674397  0.03842519  1
  C  C299  1  0.26699333  0.57776768  0.52883871  1
  C  C300  1  0.76864976  0.24219371  0.96307224  1
  C  C301  1  0.98108054  0.40717883  0.53978938  1
  C  C302  1  0.18395718  0.23369780  0.95299197  1
  C  C303  1  0.27117121  0.57676916  0.95775557  1
  C  C304  1  0.26471777  0.23822261  0.96372765  1
  C  C305  1  0.75915807  0.90798550  0.96596353  1
  C  C306  1  0.18870580  0.57111730  0.54228680  1
  C  C307  1  0.78097970  0.57280391  0.95809180  1
  C  C308  1  0.26312042  0.90849817  0.96049912  1
  C  C309  1  0.69191474  0.10043250  0.03910426  1
  C  C310  1  0.97983668  0.74422523  0.53981256  1
  C  C311  1  0.69330282  0.42516120  0.03521418  1
  N  N312  1  0.18416002  0.90724578  0.95527279  1
  N  N313  1  0.17789305  0.43020753  0.04894454  1
  N  N314  1  0.97020403  0.59085034  0.46685472  1
  N  N315  1  0.98608437  0.92413993  0.03685508  1
  N  N316  1  0.04554650  0.41170959  0.96439225  1
  N  N317  1  0.04855714  0.07831434  0.95761682  1
  N  N318  1  0.47541893  0.26048655  0.04308689  1
  N  N319  1  0.05988883  0.40676970  0.54548490  1
  N  N320  1  0.49414073  0.41159118  0.96334107  1
  N  N321  1  0.56920665  0.07146989  0.95483369  1
  N  N322  1  0.23414982  0.75623870  0.03724519  1
  N  N323  1  0.44852357  0.07489769  0.54640812  1
  N  N324  1  0.50995821  0.58836416  0.46411764  1
  N  N325  1  0.05880655  0.74060719  0.54476802  1
  N  N326  1  0.97830824  0.25370431  0.03842276  1
  N  N327  1  0.19238453  0.57544158  0.95214360  1
  N  N328  1  0.54908408  0.25512909  0.46178970  1
  N  N329  1  0.68173304  0.23428340  0.54587379  1
  N  N330  1  0.78699922  0.90761381  0.54281200  1
  N  N331  1  0.70169242  0.57348382  0.95606229  1
  N  N332  1  0.49280723  0.08517405  0.96339364  1
  N  N333  1  0.55147503  0.26173980  0.04765576  1
  N  N334  1  0.71074798  0.90733288  0.54011240  1
  N  N335  1  0.81888351  0.57390054  0.54937616  1
  N  N336  1  0.05560985  0.25732076  0.04461838  1
  N  N337  1  0.30524747  0.43061028  0.45626572  1
  N  N338  1  0.52375600  0.07568588  0.53829180  1
  N  N339  1  0.06146829  0.25870287  0.45025113  1
  N  N340  1  0.19659080  0.75563492  0.45889594  1
  N  N341  1  0.06333884  0.92362525  0.04441321  1
  N  N342  1  0.46038739  0.74286720  0.96086153  1
  N  N343  1  0.93710461  0.73898805  0.95379528  1
  N  N344  1  0.19079336  0.90892441  0.54612627  1
  N  N345  1  0.95319647  0.58934472  0.04521141  1
  N  N346  1  0.68317555  0.42718910  0.45049820  1
  N  N347  1  0.48902536  0.91806766  0.03351266  1
  N  N348  1  0.56970851  0.39644182  0.95399309  1
  N  N349  1  0.80600260  0.75962510  0.04234276  1
  N  N350  1  0.02904010  0.59023643  0.03739804  1
  N  N351  1  0.53665518  0.74208294  0.95738799  1
  N  N352  1  0.74299311  0.58067760  0.53739337  1
  N  N353  1  0.77226132  0.42226137  0.03283686  1
  N  N354  1  0.27432888  0.75337703  0.46497225  1
  N  N355  1  0.53797097  0.41076107  0.53378020  1
  N  N356  1  0.96153613  0.92610207  0.45974465  1
  N  N357  1  0.03936451  0.92482633  0.46474850  1
  N  N358  1  0.76918141  0.09791019  0.03229320  1
  N  N359  1  0.22866181  0.42745767  0.46874143  1
  N  N360  1  0.06201668  0.05473194  0.59541945  1
  N  N361  1  0.07274707  0.38916092  0.60455246  1
  N  N362  1  0.07167529  0.71901065  0.60300186  1
  N  N363  1  0.55918870  0.05708633  0.59217521  1
  N  N364  1  0.56438499  0.39055347  0.59150825  1
  N  N365  1  0.57387172  0.72207489  0.60039960  1
  N  N366  1  0.44453473  0.27509029  0.09974579  1
  N  N367  1  0.44205020  0.61193296  0.09174489  1
  N  N368  1  0.44979239  0.94099629  0.08451839  1
  N  N369  1  0.94153932  0.27655244  0.08847941  1
  N  N370  1  0.93804181  0.60706610  0.10479134  1
  N  N371  1  0.94927997  0.94746657  0.08684081  1
  N  N372  1  0.45211790  0.05995512  0.91609584  1
  N  N373  1  0.45210590  0.38884772  0.91543569  1
  N  N374  1  0.43056708  0.72509813  0.90463101  1
  N  N375  1  0.93940320  0.06096779  0.90594230  1
  N  N376  1  0.94428930  0.39124626  0.90884488  1
  N  N377  1  0.92561028  0.72036904  0.89481360  1
  N  N378  1  0.07079193  0.27886270  0.39151391  1
  N  N379  1  0.06169439  0.61130579  0.40054122  1
  N  N380  1  0.06609966  0.94292293  0.40929386  1
  N  N381  1  0.57395928  0.27692168  0.40551052  1
  N  N382  1  0.54940224  0.61416807  0.41492375  1
  N  N383  1  0.57294274  0.95000705  0.39339691  1
  N  N384  1  0.30449215  0.22275778  0.59280673  1
  N  N385  1  0.30956881  0.56210063  0.57936798  1
  N  N386  1  0.30627678  0.88875631  0.59168869  1
  N  N387  1  0.79851059  0.22078883  0.59079240  1
  N  N388  1  0.82086529  0.55405981  0.60766387  1
  N  N389  1  0.80866460  0.88648783  0.59981764  1
  N  N390  1  0.17095365  0.11416649  0.10902504  1
  N  N391  1  0.17172407  0.44783073  0.10910411  1
  N  N392  1  0.19686186  0.77971321  0.08870217  1
  N  N393  1  0.67218038  0.11505146  0.09862453  1
  N  N394  1  0.67506945  0.44438157  0.09294845  1
  N  N395  1  0.69306283  0.77444455  0.09252859  1
  N  N396  1  0.17460742  0.21752338  0.89234197  1
  N  N397  1  0.17980052  0.55618673  0.89365161  1
  N  N398  1  0.17112202  0.88896300  0.89639076  1
  N  N399  1  0.67248685  0.22026567  0.89727000  1
  N  N400  1  0.68328252  0.55636666  0.89721124  1
  N  N401  1  0.66761328  0.88480161  0.89671261  1
  N  N402  1  0.32157932  0.11401407  0.39659853  1
  N  N403  1  0.31677915  0.45007572  0.39844521  1
  N  N404  1  0.30314740  0.77287209  0.41080579  1
  N  N405  1  0.82158944  0.10665109  0.41361194  1
  N  N406  1  0.80068939  0.43978108  0.41134096  1
  N  N407  1  0.79880576  0.77546494  0.41651004  1
  N  N408  1  0.44520942  0.27502629  0.40882269  1
  N  N409  1  0.42252246  0.61120493  0.39708134  1
  N  N410  1  0.44394774  0.94424260  0.40596652  1
  N  N411  1  0.94445172  0.27341019  0.40637302  1
  N  N412  1  0.93405604  0.61140115  0.41448521  1
  N  N413  1  0.93916739  0.94776856  0.40447602  1
  N  N414  1  0.06719826  0.05577064  0.89969957  1
  N  N415  1  0.07322388  0.38774583  0.90940751  1
  N  N416  1  0.05238095  0.72365649  0.91198665  1
  N  N417  1  0.57699502  0.05524058  0.89582380  1
  N  N418  1  0.57641494  0.38268098  0.89415046  1
  N  N419  1  0.55679186  0.72413674  0.89876293  1
  N  N420  1  0.06732158  0.27781350  0.10196465  1
  N  N421  1  0.06340111  0.60916315  0.09156105  1
  N  N422  1  0.07477317  0.94336295  0.10209768  1
  N  N423  1  0.57063905  0.27831935  0.10661519  1
  N  N424  1  0.57060046  0.61352441  0.10735424  1
  N  N425  1  0.57755169  0.94273109  0.10008920  1
  N  N426  1  0.43385764  0.05666873  0.60574549  1
  N  N427  1  0.43647959  0.39146216  0.59414730  1
  N  N428  1  0.44627017  0.72650182  0.58129364  1
  N  N429  1  0.93216235  0.05689402  0.58923642  1
  N  N430  1  0.94546010  0.39028983  0.59400238  1
  N  N431  1  0.94445734  0.72533281  0.59311419  1
  N  N432  1  0.19211092  0.10993899  0.40595823  1
  N  N433  1  0.19197887  0.44458594  0.41614299  1
  N  N434  1  0.17649302  0.77827237  0.40344546  1
  N  N435  1  0.69103343  0.10742493  0.41386386  1
  N  N436  1  0.67467331  0.44619831  0.39135778  1
  N  N437  1  0.67098666  0.78081642  0.39921537  1
  N  N438  1  0.30264096  0.22448862  0.90915304  1
  N  N439  1  0.30707730  0.55871941  0.90404833  1
  N  N440  1  0.29834277  0.89147442  0.90633857  1
  N  N441  1  0.80140204  0.22432037  0.90962983  1
  N  N442  1  0.81124945  0.55598410  0.90213332  1
  N  N443  1  0.79593062  0.89347481  0.91088965  1
  N  N444  1  0.29933296  0.10951602  0.09359060  1
  N  N445  1  0.29714481  0.44215062  0.09040417  1
  N  N446  1  0.32461634  0.77607079  0.10276166  1
  N  N447  1  0.79957309  0.11248132  0.08981289  1
  N  N448  1  0.80394329  0.44302924  0.08747556  1
  N  N449  1  0.82054184  0.77708152  0.10181845  1
  N  N450  1  0.17509119  0.21642259  0.60151301  1
  N  N451  1  0.18351370  0.55175440  0.60102319  1
  N  N452  1  0.17925208  0.88907715  0.60464445  1
  N  N453  1  0.67221237  0.21818494  0.60613875  1
  N  N454  1  0.69795718  0.56075822  0.58490982  1
  N  N455  1  0.68228018  0.88593406  0.59523311  1
  Cl  Cl456  1  0.24815977  0.05306600  0.62643098  1
  Cl  Cl457  1  0.25636149  0.39179298  0.62614438  1
  Cl  Cl458  1  0.25761388  0.71942992  0.62274021  1
  Cl  Cl459  1  0.74512447  0.05685768  0.60793024  1
  Cl  Cl460  1  0.75453674  0.38818847  0.61028211  1
  Cl  Cl461  1  0.76037920  0.71863277  0.62032686  1
  Cl  Cl462  1  0.25829211  0.28252175  0.11377687  1
  Cl  Cl463  1  0.25364709  0.61449968  0.10259889  1
  Cl  Cl464  1  0.26723142  0.93680520  0.11480664  1
  Cl  Cl465  1  0.75868579  0.27771069  0.11736409  1
  Cl  Cl466  1  0.75544731  0.60777421  0.12753207  1
  Cl  Cl467  1  0.76583876  0.94692571  0.11143657  1
  Cl  Cl468  1  0.26818769  0.05937768  0.89157024  1
  Cl  Cl469  1  0.26546328  0.39555329  0.89341587  1
  Cl  Cl470  1  0.23997371  0.72678481  0.89660187  1
  Cl  Cl471  1  0.75695003  0.05416001  0.87467104  1
  Cl  Cl472  1  0.76231691  0.38802022  0.88561189  1
  Cl  Cl473  1  0.74102481  0.72322166  0.88664858  1
  Cl  Cl474  1  0.26131460  0.28187198  0.38144417  1
  Cl  Cl475  1  0.24241338  0.61352904  0.36922925  1
  Cl  Cl476  1  0.25511366  0.94355671  0.38618799  1
  Cl  Cl477  1  0.75941126  0.27386768  0.38842013  1
  Cl  Cl478  1  0.73899202  0.60924963  0.40112919  1
  Cl  Cl479  1  0.75790006  0.94907768  0.37753442  1
  Cl  Cl480  1  -0.01649524  0.22033092  0.61448338  1
  Cl  Cl481  1  -0.00009001  0.55777973  0.61541840  1
  Cl  Cl482  1  -0.00870302  0.89138866  0.62167444  1
  Cl  Cl483  1  0.48941635  0.22989828  0.61395931  1
  Cl  Cl484  1  0.51240537  0.56217382  0.60058881  1
  Cl  Cl485  1  0.49377943  0.88779126  0.61487718  1
  Cl  Cl486  1  -0.01690959  0.11063994  0.11773227  1
  Cl  Cl487  1  -0.01445179  0.43671810  0.12131279  1
  Cl  Cl488  1  0.01108130  0.77632906  0.11215798  1
  Cl  Cl489  1  0.48410189  0.10061671  0.10325587  1
  Cl  Cl490  1  0.48385234  0.43562425  0.10143855  1
  Cl  Cl491  1  0.50934098  0.78233055  0.12277404  1
  Cl  Cl492  1  -0.01655408  0.22799645  0.89104848  1
  Cl  Cl493  1  -0.00492658  0.54356064  0.87864504  1
  Cl  Cl494  1  -0.01947537  0.89431326  0.89457633  1
  Cl  Cl495  1  0.48560000  0.22190185  0.87948835  1
  Cl  Cl496  1  0.49302442  0.55319142  0.87704787  1
  Cl  Cl497  1  0.47936453  0.89846270  0.89187774  1
  Cl  Cl498  1  0.00751488  0.10990077  0.38375809  1
  Cl  Cl499  1  -0.00881452  0.44357575  0.39255019  1
  Cl  Cl500  1  -0.01248022  0.77733028  0.38653805  1
  Cl  Cl501  1  0.50927477  0.11990826  0.37035954  1
  Cl  Cl502  1  0.49495979  0.45330915  0.37278491  1
  Cl  Cl503  1  0.48489275  0.77416292  0.38703979  1
  Cl  Cl504  1  0.35258321  0.15353250  0.74627427  1
  Cl  Cl505  1  0.35731428  0.48570665  0.74857482  1
  Cl  Cl506  1  0.35648327  0.81686706  0.75528285  1
  Cl  Cl507  1  0.85164161  0.15326394  0.74994917  1
  Cl  Cl508  1  0.86108351  0.48121185  0.73912471  1
  Cl  Cl509  1  0.85545228  0.81803093  0.75449349  1
  Cl  Cl510  1  0.13959832  0.19065103  0.25110486  1
  Cl  Cl511  1  0.13434245  0.51930222  0.24575538  1
  Cl  Cl512  1  0.13854959  0.85217042  0.24894399  1
  Cl  Cl513  1  0.63004669  0.19141478  0.23722321  1
  Cl  Cl514  1  0.63523725  0.52021971  0.24750950  1
  Cl  Cl515  1  0.63628811  0.85531026  0.25696370  1
  Cl  Cl516  1  0.12927816  0.14022038  0.75980859  1
  Cl  Cl517  1  0.13543561  0.48055464  0.74390542  1
  Cl  Cl518  1  0.13631769  0.81018226  0.74700970  1
  Cl  Cl519  1  0.62743557  0.14366679  0.75204794  1
  Cl  Cl520  1  0.64122747  0.47781361  0.75442846  1
  Cl  Cl521  1  0.63049449  0.81021200  0.75582610  1
  Cl  Cl522  1  0.36141235  0.18170481  0.24759186  1
  Cl  Cl523  1  0.35722219  0.51586684  0.24974146  1
  Cl  Cl524  1  0.35835314  0.84676367  0.25297455  1
  Cl  Cl525  1  0.85151310  0.17576280  0.25392184  1
  Cl  Cl526  1  0.85627125  0.51366249  0.25275516  1
  Cl  Cl527  1  0.85699352  0.84549335  0.24533163  1
  Cl  Cl528  1  0.11913402  0.30690390  0.74947184  1
  Cl  Cl529  1  0.10818454  0.64815894  0.75154393  1
  Cl  Cl530  1  0.11918111  0.97380912  0.76280285  1
  Cl  Cl531  1  0.61581501  0.31116081  0.75374952  1
  Cl  Cl532  1  0.61778372  0.64322741  0.74789999  1
  Cl  Cl533  1  0.61757568  0.97477567  0.76331506  1
  Cl  Cl534  1  0.39528230  0.01408361  0.24858707  1
  Cl  Cl535  1  0.40149611  0.34887663  0.25669620  1
  Cl  Cl536  1  0.39030563  0.68285247  0.24994953  1
  Cl  Cl537  1  0.90113211  0.01176770  0.25589563  1
  Cl  Cl538  1  0.89384536  0.34554051  0.25084805  1
  Cl  Cl539  1  0.89016218  0.68226915  0.24906939  1
  Cl  Cl540  1  0.39575635  0.32449621  0.74850740  1
  Cl  Cl541  1  0.39594331  0.64932815  0.74534261  1
  Cl  Cl542  1  0.39784430  0.98712504  0.74841938  1
  Cl  Cl543  1  0.90075678  0.32045571  0.75631116  1
  Cl  Cl544  1  0.88453021  0.64670930  0.75791505  1
  Cl  Cl545  1  0.89580812  0.98489324  0.74701871  1
  Cl  Cl546  1  0.11916681  0.02294056  0.23820181  1
  Cl  Cl547  1  0.11804366  0.35490967  0.24559490  1
  Cl  Cl548  1  0.10995375  0.68360970  0.25586320  1
  Cl  Cl549  1  0.61982265  0.02156807  0.23457683  1
  Cl  Cl550  1  0.62142727  0.35900156  0.25306879  1
  Cl  Cl551  1  0.61401125  0.68538342  0.25266475  1
