# generated using pymatgen
data_H8PbC4(N3Cl2)2
_symmetry_space_group_name_H-M   'P 1'
_cell_length_a   16.62459805
_cell_length_b   22.51181296
_cell_length_c   21.59388528
_cell_angle_alpha   90.00126477
_cell_angle_beta   89.99946226
_cell_angle_gamma   89.99419097
_symmetry_Int_Tables_number   1
_chemical_formula_structural   H8PbC4(N3Cl2)2
_chemical_formula_sum   'H192 Pb24 C96 N144 Cl96'
_cell_volume   8081.50810804
_cell_formula_units_Z   24
loop_
 _symmetry_equiv_pos_site_id
 _symmetry_equiv_pos_as_xyz
  1  'x, y, z'
loop_
 _atom_site_type_symbol
 _atom_site_label
 _atom_site_symmetry_multiplicity
 _atom_site_fract_x
 _atom_site_fract_y
 _atom_site_fract_z
 _atom_site_occupancy
  H  H0  1  0.00468555  0.03057965  0.67985751  1
  H  H1  1  0.01691245  0.36463954  0.67382091  1
  H  H2  1  -0.00558688  0.69519622  0.68087189  1
  H  H3  1  0.50355926  0.02807827  0.67778329  1
  H  H4  1  0.49210590  0.36172642  0.67863311  1
  H  H5  1  0.49225532  0.69986342  0.68229498  1
  H  H6  1  -0.00087479  0.30309935  0.18260022  1
  H  H7  1  -0.01568002  0.63822797  0.17940611  1
  H  H8  1  0.00556924  0.97194028  0.17828376  1
  H  H9  1  0.48944890  0.30114093  0.17696726  1
  H  H10  1  0.51476646  0.63927492  0.17454097  1
  H  H11  1  0.50199255  0.96882483  0.18063896  1
  H  H12  1  0.00026645  0.02979235  0.81971125  1
  H  H13  1  -0.00139762  0.36294515  0.82073034  1
  H  H14  1  0.00663417  0.69979805  0.82260591  1
  H  H15  1  0.50080750  0.02967897  0.82038913  1
  H  H16  1  0.50388951  0.36480413  0.81935438  1
  H  H17  1  0.48906142  0.69747422  0.81927663  1
  H  H18  1  0.00849313  0.30262821  0.31983880  1
  H  H19  1  0.00463445  0.63666706  0.32126635  1
  H  H20  1  -0.00963845  0.96843639  0.31872264  1
  H  H21  1  0.50010052  0.30263829  0.32401535  1
  H  H22  1  0.50180952  0.63968304  0.31891278  1
  H  H23  1  0.49794978  0.97019501  0.32201477  1
  H  H24  1  0.23918058  0.19756011  0.67605212  1
  H  H25  1  0.26145558  0.52875293  0.67780885  1
  H  H26  1  0.25061628  0.86414122  0.67873815  1
  H  H27  1  0.75672675  0.19487354  0.67996859  1
  H  H28  1  0.73350279  0.52892269  0.68136987  1
  H  H29  1  0.75628662  0.86508512  0.68091466  1
  H  H30  1  0.23696586  0.13500169  0.17447143  1
  H  H31  1  0.25087941  0.47089517  0.18035700  1
  H  H32  1  0.24852835  0.80257797  0.17722922  1
  H  H33  1  0.74949606  0.13886540  0.18011776  1
  H  H34  1  0.74219960  0.46635015  0.18093776  1
  H  H35  1  0.74407320  0.80284165  0.17718579  1
  H  H36  1  0.25167667  0.19685354  0.81718289  1
  H  H37  1  0.24465614  0.52932757  0.82609103  1
  H  H38  1  0.24404082  0.86316656  0.82124808  1
  H  H39  1  0.74818564  0.19509090  0.82223089  1
  H  H40  1  0.75333869  0.53229249  0.81513091  1
  H  H41  1  0.74340875  0.86365980  0.82078283  1
  H  H42  1  0.24624437  0.13520906  0.31982599  1
  H  H43  1  0.24846527  0.47034586  0.32049362  1
  H  H44  1  0.25605628  0.80277280  0.32210935  1
  H  H45  1  0.74825362  0.13693250  0.32030474  1
  H  H46  1  0.74116974  0.47038188  0.32073616  1
  H  H47  1  0.75098188  0.80216775  0.31863592  1
  H  H48  1  0.11476179  0.05557182  0.59981008  1
  H  H49  1  0.11641075  0.39184463  0.58702187  1
  H  H50  1  0.12527899  0.71839660  0.61487185  1
  H  H51  1  0.61695530  0.05768096  0.59852263  1
  H  H52  1  0.61437836  0.38922203  0.60656257  1
  H  H53  1  0.62394667  0.72031824  0.61503769  1
  H  H54  1  0.38769365  0.27093467  0.09163494  1
  H  H55  1  0.37158762  0.62005204  0.12795825  1
  H  H56  1  0.36920823  0.94727220  0.11540060  1
  H  H57  1  0.87962850  0.27648491  0.10885745  1
  H  H58  1  0.87870861  0.60897504  0.09508063  1
  H  H59  1  0.87023702  0.94985650  0.12032861  1
  H  H60  1  0.37211285  0.05197831  0.88502292  1
  H  H61  1  0.36722010  0.38685847  0.87786324  1
  H  H62  1  0.37121070  0.72179860  0.89753896  1
  H  H63  1  0.87372802  0.05286580  0.88906327  1
  H  H64  1  0.86997703  0.38698859  0.88791521  1
  H  H65  1  0.86836283  0.72106857  0.87688642  1
  H  H66  1  0.11261155  0.27723653  0.40389296  1
  H  H67  1  0.12682862  0.61396284  0.39393353  1
  H  H68  1  0.12759971  0.94823846  0.37622438  1
  H  H69  1  0.61747410  0.27983858  0.40070642  1
  H  H70  1  0.62775229  0.61278995  0.38495110  1
  H  H71  1  0.63055182  0.94951577  0.38464615  1
  H  H72  1  0.38102585  0.21873248  0.62739108  1
  H  H73  1  0.36726652  0.55919925  0.59311384  1
  H  H74  1  0.37396054  0.88519121  0.60741650  1
  H  H75  1  0.88397620  0.22091754  0.61315451  1
  H  H76  1  0.87347611  0.54829817  0.62579029  1
  H  H77  1  0.86688937  0.88989425  0.60070782  1
  H  H78  1  0.13283041  0.10736265  0.09184059  1
  H  H79  1  0.13470724  0.44447199  0.10224986  1
  H  H80  1  0.12786296  0.77702087  0.10456801  1
  H  H81  1  0.62634253  0.11237424  0.11094907  1
  H  H82  1  0.63532607  0.44214405  0.09725455  1
  H  H83  1  0.63037063  0.77764736  0.09839695  1
  H  H84  1  0.11960961  0.21691193  0.87885097  1
  H  H85  1  0.12816701  0.55805165  0.90093230  1
  H  H86  1  0.13429716  0.88938838  0.90200378  1
  H  H87  1  0.61781934  0.21998658  0.88750661  1
  H  H88  1  0.62549947  0.55358719  0.88101064  1
  H  H89  1  0.62947963  0.89148908  0.89853277  1
  H  H90  1  0.38347674  0.11532403  0.37843164  1
  H  H91  1  0.37874812  0.44709906  0.38517280  1
  H  H92  1  0.37609874  0.78107043  0.39676219  1
  H  H93  1  0.88162620  0.11564038  0.38256677  1
  H  H94  1  0.87527859  0.44717166  0.38077474  1
  H  H95  1  0.87455784  0.77828350  0.39112314  1
  H  H96  1  0.36984706  0.27668969  0.38741889  1
  H  H97  1  0.37837038  0.61384339  0.39097808  1
  H  H98  1  0.38265598  0.94153037  0.39929670  1
  H  H99  1  0.86679205  0.28639283  0.37214772  1
  H  H100  1  0.87794592  0.61416830  0.38652762  1
  H  H101  1  0.88211234  0.94208795  0.40283097  1
  H  H102  1  0.12321852  0.05444901  0.89184611  1
  H  H103  1  0.11956654  0.38870645  0.89251262  1
  H  H104  1  0.11392768  0.72514810  0.90730405  1
  H  H105  1  0.62124689  0.05204617  0.89328254  1
  H  H106  1  0.61520326  0.39034049  0.89868745  1
  H  H107  1  0.61937880  0.72143347  0.88545388  1
  H  H108  1  0.12848680  0.27871799  0.11606227  1
  H  H109  1  0.12401161  0.61859301  0.12709107  1
  H  H110  1  0.11808037  0.94235207  0.09922405  1
  H  H111  1  0.63135559  0.28270939  0.12719901  1
  H  H112  1  0.61376764  0.60731869  0.08772388  1
  H  H113  1  0.61707443  0.94364026  0.10098209  1
  H  H114  1  0.36965783  0.05078073  0.61520198  1
  H  H115  1  0.36521494  0.38715409  0.61166309  1
  H  H116  1  0.37565354  0.72428659  0.60378425  1
  H  H117  1  0.86760311  0.05027937  0.62452125  1
  H  H118  1  0.87449989  0.38122492  0.62778549  1
  H  H119  1  0.87741304  0.72254151  0.60294467  1
  H  H120  1  0.13569759  0.11040374  0.39991555  1
  H  H121  1  0.12997798  0.44479558  0.39666305  1
  H  H122  1  0.12705643  0.78114341  0.38536381  1
  H  H123  1  0.63338369  0.11047677  0.39878243  1
  H  H124  1  0.62843884  0.44453698  0.40194354  1
  H  H125  1  0.62496986  0.78043770  0.38845808  1
  H  H126  1  0.36814303  0.21967937  0.89357357  1
  H  H127  1  0.37626779  0.55480491  0.88811846  1
  H  H128  1  0.38201998  0.88425215  0.87862871  1
  H  H129  1  0.86565641  0.22261337  0.89803884  1
  H  H130  1  0.87490578  0.55436635  0.88734290  1
  H  H131  1  0.87730417  0.88640807  0.88265709  1
  H  H132  1  0.37703274  0.11830564  0.12360510  1
  H  H133  1  0.38272955  0.44683369  0.11491644  1
  H  H134  1  0.37685170  0.77809857  0.11027592  1
  H  H135  1  0.87519886  0.11242857  0.11052591  1
  H  H136  1  0.88117028  0.44852183  0.12395189  1
  H  H137  1  0.87896177  0.78172311  0.11668590  1
  H  H138  1  0.13749145  0.22899290  0.59102026  1
  H  H139  1  0.12203644  0.54881323  0.62266068  1
  H  H140  1  0.12495456  0.88649401  0.61188357  1
  H  H141  1  0.63527342  0.22250345  0.60696740  1
  H  H142  1  0.62759997  0.55706347  0.59791377  1
  H  H143  1  0.61964358  0.88276795  0.62499775  1
  H  H144  1  0.20160640  0.07998237  0.50594655  1
  H  H145  1  0.43137806  0.59532952  0.49779288  1
  H  H146  1  0.34151520  0.58515453  0.99628985  1
  H  H147  1  0.16287990  0.75023706  0.49838980  1
  H  H148  1  0.82538862  0.57627288  0.99935084  1
  H  H149  1  0.04873386  0.08379944  0.49287071  1
  H  H150  1  0.03968073  0.25203146  0.50940906  1
  H  H151  1  0.93542550  0.24525571  0.00209828  1
  H  H152  1  0.35625511  0.08362318  0.48535436  1
  H  H153  1  0.92066830  0.08447921  0.99729114  1
  H  H154  1  0.88310147  0.41399995  0.51264678  1
  H  H155  1  0.55061588  0.41971606  1.00518815  1
  H  H156  1  0.53117647  0.58536422  -0.01039687  1
  H  H157  1  0.91783278  0.58466923  0.49976902  1
  H  H158  1  0.39575851  0.41361519  0.98632505  1
  H  H159  1  0.91107144  0.41426605  0.99409022  1
  H  H160  1  0.69255349  0.74996296  -0.00855919  1
  H  H161  1  0.65584832  0.24712059  0.99494786  1
  H  H162  1  0.05160769  0.91961817  -0.00369378  1
  H  H163  1  0.20196532  0.91864349  1.00770400  1
  H  H164  1  0.69676150  0.40962006  0.50006243  1
  H  H165  1  0.31151272  0.24317727  1.00350601  1
  H  H166  1  0.84410033  0.25141134  0.50320948  1
  H  H167  1  0.06820857  0.41732134  1.00227289  1
  H  H168  1  0.58356884  0.58534291  0.49734130  1
  H  H169  1  0.40430495  0.25474985  0.49625490  1
  H  H170  1  0.88737658  0.07965603  0.51084868  1
  H  H171  1  0.66544735  0.57868147  0.99470411  1
  H  H172  1  0.10724764  0.58831731  0.01348382  1
  H  H173  1  0.95359005  0.59011156  -0.00566925  1
  H  H174  1  0.89715303  0.91768779  0.00860864  1
  H  H175  1  0.34106471  0.41753268  0.49575941  1
  H  H176  1  0.35612777  0.91289099  0.98633539  1
  H  H177  1  0.46589353  0.24666527  -0.00743496  1
  H  H178  1  0.16650758  0.91438903  0.49909442  1
  H  H179  1  0.57287360  0.07952052  1.00258206  1
  H  H180  1  0.85136674  0.75469627  0.00768805  1
  H  H181  1  0.28848822  0.58547408  0.49466095  1
  H  H182  1  0.55584628  0.23580538  0.49482572  1
  H  H183  1  0.15037519  0.24337985  0.99227984  1
  H  H184  1  0.63902139  0.91250395  0.51129088  1
  H  H185  1  0.40477205  0.08127837  0.99722425  1
  H  H186  1  0.95673959  0.91562436  0.50215441  1
  H  H187  1  0.70739170  0.41478811  -0.00662356  1
  H  H188  1  0.70218444  0.58408275  0.49423423  1
  H  H189  1  0.67210760  0.75154518  0.49757811  1
  H  H190  1  0.80127005  0.91647720  0.49344890  1
  H  H191  1  0.21590808  0.25444409  0.49246967  1
  Pb  Pb192  1  0.24800611  0.04706635  0.74532677  1
  Pb  Pb193  1  0.24592973  0.37961222  0.74369873  1
  Pb  Pb194  1  0.24418627  0.71575338  0.75398890  1
  Pb  Pb195  1  0.74446196  0.04638801  0.75145869  1
  Pb  Pb196  1  0.74756768  0.38169770  0.75005923  1
  Pb  Pb197  1  0.74911445  0.71286754  0.74871192  1
  Pb  Pb198  1  0.24844367  0.28379390  0.24969003  1
  Pb  Pb199  1  0.25201535  0.62214350  0.25746118  1
  Pb  Pb200  1  0.25119179  0.95201212  0.24874216  1
  Pb  Pb201  1  0.75106969  0.28720605  0.25070887  1
  Pb  Pb202  1  0.74689445  0.61657010  0.24141180  1
  Pb  Pb203  1  0.75072053  0.95348739  0.25057220  1
  Pb  Pb204  1  -0.00295990  0.21365384  0.74833465  1
  Pb  Pb205  1  0.00237988  0.54589310  0.76095398  1
  Pb  Pb206  1  -0.00509707  0.88277484  0.74999909  1
  Pb  Pb207  1  0.50102979  0.21458320  0.75076346  1
  Pb  Pb208  1  0.49341425  0.54885096  0.74141573  1
  Pb  Pb209  1  0.49881826  0.87896342  0.75205797  1
  Pb  Pb210  1  -0.00043311  0.11886868  0.24826540  1
  Pb  Pb211  1  0.00512320  0.45377641  0.24711152  1
  Pb  Pb212  1  -0.00055488  0.78561979  0.24968754  1
  Pb  Pb213  1  0.50396159  0.11974662  0.25104724  1
  Pb  Pb214  1  0.49885526  0.45122447  0.24869217  1
  Pb  Pb215  1  0.50266079  0.78767000  0.24873451  1
  C  C216  1  -0.00479088  0.04558622  0.63258697  1
  C  C217  1  0.00139862  0.37939045  0.62754959  1
  C  C218  1  -0.00114885  0.71116792  0.63355982  1
  C  C219  1  0.49667402  0.04473210  0.63086613  1
  C  C220  1  0.49080767  0.37916584  0.63208230  1
  C  C221  1  0.49750904  0.71401993  0.63439358  1
  C  C222  1  0.00268563  0.28679116  0.13537755  1
  C  C223  1  -0.00462397  0.62293314  0.13235739  1
  C  C224  1  -0.00182712  0.95574754  0.13114195  1
  C  C225  1  0.50262879  0.28631266  0.13018494  1
  C  C226  1  0.50027329  0.62330156  0.12842566  1
  C  C227  1  0.49592426  0.95397062  0.13296717  1
  C  C228  1  -0.00101324  0.04575850  0.86707403  1
  C  C229  1  -0.00450767  0.37931940  0.86806303  1
  C  C230  1  -0.00365435  0.71512751  0.86940776  1
  C  C231  1  0.49792690  0.04534537  0.86793807  1
  C  C232  1  0.49466985  0.38019480  0.86659719  1
  C  C233  1  0.49325454  0.71287253  0.86678084  1
  C  C234  1  -0.00385183  0.28901868  0.36702509  1
  C  C235  1  0.00257630  0.62190952  0.36893048  1
  C  C236  1  -0.00021176  0.95358217  0.36598947  1
  C  C237  1  0.49564604  0.28688495  0.37158567  1
  C  C238  1  0.50196301  0.62345109  0.36630074  1
  C  C239  1  0.50357510  0.95411658  0.36895699  1
  C  C240  1  0.25246539  0.21376689  0.62978184  1
  C  C241  1  0.25077011  0.54452353  0.63105280  1
  C  C242  1  0.24932879  0.87876343  0.63096798  1
  C  C243  1  0.75859902  0.21179577  0.63303640  1
  C  C244  1  0.74505677  0.54435855  0.63458473  1
  C  C245  1  0.74718071  0.87932505  0.63337240  1
  C  C246  1  0.24931472  0.11997784  0.12787513  1
  C  C247  1  0.25628607  0.45449906  0.13317845  1
  C  C248  1  0.25132673  0.78612905  0.13029151  1
  C  C249  1  0.75065262  0.12147206  0.13356836  1
  C  C250  1  0.75342030  0.45248451  0.13348208  1
  C  C251  1  0.75170839  0.78743250  0.12973950  1
  C  C252  1  0.24618862  0.21080639  0.86519150  1
  C  C253  1  0.25027332  0.54644524  0.87283366  1
  C  C254  1  0.25412091  0.87811327  0.86852000  1
  C  C255  1  0.74331242  0.21165242  0.86929534  1
  C  C256  1  0.75119724  0.54664727  0.86310436  1
  C  C257  1  0.75052725  0.87983099  0.86754005  1
  C  C258  1  0.25591590  0.11998467  0.36708841  1
  C  C259  1  0.25241740  0.45391082  0.36756952  1
  C  C260  1  0.25239746  0.78803234  0.36975085  1
  C  C261  1  0.75436639  0.12101232  0.36728122  1
  C  C262  1  0.74794324  0.45430142  0.36776742  1
  C  C263  1  0.75022764  0.78654518  0.36612084  1
  C  C264  1  0.95929907  0.59528978  0.46235068  1
  C  C265  1  0.93637612  0.07064377  0.54443782  1
  C  C266  1  0.72481691  0.91121621  0.96155065  1
  C  C267  1  0.21856066  0.75458299  0.03826748  1
  C  C268  1  0.93927195  0.74172172  0.95632114  1
  C  C269  1  0.76974531  0.90552926  0.53617222  1
  C  C270  1  0.05840767  0.59617225  0.04716514  1
  C  C271  1  0.29689543  0.42676015  0.45826676  1
  C  C272  1  0.28750461  0.76157935  0.46444299  1
  C  C273  1  0.55197636  0.92592760  0.45838446  1
  C  C274  1  0.56959749  0.25992324  0.04595188  1
  C  C275  1  0.44936249  0.40954240  0.54110731  1
  C  C276  1  0.70614069  0.56917653  0.95653860  1
  C  C277  1  0.45096562  0.07123853  0.96023072  1
  C  C278  1  0.71321340  0.08922072  0.04221056  1
  C  C279  1  0.51979318  0.40853533  0.96225577  1
  C  C280  1  0.31276179  0.09362920  0.04296174  1
  C  C281  1  0.01364876  0.40831843  0.53043021  1
  C  C282  1  0.43038841  0.59628907  0.04579470  1
  C  C283  1  0.28895114  0.90387069  0.53706043  1
  C  C284  1  0.20591703  0.76088769  0.46197950  1
  C  C285  1  0.93404000  0.40521073  0.54313805  1
  C  C286  1  0.23144444  0.90700451  0.96440625  1
  C  C287  1  0.01781781  0.07254405  0.53562716  1
  C  C288  1  0.23185107  0.09106757  0.46272648  1
  C  C289  1  0.80307169  0.09300616  0.45657025  1
  C  C290  1  0.31943881  0.24292839  0.54653696  1
  C  C291  1  0.53319945  0.07083420  0.96318786  1
  C  C292  1  0.21785333  0.57865190  0.96702292  1
  C  C293  1  0.04079963  0.59574208  0.46293184  1
  C  C294  1  0.27652935  0.23460793  0.96189217  1
  C  C295  1  0.23373589  0.08988474  0.03247882  1
  C  C296  1  0.20742888  0.90453703  0.53697949  1
  C  C297  1  0.94241181  0.92668899  0.04391160  1
  C  C298  1  0.79989187  0.23992735  0.54151797  1
  C  C299  1  0.97158304  0.25775770  0.04206962  1
  C  C300  1  0.96044053  0.07363695  0.95892405  1
  C  C301  1  0.19472126  0.23408050  0.95650489  1
  C  C302  1  0.03181672  0.40689193  0.96182768  1
  C  C303  1  0.93087886  0.26607384  0.45263908  1
  C  C304  1  0.54548485  0.59470033  0.45767084  1
  C  C305  1  0.73667600  0.42589936  0.03706409  1
  C  C306  1  0.78814944  0.56880222  0.95874883  1
  C  C307  1  0.01059719  0.26283922  0.46562534  1
  C  C308  1  0.72963335  0.57285893  0.53855053  1
  C  C309  1  0.71184761  0.76098472  0.45876679  1
  C  C310  1  0.68831316  0.90368140  0.54484178  1
  C  C311  1  0.72518753  0.76054944  0.03378726  1
  N  N312  1  0.02157717  0.92361931  0.03772166  1
  N  N313  1  0.03976966  0.07408628  0.96052260  1
  N  N314  1  0.77674038  0.24044833  0.96341356  1
  N  N315  1  0.54425016  0.73756804  0.54207829  1
  N  N316  1  0.98314153  0.92588981  0.46048988  1
  N  N317  1  0.49195859  0.25630288  0.03471655  1
  N  N318  1  0.80774838  0.57064834  0.54799712  1
  N  N319  1  0.80204179  0.90865747  0.95765255  1
  N  N320  1  0.72603706  0.09050456  0.46308749  1
  N  N321  1  0.01574138  0.74346498  0.96723359  1
  N  N322  1  0.47491691  0.92268395  0.46450003  1
  N  N323  1  0.44580097  0.07338129  0.54177386  1
  N  N324  1  0.21762605  0.42563639  0.46251644  1
  N  N325  1  0.18775991  0.57348044  0.54652091  1
  N  N326  1  0.29678372  0.57669719  0.96179445  1
  N  N327  1  0.44724278  0.92847172  0.04201227  1
  N  N328  1  0.26477698  0.57718356  0.53808651  1
  N  N329  1  0.31057339  0.09126300  0.45352247  1
  N  N330  1  0.53936028  0.74013762  0.95815256  1
  N  N331  1  0.80337960  0.42529323  0.45488381  1
  N  N332  1  0.46572418  0.59460379  0.45840848  1
  N  N333  1  0.44088614  0.40707445  0.95393609  1
  N  N334  1  0.52707313  0.41067548  0.53817864  1
  N  N335  1  0.95222125  0.40646291  0.95894939  1
  N  N336  1  0.72598012  0.42401424  0.46086467  1
  N  N337  1  0.79113428  0.75999253  0.46016288  1
  N  N338  1  0.46304008  0.74067044  0.96184386  1
  N  N339  1  0.29592090  0.75489643  0.03878671  1
  N  N340  1  0.22720464  0.42555342  0.03825038  1
  N  N341  1  0.04570519  0.73881718  0.54248365  1
  N  N342  1  0.96974671  0.74039040  0.53868262  1
  N  N343  1  0.80440959  0.76130229  0.04134763  1
  N  N344  1  0.05077505  0.25927329  0.04381569  1
  N  N345  1  0.52331832  0.92687849  0.03725917  1
  N  N346  1  0.79112803  0.08987014  0.04087907  1
  N  N347  1  0.46782992  0.73907946  0.53842094  1
  N  N348  1  0.31002792  0.90575544  0.95482296  1
  N  N349  1  0.24185061  0.24580358  0.53503312  1
  N  N350  1  0.44755073  0.25557226  0.45897239  1
  N  N351  1  0.97973848  0.59237646  0.03741354  1
  N  N352  1  0.72072432  0.24036364  0.53870486  1
  N  N353  1  0.06043106  0.92866876  0.45301402  1
  N  N354  1  0.30367922  0.42655427  0.04249054  1
  N  N355  1  0.69869037  0.23958070  0.95838453  1
  N  N356  1  0.52571516  0.26508303  0.46681221  1
  N  N357  1  0.81510622  0.42784739  0.04584798  1
  N  N358  1  0.50766860  0.59170303  0.03326268  1
  N  N359  1  0.52183731  0.07637447  0.53641293  1
  N  N360  1  0.05318856  0.05699256  0.59085178  1
  N  N361  1  0.05433498  0.39269902  0.58115932  1
  N  N362  1  0.06533126  0.72058942  0.60118442  1
  N  N363  1  0.55478730  0.05866623  0.59141009  1
  N  N364  1  0.55282814  0.39135233  0.59628136  1
  N  N365  1  0.56379268  0.72203358  0.60160453  1
  N  N366  1  0.44985177  0.27472004  0.08619489  1
  N  N367  1  0.42583623  0.61389874  0.10530109  1
  N  N368  1  0.42880626  0.94549949  0.10126074  1
  N  N369  1  0.94068895  0.27459477  0.09784454  1
  N  N370  1  0.94080949  0.61247125  0.08905777  1
  N  N371  1  0.92769879  0.94487260  0.10233740  1
  N  N372  1  0.43101736  0.05577004  0.90062538  1
  N  N373  1  0.42564061  0.38859969  0.89537393  1
  N  N374  1  0.43296603  0.72384728  0.90537154  1
  N  N375  1  0.93385490  0.05653400  0.90182368  1
  N  N376  1  0.93004936  0.38893989  0.90130053  1
  N  N377  1  0.92483829  0.72491295  0.89654964  1
  N  N378  1  0.05055008  0.27745475  0.41071835  1
  N  N379  1  0.06672159  0.61154611  0.40658637  1
  N  N380  1  0.07006278  0.94477709  0.39385293  1
  N  N381  1  0.55599301  0.27460031  0.40929420  1
  N  N382  1  0.56811820  0.61071608  0.40011868  1
  N  N383  1  0.57229909  0.94474081  0.40050240  1
  N  N384  1  0.32622126  0.22418955  0.60566044  1
  N  N385  1  0.30503159  0.55720573  0.58816072  1
  N  N386  1  0.31389470  0.88856144  0.59371094  1
  N  N387  1  0.82445956  0.22285018  0.59919036  1
  N  N388  1  0.81561791  0.55299458  0.60785497  1
  N  N389  1  0.80513774  0.89030320  0.59165602  1
  N  N390  1  0.19448193  0.10587046  0.08415638  1
  N  N391  1  0.19670717  0.44295003  0.09426278  1
  N  N392  1  0.18829533  0.77348538  0.09313829  1
  N  N393  1  0.68636182  0.10819386  0.09810467  1
  N  N394  1  0.69746705  0.44085750  0.09039786  1
  N  N395  1  0.69213986  0.77616283  0.08880028  1
  N  N396  1  0.17738132  0.21948707  0.89637040  1
  N  N397  1  0.18893708  0.56016600  0.91186141  1
  N  N398  1  0.19630784  0.89014050  0.91073404  1
  N  N399  1  0.67726039  0.22117622  0.90173128  1
  N  N400  1  0.68453460  0.55549714  0.89684281  1
  N  N401  1  0.69097394  0.89343294  0.90762314  1
  N  N402  1  0.32514615  0.10898766  0.39461439  1
  N  N403  1  0.31962632  0.44318949  0.39993393  1
  N  N404  1  0.31537327  0.77775358  0.40875227  1
  N  N405  1  0.82325990  0.11112051  0.39846288  1
  N  N406  1  0.81681426  0.44369326  0.39696488  1
  N  N407  1  0.81326806  0.77583488  0.40201305  1
  N  N408  1  0.42852002  0.27808798  0.40338334  1
  N  N409  1  0.43918970  0.61604149  0.40297918  1
  N  N410  1  0.44457119  0.94072458  0.40732803  1
  N  N411  1  0.92255334  0.28151096  0.39295721  1
  N  N412  1  0.93673410  0.61165640  0.40253480  1
  N  N413  1  0.94459672  0.94243250  0.40844456  1
  N  N414  1  0.06198343  0.05706107  0.90284819  1
  N  N415  1  0.05899277  0.39073265  0.90528148  1
  N  N416  1  0.05144382  0.72663634  0.91175643  1
  N  N417  1  0.56078270  0.05517150  0.90529661  1
  N  N418  1  0.55363567  0.39245835  0.90783009  1
  N  N419  1  0.55935489  0.72298251  0.89924147  1
  N  N420  1  0.06865440  0.27728114  0.10245371  1
  N  N421  1  0.06789849  0.61315856  0.10658245  1
  N  N422  1  0.05601652  0.94468461  0.09068778  1
  N  N423  1  0.57636149  0.27769725  0.10536817  1
  N  N424  1  0.55177735  0.61136602  0.08355544  1
  N  N425  1  0.55494744  0.94260897  0.09339361  1
  N  N426  1  0.42872196  0.05381108  0.60029266  1
  N  N427  1  0.42479986  0.39106217  0.59803911  1
  N  N428  1  0.43752036  0.72462640  0.59531733  1
  N  N429  1  0.92420001  0.05419380  0.60491380  1
  N  N430  1  0.92791708  0.38728604  0.60444832  1
  N  N431  1  0.93905364  0.72347944  0.59503093  1
  N  N432  1  0.19744841  0.10856574  0.40902050  1
  N  N433  1  0.19170273  0.44280649  0.40570163  1
  N  N434  1  0.18545347  0.77736235  0.40188986  1
  N  N435  1  0.69551422  0.10831828  0.40608912  1
  N  N436  1  0.69048546  0.44199315  0.40814302  1
  N  N437  1  0.68514935  0.77674476  0.40127682  1
  N  N438  1  0.30720199  0.22014659  0.90456301  1
  N  N439  1  0.31719306  0.55622224  0.90383376  1
  N  N440  1  0.32374451  0.88708727  0.89615632  1
  N  N441  1  0.80400157  0.22374028  0.90751825  1
  N  N442  1  0.81488815  0.55505194  0.90025597  1
  N  N443  1  0.81833297  0.88909485  0.89784164  1
  N  N444  1  0.32220631  0.11176624  0.10195410  1
  N  N445  1  0.32294262  0.44395181  0.10151100  1
  N  N446  1  0.31660555  0.77473171  0.09746157  1
  N  N447  1  0.81443575  0.11018148  0.09901401  1
  N  N448  1  0.82371162  0.44431358  0.10627447  1
  N  N449  1  0.82012349  0.77804441  0.10035752  1
  N  N450  1  0.19971391  0.22527931  0.58568829  1
  N  N451  1  0.17948123  0.55447593  0.60488278  1
  N  N452  1  0.18390486  0.88895917  0.59675887  1
  N  N453  1  0.69664080  0.22275591  0.59626507  1
  N  N454  1  0.68947596  0.55709180  0.59144313  1
  N  N455  1  0.67625479  0.88768733  0.60544579  1
  Cl  Cl456  1  0.24083524  0.05677148  0.60893703  1
  Cl  Cl457  1  0.24055365  0.38655121  0.61034822  1
  Cl  Cl458  1  0.25193945  0.72211568  0.61795601  1
  Cl  Cl459  1  0.73852722  0.05440893  0.62076984  1
  Cl  Cl460  1  0.73614901  0.38873608  0.61309397  1
  Cl  Cl461  1  0.74982839  0.72133182  0.61658639  1
  Cl  Cl462  1  0.26337110  0.27323361  0.11578450  1
  Cl  Cl463  1  0.24768345  0.61541395  0.12524661  1
  Cl  Cl464  1  0.24104461  0.94149155  0.11104391  1
  Cl  Cl465  1  0.75645639  0.27836782  0.11887292  1
  Cl  Cl466  1  0.74663396  0.60803160  0.10444177  1
  Cl  Cl467  1  0.74013054  0.94668069  0.11840817  1
  Cl  Cl468  1  0.24593605  0.04960174  0.87591512  1
  Cl  Cl469  1  0.24284472  0.38898483  0.87549239  1
  Cl  Cl470  1  0.24288240  0.71869679  0.88714456  1
  Cl  Cl471  1  0.74758848  0.05124282  0.88318262  1
  Cl  Cl472  1  0.74156804  0.38777456  0.88667752  1
  Cl  Cl473  1  0.74248866  0.72447404  0.88434745  1
  Cl  Cl474  1  0.24043253  0.27226078  0.39397591  1
  Cl  Cl475  1  0.25682075  0.60823196  0.39555871  1
  Cl  Cl476  1  0.25666673  0.94562270  0.38127028  1
  Cl  Cl477  1  0.73805381  0.28422220  0.38264141  1
  Cl  Cl478  1  0.74965770  0.60944554  0.37627306  1
  Cl  Cl479  1  0.76203327  0.94471147  0.38598761  1
  Cl  Cl480  1  0.01495671  0.22676248  0.61351484  1
  Cl  Cl481  1  -0.00165588  0.54751012  0.63036510  1
  Cl  Cl482  1  -0.00974377  0.89246268  0.61203035  1
  Cl  Cl483  1  0.51080070  0.22552489  0.61527221  1
  Cl  Cl484  1  0.49222928  0.56117779  0.60105747  1
  Cl  Cl485  1  0.49498381  0.88294883  0.62461819  1
  Cl  Cl486  1  0.00178242  0.11096668  0.11587686  1
  Cl  Cl487  1  0.01175270  0.44537982  0.10973304  1
  Cl  Cl488  1  0.00289961  0.78224356  0.11839928  1
  Cl  Cl489  1  0.50570892  0.11878842  0.11838612  1
  Cl  Cl490  1  0.51029588  0.44484190  0.10914140  1
  Cl  Cl491  1  0.50655250  0.77774583  0.11752923  1
  Cl  Cl492  1  -0.01275764  0.22360845  0.88177161  1
  Cl  Cl493  1  0.00184342  0.55938333  0.89788999  1
  Cl  Cl494  1  0.01056075  0.89357049  0.88963288  1
  Cl  Cl495  1  0.49319629  0.22732312  0.89216206  1
  Cl  Cl496  1  0.50079319  0.55759320  0.88663998  1
  Cl  Cl497  1  0.50607432  0.88928826  0.88431397  1
  Cl  Cl498  1  0.01164116  0.11171796  0.38356177  1
  Cl  Cl499  1  0.00467548  0.44602036  0.37894244  1
  Cl  Cl500  1  -0.00207547  0.78257655  0.37978629  1
  Cl  Cl501  1  0.50946742  0.11798029  0.38352865  1
  Cl  Cl502  1  0.50768458  0.44881480  0.38081421  1
  Cl  Cl503  1  0.50014620  0.78128489  0.38030138  1
  Cl  Cl504  1  0.36118405  0.14685112  0.74277480  1
  Cl  Cl505  1  0.36346915  0.47805440  0.75610723  1
  Cl  Cl506  1  0.36280317  0.81234760  0.75573265  1
  Cl  Cl507  1  0.85888172  0.14579093  0.74960070  1
  Cl  Cl508  1  0.85688470  0.47733267  0.74887917  1
  Cl  Cl509  1  0.86298520  0.81233883  0.75735007  1
  Cl  Cl510  1  0.14901502  0.18644056  0.24801347  1
  Cl  Cl511  1  0.14497998  0.51851372  0.25136274  1
  Cl  Cl512  1  0.13709204  0.85374494  0.25398141  1
  Cl  Cl513  1  0.64107280  0.18727211  0.24734950  1
  Cl  Cl514  1  0.64878417  0.51791610  0.25142720  1
  Cl  Cl515  1  0.64494348  0.84964590  0.25074664  1
  Cl  Cl516  1  0.13947431  0.15007712  0.75099413  1
  Cl  Cl517  1  0.14332951  0.48531998  0.75104120  1
  Cl  Cl518  1  0.14482493  0.81441009  0.74987521  1
  Cl  Cl519  1  0.63820703  0.14925504  0.75586950  1
  Cl  Cl520  1  0.63695919  0.48002650  0.75423770  1
  Cl  Cl521  1  0.63958969  0.81402978  0.74681145  1
  Cl  Cl522  1  0.36834528  0.18845426  0.25623586  1
  Cl  Cl523  1  0.36476810  0.52116210  0.25069896  1
  Cl  Cl524  1  0.35957616  0.85234315  0.24551418  1
  Cl  Cl525  1  0.86384451  0.18711588  0.25617756  1
  Cl  Cl526  1  0.86943883  0.52189772  0.24327556  1
  Cl  Cl527  1  0.86465815  0.85376340  0.24388042  1
  Cl  Cl528  1  0.10406242  0.31765543  0.75244228  1
  Cl  Cl529  1  0.10652288  0.64881723  0.75147021  1
  Cl  Cl530  1  0.10734818  0.98332132  0.74740626  1
  Cl  Cl531  1  0.60477227  0.31435458  0.75263535  1
  Cl  Cl532  1  0.61466483  0.64329054  0.75097277  1
  Cl  Cl533  1  0.60616266  0.98167775  0.74987264  1
  Cl  Cl534  1  0.38791744  0.02165496  0.24956121  1
  Cl  Cl535  1  0.39727901  0.35377432  0.25174830  1
  Cl  Cl536  1  0.38848068  0.68774363  0.24568173  1
  Cl  Cl537  1  0.89189848  0.02074026  0.24617808  1
  Cl  Cl538  1  0.88688823  0.35722938  0.25373543  1
  Cl  Cl539  1  0.89281501  0.68818413  0.24873064  1
  Cl  Cl540  1  0.38400244  0.31197965  0.75213722  1
  Cl  Cl541  1  0.39247847  0.64477677  0.74959614  1
  Cl  Cl542  1  0.38513642  0.97899168  0.75102736  1
  Cl  Cl543  1  0.88383640  0.31399750  0.74414609  1
  Cl  Cl544  1  0.88462541  0.64335536  0.75777175  1
  Cl  Cl545  1  0.88744320  0.97723201  0.74811218  1
  Cl  Cl546  1  0.11281457  0.01820467  0.25339213  1
  Cl  Cl547  1  0.11052046  0.34881924  0.24612746  1
  Cl  Cl548  1  0.11206896  0.68580894  0.24903991  1
  Cl  Cl549  1  0.61064306  0.01721153  0.25413536  1
  Cl  Cl550  1  0.61380470  0.35259587  0.24424505  1
  Cl  Cl551  1  0.60876361  0.68270720  0.24918876  1
