# generated using pymatgen
data_H8PbC4(N3Cl2)2
_symmetry_space_group_name_H-M   'P 1'
_cell_length_a   16.62393127
_cell_length_b   22.50307532
_cell_length_c   21.58921636
_cell_angle_alpha   89.99919204
_cell_angle_beta   89.98498871
_cell_angle_gamma   90.00078349
_symmetry_Int_Tables_number   1
_chemical_formula_structural   H8PbC4(N3Cl2)2
_chemical_formula_sum   'H192 Pb24 C96 N144 Cl96'
_cell_volume   8076.30054592
_cell_formula_units_Z   24
loop_
 _symmetry_equiv_pos_site_id
 _symmetry_equiv_pos_as_xyz
  1  'x, y, z'
loop_
 _atom_site_type_symbol
 _atom_site_label
 _atom_site_symmetry_multiplicity
 _atom_site_fract_x
 _atom_site_fract_y
 _atom_site_fract_z
 _atom_site_occupancy
  H  H0  1  -0.00110464  0.03287819  0.67976930  1
  H  H1  1  0.00165682  0.36424133  0.68007063  1
  H  H2  1  -0.00080432  0.69877834  0.68300044  1
  H  H3  1  0.50372911  0.03177798  0.67916152  1
  H  H4  1  0.49270240  0.36727961  0.67998781  1
  H  H5  1  0.49489361  0.69929120  0.67769737  1
  H  H6  1  0.00047608  0.30102695  0.18331596  1
  H  H7  1  0.00711254  0.63585871  0.18100319  1
  H  H8  1  -0.00118252  0.96866225  0.17770579  1
  H  H9  1  0.49659234  0.30182000  0.17676499  1
  H  H10  1  0.49496628  0.63379889  0.17878912  1
  H  H11  1  0.49678433  0.96833084  0.17950628  1
  H  H12  1  0.00693835  0.03167502  0.82264053  1
  H  H13  1  0.00392621  0.36545629  0.81859776  1
  H  H14  1  0.00334202  0.69851247  0.81769819  1
  H  H15  1  0.49807555  0.03133273  0.81930516  1
  H  H16  1  0.50125873  0.36545103  0.82079396  1
  H  H17  1  0.50476063  0.69631421  0.82034759  1
  H  H18  1  -0.00013099  0.30262964  0.32280671  1
  H  H19  1  0.00607311  0.63294773  0.31721953  1
  H  H20  1  0.00681550  0.96854185  0.32057714  1
  H  H21  1  0.49328226  0.30012483  0.31825680  1
  H  H22  1  0.50237167  0.63599173  0.32011108  1
  H  H23  1  0.49584591  0.96827865  0.32023397  1
  H  H24  1  0.25697002  0.19715145  0.67972703  1
  H  H25  1  0.24835951  0.53248587  0.68010158  1
  H  H26  1  0.25311492  0.86558390  0.68334943  1
  H  H27  1  0.75147863  0.19776825  0.68083440  1
  H  H28  1  0.74463622  0.53002991  0.68022111  1
  H  H29  1  0.74289520  0.86598708  0.68260986  1
  H  H30  1  0.24297174  0.13524337  0.18013373  1
  H  H31  1  0.24637991  0.46730383  0.18079275  1
  H  H32  1  0.25566484  0.80139704  0.17908521  1
  H  H33  1  0.75381533  0.13528325  0.18167397  1
  H  H34  1  0.74641497  0.46901065  0.18196782  1
  H  H35  1  0.74543163  0.80350170  0.18034983  1
  H  H36  1  0.24110634  0.19698407  0.81996249  1
  H  H37  1  0.24977090  0.53332448  0.81922270  1
  H  H38  1  0.25683406  0.86421126  0.81941562  1
  H  H39  1  0.76102230  0.19851801  0.81901583  1
  H  H40  1  0.74684963  0.53091844  0.82309945  1
  H  H41  1  0.74946142  0.86763703  0.82262440  1
  H  H42  1  0.25377066  0.13527795  0.31833572  1
  H  H43  1  0.25513925  0.46960224  0.32115680  1
  H  H44  1  0.25268196  0.80025952  0.31696181  1
  H  H45  1  0.74456971  0.13520489  0.31867257  1
  H  H46  1  0.75601094  0.46726342  0.32316271  1
  H  H47  1  0.75611796  0.80130925  0.32243963  1
  H  H48  1  0.11972008  0.05461983  0.60774670  1
  H  H49  1  0.12959319  0.38744270  0.61249440  1
  H  H50  1  0.13081002  0.71832648  0.61992917  1
  H  H51  1  0.61991167  0.05704152  0.60177148  1
  H  H52  1  0.63340968  0.38304960  0.62639062  1
  H  H53  1  0.63130584  0.71903539  0.62005427  1
  H  H54  1  0.37814857  0.27654914  0.10215447  1
  H  H55  1  0.37194760  0.61180386  0.10679680  1
  H  H56  1  0.38025035  0.94169610  0.10196713  1
  H  H57  1  0.87486631  0.27984393  0.11471291  1
  H  H58  1  0.87051404  0.61448517  0.12212385  1
  H  H59  1  0.87966236  0.94631359  0.10178783  1
  H  H60  1  0.37375152  0.05490637  0.89067980  1
  H  H61  1  0.37035377  0.38655918  0.88526476  1
  H  H62  1  0.37056421  0.71728089  0.88293036  1
  H  H63  1  0.87423900  0.04883053  0.88359936  1
  H  H64  1  0.87077640  0.38574942  0.88049251  1
  H  H65  1  0.87381963  0.72169005  0.88584058  1
  H  H66  1  0.12871587  0.27877446  0.38900146  1
  H  H67  1  0.11482499  0.60966743  0.39845187  1
  H  H68  1  0.11938593  0.94358685  0.40086720  1
  H  H69  1  0.63146106  0.28445412  0.37560109  1
  H  H70  1  0.61571604  0.60928053  0.40038923  1
  H  H71  1  0.62297972  0.94670753  0.38842148  1
  H  H72  1  0.36691350  0.22389055  0.59691202  1
  H  H73  1  0.37966547  0.55335992  0.61482840  1
  H  H74  1  0.37612051  0.88572057  0.61177107  1
  H  H75  1  0.86994189  0.22098488  0.60384459  1
  H  H76  1  0.88125552  0.55031121  0.62327635  1
  H  H77  1  0.87762749  0.88726932  0.62003034  1
  H  H78  1  0.12773883  0.10980721  0.10028243  1
  H  H79  1  0.13271830  0.44442911  0.10228739  1
  H  H80  1  0.12725405  0.77980596  0.11157171  1
  H  H81  1  0.62573965  0.11481660  0.11428588  1
  H  H82  1  0.62801040  0.44599963  0.10431287  1
  H  H83  1  0.63094998  0.77648612  0.10159420  1
  H  H84  1  0.12811165  0.22024149  0.90138660  1
  H  H85  1  0.13245099  0.55530189  0.89401155  1
  H  H86  1  0.11987433  0.88577061  0.87780814  1
  H  H87  1  0.62270205  0.21827284  0.87615326  1
  H  H88  1  0.62844297  0.55481162  0.89778073  1
  H  H89  1  0.62385647  0.88758577  0.89033732  1
  H  H90  1  0.37523880  0.11137129  0.39292257  1
  H  H91  1  0.36726209  0.44322514  0.40136989  1
  H  H92  1  0.37196292  0.77877646  0.39390972  1
  H  H93  1  0.87977371  0.11667283  0.37693367  1
  H  H94  1  0.86687632  0.44115593  0.40287997  1
  H  H95  1  0.86441186  0.77436036  0.40471598  1
  H  H96  1  0.38392348  0.27773754  0.39948605  1
  H  H97  1  0.36874891  0.61432092  0.38240996  1
  H  H98  1  0.37463389  0.94376259  0.39290153  1
  H  H99  1  0.87989584  0.27842740  0.39628625  1
  H  H100  1  0.86760237  0.61520745  0.37349841  1
  H  H101  1  0.87179861  0.94893108  0.38109407  1
  H  H102  1  0.12175231  0.05573190  0.89831121  1
  H  H103  1  0.11979868  0.39063369  0.89642244  1
  H  H104  1  0.12214525  0.72079823  0.89559350  1
  H  H105  1  0.62377246  0.05131993  0.88869197  1
  H  H106  1  0.61866692  0.39047075  0.89751753  1
  H  H107  1  0.61827323  0.72310660  0.90074504  1
  H  H108  1  0.12476674  0.27910544  0.11396090  1
  H  H109  1  0.11772408  0.61247695  0.09976334  1
  H  H110  1  0.12779651  0.94595869  0.10953676  1
  H  H111  1  0.62664205  0.27916251  0.11163143  1
  H  H112  1  0.62091406  0.61166309  0.10864315  1
  H  H113  1  0.62837078  0.94861673  0.11372202  1
  H  H114  1  0.37118890  0.05324105  0.61669036  1
  H  H115  1  0.38692645  0.39067734  0.59646010  1
  H  H116  1  0.38448756  0.72438511  0.59546978  1
  H  H117  1  0.87096819  0.05225715  0.61341346  1
  H  H118  1  0.88069606  0.38834780  0.60535002  1
  H  H119  1  0.88149171  0.72110293  0.60771230  1
  H  H120  1  0.12604059  0.11386674  0.38646326  1
  H  H121  1  0.11982484  0.44692091  0.37890846  1
  H  H122  1  0.12369608  0.77985292  0.38730010  1
  H  H123  1  0.63188378  0.11150473  0.39754120  1
  H  H124  1  0.62019285  0.44659138  0.38214803  1
  H  H125  1  0.61841297  0.78372111  0.37993841  1
  H  H126  1  0.37498546  0.22075694  0.88116412  1
  H  H127  1  0.38161984  0.55170846  0.88327026  1
  H  H128  1  0.36718935  0.88904092  0.90054999  1
  H  H129  1  0.86885630  0.22192978  0.90254140  1
  H  H130  1  0.87710020  0.55348146  0.88792637  1
  H  H131  1  0.87270553  0.88870788  0.89204132  1
  H  H132  1  0.37553721  0.11471065  0.11549186  1
  H  H133  1  0.38101049  0.44982216  0.12126757  1
  H  H134  1  0.37611964  0.77634223  0.10546883  1
  H  H135  1  0.87517701  0.11255504  0.11041686  1
  H  H136  1  0.87629625  0.44597710  0.11375739  1
  H  H137  1  0.87931850  0.78363054  0.11967018  1
  H  H138  1  0.12080830  0.21705896  0.62112423  1
  H  H139  1  0.13213768  0.55706851  0.60162115  1
  H  H140  1  0.12656677  0.88757583  0.61634807  1
  H  H141  1  0.62165006  0.22017899  0.61534737  1
  H  H142  1  0.63412446  0.55805945  0.59879028  1
  H  H143  1  0.62956208  0.89086963  0.60314603  1
  H  H144  1  0.83806282  0.58291850  0.99482389  1
  H  H145  1  0.29797729  0.91551455  1.00624993  1
  H  H146  1  0.69483106  0.75724405  -0.00277635  1
  H  H147  1  0.35716032  0.42167779  0.00805039  1
  H  H148  1  0.64156429  0.75176249  0.48838185  1
  H  H149  1  0.29880349  0.41824155  0.50384200  1
  H  H150  1  0.07841990  0.25131242  0.00169710  1
  H  H151  1  0.58213329  0.08116757  0.99863051  1
  H  H152  1  0.08405474  0.91934600  0.00392507  1
  H  H153  1  0.90263519  0.41438573  0.99263662  1
  H  H154  1  0.54656409  0.58395324  0.50210361  1
  H  H155  1  0.79110013  0.76189519  0.50636900  1
  H  H156  1  0.79654455  0.24764388  1.00759168  1
  H  H157  1  0.85908449  0.58190312  0.50990771  1
  H  H158  1  0.44522214  0.91464870  -0.00095008  1
  H  H159  1  0.84907976  0.75426412  0.00726346  1
  H  H160  1  0.19416012  0.41977422  -0.00668459  1
  H  H161  1  0.16848126  0.90947110  0.50211129  1
  H  H162  1  0.09819455  0.74623828  0.50752860  1
  H  H163  1  0.08709928  0.24823403  0.49475568  1
  H  H164  1  0.43345936  0.93877984  0.49950816  1
  H  H165  1  0.32709942  0.90127760  0.49767602  1
  H  H166  1  0.18832445  0.58448839  1.00428913  1
  H  H167  1  0.19756967  0.58425437  0.49911086  1
  H  H168  1  0.64557154  0.41558442  0.49191680  1
  H  H169  1  0.05791952  0.41386448  1.00063383  1
  H  H170  1  0.58710238  0.25127732  0.00429588  1
  H  H171  1  0.08793307  0.41599213  0.50233921  1
  H  H172  1  0.91878511  0.25123381  0.00285531  1
  H  H173  1  0.69645708  0.91650105  0.49600923  1
  H  H174  1  0.29419076  0.24774837  0.49598598  1
  H  H175  1  0.45036905  0.25122601  0.50679668  1
  H  H176  1  0.05079997  0.92240534  0.50509902  1
  H  H177  1  0.82893787  0.08132675  0.00039216  1
  H  H178  1  0.70279795  0.57947903  0.49681310  1
  H  H179  1  0.69402120  0.08565462  0.50573750  1
  H  H180  1  0.45815424  0.41597623  0.49027610  1
  H  H181  1  0.54891764  0.74541382  1.00319566  1
  H  H182  1  0.04699807  0.58379273  0.50636147  1
  H  H183  1  0.42184618  0.08481141  0.99445973  1
  H  H184  1  0.04895841  0.58762914  -0.00668723  1
  H  H185  1  0.19883524  0.24032076  1.00434456  1
  H  H186  1  0.16978132  0.08443578  0.49625285  1
  H  H187  1  0.85848736  0.08731241  0.48998970  1
  H  H188  1  0.93666199  0.74555005  0.49739254  1
  H  H189  1  0.55630474  0.08509363  0.49843530  1
  H  H190  1  0.65723429  0.25066572  0.50448556  1
  H  H191  1  0.57255153  0.90352724  0.48687312  1
  Pb  Pb192  1  0.24593989  0.04872687  0.74970154  1
  Pb  Pb193  1  0.25061439  0.38003668  0.74649993  1
  Pb  Pb194  1  0.25115573  0.71111928  0.74976024  1
  Pb  Pb195  1  0.74771157  0.04505435  0.74786718  1
  Pb  Pb196  1  0.75046829  0.37914838  0.74918788  1
  Pb  Pb197  1  0.75020630  0.71665914  0.75213297  1
  Pb  Pb198  1  0.25547546  0.28556020  0.25092419  1
  Pb  Pb199  1  0.25096591  0.61964641  0.25081852  1
  Pb  Pb200  1  0.24590001  0.95234635  0.25101588  1
  Pb  Pb201  1  0.75137927  0.28784178  0.24915849  1
  Pb  Pb202  1  0.74628469  0.61978785  0.25145947  1
  Pb  Pb203  1  0.75412342  0.95203953  0.25115232  1
  Pb  Pb204  1  -0.00499374  0.21406174  0.75361123  1
  Pb  Pb205  1  0.00099872  0.54608110  0.75134832  1
  Pb  Pb206  1  0.00317907  0.88123485  0.74676847  1
  Pb  Pb207  1  0.49901748  0.21280586  0.74715942  1
  Pb  Pb208  1  0.50359641  0.54583071  0.74383274  1
  Pb  Pb209  1  0.49369496  0.88146365  0.74813015  1
  Pb  Pb210  1  0.00149189  0.12133868  0.24642333  1
  Pb  Pb211  1  0.00038309  0.45347615  0.24594236  1
  Pb  Pb212  1  0.00144941  0.78490578  0.25629077  1
  Pb  Pb213  1  0.50345434  0.11706056  0.25366797  1
  Pb  Pb214  1  0.50043374  0.45450269  0.25165769  1
  Pb  Pb215  1  0.49907482  0.78742882  0.24352253  1
  C  C216  1  -0.00362001  0.04676236  0.63182706  1
  C  C217  1  0.00407626  0.37961583  0.63254178  1
  C  C218  1  0.00411000  0.71314396  0.63513255  1
  C  C219  1  0.49852465  0.04682675  0.63174872  1
  C  C220  1  0.50429633  0.38011700  0.63235310  1
  C  C221  1  0.50347374  0.71415503  0.63053387  1
  C  C222  1  0.00002281  0.28686758  0.13518312  1
  C  C223  1  -0.00187430  0.62075817  0.13373383  1
  C  C224  1  0.00259371  0.95417986  0.12985926  1
  C  C225  1  0.50090850  0.28645948  0.12935359  1
  C  C226  1  0.49614158  0.61919557  0.13112563  1
  C  C227  1  0.50147956  0.95312966  0.13191133  1
  C  C228  1  0.00090850  0.04589326  0.87026182  1
  C  C229  1  -0.00158002  0.38004520  0.86648246  1
  C  C230  1  -0.00040350  0.71317410  0.86546490  1
  C  C231  1  0.49814392  0.04651568  0.86710517  1
  C  C232  1  0.49692324  0.38042255  0.86820805  1
  C  C233  1  0.49824549  0.71155131  0.86772990  1
  C  C234  1  0.00330390  0.28668785  0.37003437  1
  C  C235  1  -0.00372516  0.61953279  0.36485577  1
  C  C236  1  -0.00042053  0.95480499  0.36832154  1
  C  C237  1  0.50265959  0.28713163  0.36605632  1
  C  C238  1  0.49575018  0.62091593  0.36751750  1
  C  C239  1  0.49772438  0.95298817  0.36804283  1
  C  C240  1  0.24855241  0.21248308  0.63251120  1
  C  C241  1  0.25332111  0.54730393  0.63245192  1
  C  C242  1  0.25195914  0.87966462  0.63523911  1
  C  C243  1  0.74767026  0.21307867  0.63331638  1
  C  C244  1  0.75325146  0.54533079  0.63287946  1
  C  C245  1  0.75035154  0.88047239  0.63502190  1
  C  C246  1  0.24868194  0.12031487  0.13255416  1
  C  C247  1  0.25371608  0.45340497  0.13291131  1
  C  C248  1  0.25286998  0.78593754  0.13180844  1
  C  C249  1  0.75195508  0.12072980  0.13388503  1
  C  C250  1  0.75044651  0.45425081  0.13420124  1
  C  C251  1  0.75156380  0.78868081  0.13261594  1
  C  C252  1  0.24764123  0.21198384  0.86745048  1
  C  C253  1  0.25431243  0.54697451  0.86719911  1
  C  C254  1  0.24755165  0.87929076  0.86662994  1
  C  C255  1  0.75055119  0.21300791  0.86635517  1
  C  C256  1  0.75125681  0.54630385  0.87047236  1
  C  C257  1  0.74861079  0.88133134  0.87094774  1
  C  C258  1  0.25186862  0.12014426  0.36600453  1
  C  C259  1  0.24767631  0.45411891  0.36834846  1
  C  C260  1  0.24918443  0.78627720  0.36503168  1
  C  C261  1  0.75242938  0.12064888  0.36627492  1
  C  C262  1  0.74710104  0.45214689  0.37029581  1
  C  C263  1  0.74609263  0.78621501  0.36975159  1
  C  C264  1  0.46021409  0.59212444  0.03804036  1
  C  C265  1  0.80890144  0.09668805  0.45592313  1
  C  C266  1  0.56827525  0.40192717  0.54557403  1
  C  C267  1  0.76796687  0.23838442  0.96316410  1
  C  C268  1  0.30907359  0.43047099  0.04254162  1
  C  C269  1  0.94916125  0.07110236  0.95969328  1
  C  C270  1  0.30509185  0.57120143  0.95817995  1
  C  C271  1  0.45073618  0.40766088  0.95880422  1
  C  C272  1  0.22732982  0.42916220  0.03568984  1
  C  C273  1  0.20824027  0.90129192  0.54119645  1
  C  C274  1  0.95813598  0.26195119  0.04150397  1
  C  C275  1  0.02964931  0.07372837  0.96477852  1
  C  C276  1  0.70656527  0.09476942  0.04173203  1
  C  C277  1  0.46629591  0.25754974  0.03456070  1
  C  C278  1  0.54064495  0.07201940  0.96003762  1
  C  C279  1  0.03225260  0.07320530  0.53784492  1
  C  C280  1  0.56310457  0.26442229  0.45427365  1
  C  C281  1  0.97216945  0.73675363  0.53870447  1
  C  C282  1  0.55739638  0.73900050  0.54192148  1
  C  C283  1  0.72730237  0.09542287  0.46346996  1
  C  C284  1  0.44566337  0.07537424  0.54189956  1
  C  C285  1  0.28534402  0.75719881  0.03859100  1
  C  C286  1  0.70299507  0.23985177  0.54214491  1
  C  C287  1  0.22381184  0.57293503  0.96366711  1
  C  C288  1  0.48813791  0.40497881  0.53370044  1
  C  C289  1  0.29033139  0.89931508  0.53927910  1
  C  C290  1  0.94629932  0.40549654  0.95628714  1
  C  C291  1  0.04012020  0.26182231  0.04104268  1
  C  C292  1  0.95073894  0.07230729  0.53999116  1
  C  C293  1  0.05407454  0.73651592  0.54336042  1
  C  C294  1  0.70692983  0.90531784  0.96296528  1
  C  C295  1  0.72707192  0.90542167  0.53901980  1
  C  C296  1  0.94307240  0.92902609  0.45780784  1
  C  C297  1  0.96697695  0.25679450  0.46412051  1
  C  C298  1  0.77215062  0.42192218  0.46642996  1
  C  C299  1  0.78817803  0.09327922  0.03898300  1
  C  C300  1  0.01874621  0.59588707  0.03725681  1
  C  C301  1  0.04544140  0.40626141  0.54068933  1
  C  C302  1  0.80510742  0.76279377  0.04341614  1
  C  C303  1  0.93580051  0.59708668  0.45273520  1
  C  C304  1  0.26774606  0.90572976  0.96265947  1
  C  C305  1  0.01609463  0.59457976  0.46331468  1
  C  C306  1  0.21091997  0.09448677  0.45808387  1
  C  C307  1  0.78725070  0.90561811  0.96362823  1
  C  C308  1  0.18994223  0.42552980  0.45631440  1
  C  C309  1  0.71698032  0.57556647  0.96512863  1
  C  C310  1  0.48237462  0.26189886  0.46429708  1
  C  C311  1  0.81139188  0.57237655  0.54556205  1
  N  N312  1  0.18953700  0.23770843  0.54496697  1
  N  N313  1  0.20804881  0.75815512  0.03921309  1
  N  N314  1  0.76605290  0.75439000  0.46349573  1
  N  N315  1  0.02566590  0.40761420  0.96066656  1
  N  N316  1  0.52076607  0.74053097  0.96101242  1
  N  N317  1  0.44310519  0.73839081  0.95617833  1
  N  N318  1  0.68962853  0.23783053  0.95428689  1
  N  N319  1  0.54526682  0.25932433  0.03871195  1
  N  N320  1  0.79595347  0.57460059  0.96064261  1
  N  N321  1  0.46088872  0.07361818  0.95951544  1
  N  N322  1  0.18897981  0.90532415  0.95513878  1
  N  N323  1  0.04592448  0.25771529  0.46058609  1
  N  N324  1  0.30541531  0.57128559  0.54176385  1
  N  N325  1  0.55308270  0.92882813  0.04129774  1
  N  N326  1  0.04411358  0.92885448  0.03928326  1
  N  N327  1  0.72574479  0.75956511  0.03838973  1
  N  N328  1  0.02153510  0.92793282  0.46361843  1
  N  N329  1  0.20595368  0.76284814  0.45850669  1
  N  N330  1  0.46096371  0.92362441  0.45988811  1
  N  N331  1  0.73229265  0.57547112  0.53855356  1
  N  N332  1  0.52436876  0.07583584  0.53788850  1
  N  N333  1  0.69405814  0.42492927  0.45838010  1
  N  N334  1  0.44049259  0.59457345  0.45638765  1
  N  N335  1  0.26716914  0.24101915  0.53839878  1
  N  N336  1  0.30310414  0.23982673  0.95544989  1
  N  N337  1  0.95505430  0.73974646  0.95755694  1
  N  N338  1  0.79515327  0.42694747  0.04230221  1
  N  N339  1  0.47531422  0.92636823  0.03854336  1
  N  N340  1  0.03110966  0.73921600  0.96081926  1
  N  N341  1  0.96618544  0.40689716  0.53791697  1
  N  N342  1  0.68853547  0.76695462  0.45742282  1
  N  N343  1  0.51809413  0.59280487  0.46097458  1
  N  N344  1  0.22543850  0.23951067  0.96144407  1
  N  N345  1  0.29816134  0.09515357  0.04160388  1
  N  N346  1  0.52793939  0.40919426  0.96417966  1
  N  N347  1  0.80599496  0.90361886  0.54464625  1
  N  N348  1  0.28203943  0.76256980  0.46085910  1
  N  N349  1  0.71900252  0.42650442  0.03932604  1
  N  N350  1  0.29019101  0.09401248  0.46090920  1
  N  N351  1  0.54122176  0.93354236  0.46063730  1
  N  N352  1  0.78225159  0.24003494  0.53784815  1
  N  N353  1  0.26878293  0.42465006  0.46280072  1
  N  N354  1  0.48054494  0.74196480  0.53293790  1
  N  N355  1  0.22171938  0.09351769  0.03665682  1
  N  N356  1  0.96615350  0.92835393  0.03529590  1
  N  N357  1  0.94001720  0.59532871  0.04484325  1
  N  N358  1  0.53763937  0.59217527  0.03715203  1
  N  N359  1  0.22762004  0.57299577  0.53877249  1
  N  N360  1  0.05955650  0.05761547  0.59427424  1
  N  N361  1  0.07011548  0.38998080  0.59870937  1
  N  N362  1  0.07238322  0.72209058  0.60350884  1
  N  N363  1  0.55815536  0.05727835  0.59272521  1
  N  N364  1  0.57740241  0.38710761  0.60559467  1
  N  N365  1  0.57410400  0.72284624  0.60157638  1
  N  N366  1  0.43858242  0.27418346  0.09052884  1
  N  N367  1  0.43192168  0.60843355  0.09453101  1
  N  N368  1  0.44197146  0.94126196  0.09322702  1
  N  N369  1  0.93453952  0.27746665  0.10026533  1
  N  N370  1  0.92897766  0.61090277  0.10539331  1
  N  N371  1  0.94082671  0.94425707  0.09187902  1
  N  N372  1  0.43485450  0.05819475  0.90203567  1
  N  N373  1  0.42900697  0.39031608  0.90064785  1
  N  N374  1  0.42965791  0.72208715  0.89756452  1
  N  N375  1  0.93170893  0.05431751  0.90175323  1
  N  N376  1  0.92913853  0.38946071  0.89746772  1
  N  N377  1  0.93392170  0.72347480  0.89842025  1
  N  N378  1  0.06903545  0.27641698  0.40252575  1
  N  N379  1  0.05292451  0.60895221  0.40704866  1
  N  N380  1  0.05775733  0.94605115  0.40913464  1
  N  N381  1  0.57455609  0.27943891  0.39474555  1
  N  N382  1  0.55365134  0.61028653  0.40796572  1
  N  N383  1  0.56276897  0.94004599  0.40061326  1
  N  N384  1  0.30458960  0.22366987  0.59070012  1
  N  N385  1  0.32088037  0.55594935  0.60058795  1
  N  N386  1  0.31623398  0.88649163  0.59825305  1
  N  N387  1  0.80823165  0.22325466  0.59490318  1
  N  N388  1  0.82431030  0.55520636  0.60463044  1
  N  N389  1  0.81858478  0.88866903  0.60448256  1
  N  N390  1  0.18983526  0.10889325  0.09286710  1
  N  N391  1  0.19409679  0.44340937  0.09236682  1
  N  N392  1  0.18756053  0.77612470  0.09852859  1
  N  N393  1  0.68509071  0.11117408  0.09916924  1
  N  N394  1  0.68975808  0.44351776  0.09588115  1
  N  N395  1  0.69281312  0.77907807  0.09254596  1
  N  N396  1  0.18990821  0.21997108  0.90886560  1
  N  N397  1  0.19308230  0.55740690  0.90573452  1
  N  N398  1  0.17828325  0.88863828  0.89498709  1
  N  N399  1  0.68065999  0.22202824  0.89380437  1
  N  N400  1  0.68904062  0.55832317  0.90952080  1
  N  N401  1  0.68248316  0.89069657  0.90635203  1
  N  N402  1  0.31409896  0.10998915  0.40296828  1
  N  N403  1  0.30521111  0.44437397  0.40921764  1
  N  N404  1  0.31044593  0.77662071  0.40310709  1
  N  N405  1  0.82245492  0.11210227  0.39537510  1
  N  N406  1  0.80554424  0.43917218  0.41217879  1
  N  N407  1  0.80230542  0.77634327  0.41201394  1
  N  N408  1  0.44568552  0.27641198  0.40800734  1
  N  N409  1  0.42709651  0.61109550  0.39760047  1
  N  N410  1  0.43496775  0.94669818  0.40527977  1
  N  N411  1  0.94039472  0.27473929  0.40829512  1
  N  N412  1  0.92399761  0.61187162  0.39315673  1
  N  N413  1  0.92927452  0.94484775  0.39867771  1
  N  N414  1  0.06114507  0.05844199  0.91011034  1
  N  N415  1  0.05789253  0.38979506  0.90592427  1
  N  N416  1  0.06034896  0.72297115  0.90396446  1
  N  N417  1  0.56382981  0.05536208  0.90256271  1
  N  N418  1  0.55694308  0.39183944  0.90632717  1
  N  N419  1  0.55622640  0.72177864  0.90833658  1
  N  N420  1  0.06496306  0.27739538  0.09969396  1
  N  N421  1  0.05584083  0.61062901  0.09155340  1
  N  N422  1  0.06788748  0.94475473  0.09636996  1
  N  N423  1  0.56713414  0.27770230  0.09705233  1
  N  N424  1  0.56021649  0.60919986  0.09656624  1
  N  N425  1  0.56892603  0.94508666  0.09969355  1
  N  N426  1  0.42939873  0.05768643  0.60009430  1
  N  N427  1  0.44904688  0.39090251  0.58907833  1
  N  N428  1  0.44692800  0.72604112  0.58948998  1
  N  N429  1  0.92967788  0.05625495  0.59775526  1
  N  N430  1  0.94230027  0.39009790  0.59535678  1
  N  N431  1  0.94242346  0.72230819  0.59625939  1
  N  N432  1  0.18595392  0.11006202  0.40014523  1
  N  N433  1  0.17699786  0.44260678  0.39743814  1
  N  N434  1  0.18403627  0.77733628  0.39906328  1
  N  N435  1  0.69335226  0.11026680  0.40713105  1
  N  N436  1  0.67815349  0.44350720  0.39914193  1
  N  N437  1  0.67605541  0.77662557  0.39707669  1
  N  N438  1  0.31611601  0.22465810  0.89645981  1
  N  N439  1  0.32298753  0.55569987  0.89993970  1
  N  N440  1  0.30501624  0.89023319  0.90872174  1
  N  N441  1  0.80694089  0.22340402  0.90954439  1
  N  N442  1  0.81767663  0.55636698  0.90218193  1
  N  N443  1  0.81332104  0.89129796  0.90746978  1
  N  N444  1  0.31600655  0.11149041  0.10110045  1
  N  N445  1  0.32347910  0.44530217  0.10325739  1
  N  N446  1  0.31584430  0.77397765  0.09427553  1
  N  N447  1  0.81515869  0.10979442  0.09756244  1
  N  N448  1  0.81613975  0.44406921  0.10122927  1
  N  N449  1  0.82121052  0.77898772  0.10228029  1
  N  N450  1  0.17871456  0.22173094  0.60415846  1
  N  N451  1  0.19402161  0.55803182  0.59325812  1
  N  N452  1  0.18590036  0.88913085  0.60105424  1
  N  N453  1  0.68064220  0.22364694  0.60067208  1
  N  N454  1  0.69646453  0.55603398  0.59148005  1
  N  N455  1  0.69120370  0.89118498  0.59412328  1
  Cl  Cl456  1  0.24547599  0.05347474  0.61725286  1
  Cl  Cl457  1  0.26144449  0.39118208  0.60658749  1
  Cl  Cl458  1  0.25951135  0.71773814  0.61867300  1
  Cl  Cl459  1  0.74146295  0.05483749  0.61303586  1
  Cl  Cl460  1  0.75842747  0.38934786  0.61460179  1
  Cl  Cl461  1  0.75804605  0.72557852  0.61124759  1
  Cl  Cl462  1  0.24955020  0.27539234  0.11515406  1
  Cl  Cl463  1  0.24314016  0.61362772  0.11766151  1
  Cl  Cl464  1  0.25648799  0.94200967  0.11344688  1
  Cl  Cl465  1  0.75106476  0.27603365  0.11395835  1
  Cl  Cl466  1  0.74514931  0.61422828  0.11806182  1
  Cl  Cl467  1  0.75414709  0.94805650  0.11975698  1
  Cl  Cl468  1  0.25093403  0.05093734  0.88131788  1
  Cl  Cl469  1  0.24171551  0.38803602  0.88101317  1
  Cl  Cl470  1  0.24566971  0.71697387  0.88261667  1
  Cl  Cl471  1  0.74741764  0.05001707  0.87903268  1
  Cl  Cl472  1  0.74475190  0.38620499  0.87902087  1
  Cl  Cl473  1  0.74140873  0.72499364  0.89486146  1
  Cl  Cl474  1  0.25755218  0.27788959  0.39281886  1
  Cl  Cl475  1  0.23844495  0.60768141  0.38883157  1
  Cl  Cl476  1  0.24700850  0.94184900  0.38659169  1
  Cl  Cl477  1  0.75709546  0.28388259  0.37994110  1
  Cl  Cl478  1  0.73578541  0.60795602  0.39385219  1
  Cl  Cl479  1  0.74326682  0.94409073  0.38691117  1
  Cl  Cl480  1  -0.00398799  0.21954918  0.61799249  1
  Cl  Cl481  1  0.01109158  0.55467948  0.61639453  1
  Cl  Cl482  1  0.00434183  0.89346536  0.61048097  1
  Cl  Cl483  1  0.48921492  0.21971904  0.61207454  1
  Cl  Cl484  1  0.51208728  0.55833490  0.60519182  1
  Cl  Cl485  1  0.50390931  0.89441984  0.60563340  1
  Cl  Cl486  1  0.00426824  0.11256057  0.11443037  1
  Cl  Cl487  1  0.00636096  0.44210182  0.10586210  1
  Cl  Cl488  1  0.00351757  0.78434137  0.12576944  1
  Cl  Cl489  1  0.49976283  0.11385305  0.11511693  1
  Cl  Cl490  1  0.50627024  0.44955864  0.12244077  1
  Cl  Cl491  1  0.50813138  0.77449874  0.10578114  1
  Cl  Cl492  1  0.00098637  0.22251308  0.88981694  1
  Cl  Cl493  1  0.00512007  0.55290198  0.88655356  1
  Cl  Cl494  1  -0.00346124  0.88944231  0.87816326  1
  Cl  Cl495  1  0.49864690  0.21937025  0.88108642  1
  Cl  Cl496  1  0.50612605  0.54994912  0.87406169  1
  Cl  Cl497  1  0.48932822  0.88972090  0.88570703  1
  Cl  Cl498  1  0.00444520  0.11779428  0.37816646  1
  Cl  Cl499  1  -0.00716217  0.44610922  0.37721427  1
  Cl  Cl500  1  -0.00966039  0.77921386  0.39233752  1
  Cl  Cl501  1  0.50614649  0.10772423  0.39247892  1
  Cl  Cl502  1  0.49046520  0.44500530  0.38779263  1
  Cl  Cl503  1  0.49510616  0.78569986  0.37608640  1
  Cl  Cl504  1  0.36437886  0.14349768  0.75376013  1
  Cl  Cl505  1  0.36217600  0.48022716  0.74793604  1
  Cl  Cl506  1  0.36124599  0.81289955  0.74992135  1
  Cl  Cl507  1  0.85739522  0.14713357  0.74783095  1
  Cl  Cl508  1  0.86486348  0.47780523  0.75102674  1
  Cl  Cl509  1  0.85951193  0.81021120  0.74874280  1
  Cl  Cl510  1  0.13699730  0.18951407  0.25079971  1
  Cl  Cl511  1  0.13669205  0.52041004  0.25217456  1
  Cl  Cl512  1  0.13883081  0.85522796  0.24970509  1
  Cl  Cl513  1  0.64002361  0.18736312  0.25047473  1
  Cl  Cl514  1  0.63753915  0.52061814  0.25620056  1
  Cl  Cl515  1  0.63447130  0.85576781  0.25404745  1
  Cl  Cl516  1  0.14375513  0.14505980  0.74619601  1
  Cl  Cl517  1  0.13710184  0.47812149  0.75011347  1
  Cl  Cl518  1  0.13760284  0.81173008  0.74958844  1
  Cl  Cl519  1  0.63491258  0.14491842  0.75224039  1
  Cl  Cl520  1  0.64173855  0.47903892  0.74505689  1
  Cl  Cl521  1  0.64171274  0.81131270  0.75141795  1
  Cl  Cl522  1  0.35851667  0.19009835  0.25120588  1
  Cl  Cl523  1  0.36037367  0.52201876  0.24979748  1
  Cl  Cl524  1  0.36500030  0.85629664  0.24882284  1
  Cl  Cl525  1  0.86482583  0.18875141  0.25061546  1
  Cl  Cl526  1  0.86237158  0.52278277  0.25011535  1
  Cl  Cl527  1  0.85429296  0.85491641  0.25212370  1
  Cl  Cl528  1  0.11366048  0.31128062  0.74617713  1
  Cl  Cl529  1  0.11243506  0.64587511  0.74741350  1
  Cl  Cl530  1  0.11129156  0.97727005  0.74988010  1
  Cl  Cl531  1  0.61298109  0.31212769  0.74684957  1
  Cl  Cl532  1  0.61438698  0.64582988  0.74438261  1
  Cl  Cl533  1  0.61074540  0.97864176  0.75039092  1
  Cl  Cl534  1  0.39205173  0.02317343  0.25171862  1
  Cl  Cl535  1  0.38946072  0.35367756  0.24749459  1
  Cl  Cl536  1  0.38684827  0.68705870  0.25268026  1
  Cl  Cl537  1  0.88908735  0.02092075  0.25314813  1
  Cl  Cl538  1  0.88794799  0.35465180  0.24696872  1
  Cl  Cl539  1  0.88216244  0.68871814  0.25156195  1
  Cl  Cl540  1  0.38606380  0.31217319  0.75216310  1
  Cl  Cl541  1  0.38995229  0.64484983  0.75181981  1
  Cl  Cl542  1  0.39066927  0.97625623  0.74455055  1
  Cl  Cl543  1  0.89097168  0.31102041  0.75152192  1
  Cl  Cl544  1  0.88603338  0.64460909  0.75034184  1
  Cl  Cl545  1  0.88595791  0.97855372  0.74878538  1
  Cl  Cl546  1  0.11166745  0.02019629  0.24936554  1
  Cl  Cl547  1  0.11006097  0.35599937  0.25080663  1
  Cl  Cl548  1  0.10413309  0.68876543  0.25202234  1
  Cl  Cl549  1  0.60791625  0.02333138  0.24869805  1
  Cl  Cl550  1  0.61341580  0.35486176  0.25368080  1
  Cl  Cl551  1  0.61225287  0.68851208  0.24957476  1
