# generated using pymatgen
data_H8PbC4(N3Cl2)2
_symmetry_space_group_name_H-M   'P 1'
_cell_length_a   16.62580284
_cell_length_b   22.51228810
_cell_length_c   21.59198116
_cell_angle_alpha   89.99870347
_cell_angle_beta   90.00765090
_cell_angle_gamma   89.99865725
_symmetry_Int_Tables_number   1
_chemical_formula_structural   H8PbC4(N3Cl2)2
_chemical_formula_sum   'H192 Pb24 C96 N144 Cl96'
_cell_volume   8081.55163847
_cell_formula_units_Z   24
loop_
 _symmetry_equiv_pos_site_id
 _symmetry_equiv_pos_as_xyz
  1  'x, y, z'
loop_
 _atom_site_type_symbol
 _atom_site_label
 _atom_site_symmetry_multiplicity
 _atom_site_fract_x
 _atom_site_fract_y
 _atom_site_fract_z
 _atom_site_occupancy
  H  H0  1  -0.00821881  0.03089890  0.68146725  1
  H  H1  1  -0.00247652  0.36208254  0.67588106  1
  H  H2  1  0.00634829  0.69477716  0.67702209  1
  H  H3  1  0.49920804  0.02623663  0.67789585  1
  H  H4  1  0.50556921  0.36403509  0.67647808  1
  H  H5  1  0.50395031  0.69951583  0.67191843  1
  H  H6  1  -0.01650616  0.30731337  0.17659238  1
  H  H7  1  -0.00078880  0.63710106  0.17926276  1
  H  H8  1  0.00193425  0.96682447  0.17218409  1
  H  H9  1  0.51561576  0.30441686  0.17768766  1
  H  H10  1  0.49493737  0.63348866  0.18214905  1
  H  H11  1  0.50318347  0.96614517  0.18551065  1
  H  H12  1  -0.00035463  0.03223732  0.81972840  1
  H  H13  1  0.00259785  0.36752124  0.82459358  1
  H  H14  1  -0.01037147  0.69579241  0.82323999  1
  H  H15  1  0.49108703  0.03259367  0.81852302  1
  H  H16  1  0.49335256  0.36292675  0.82261659  1
  H  H17  1  0.51031811  0.69579129  0.81905976  1
  H  H18  1  0.00065681  0.30229874  0.32417677  1
  H  H19  1  0.00186320  0.63401034  0.32443729  1
  H  H20  1  -0.01243152  0.96691738  0.32359656  1
  H  H21  1  0.49686478  0.30298649  0.31949603  1
  H  H22  1  0.50384908  0.64045380  0.32398417  1
  H  H23  1  0.49879882  0.96966159  0.32550664  1
  H  H24  1  0.26510367  0.19608060  0.67710407  1
  H  H25  1  0.25754400  0.52842987  0.67800992  1
  H  H26  1  0.25796006  0.86268783  0.67958732  1
  H  H27  1  0.73474395  0.19843449  0.67732820  1
  H  H28  1  0.73477540  0.53289981  0.67493702  1
  H  H29  1  0.75696630  0.86375475  0.67171964  1
  H  H30  1  0.25318488  0.13906651  0.17665775  1
  H  H31  1  0.25417153  0.47068418  0.17724299  1
  H  H32  1  0.25119307  0.80270261  0.18095101  1
  H  H33  1  0.75473105  0.13449198  0.18318733  1
  H  H34  1  0.74348018  0.47473968  0.17449711  1
  H  H35  1  0.74442594  0.80477382  0.17628738  1
  H  H36  1  0.25114807  0.19752982  0.82390192  1
  H  H37  1  0.26089551  0.53135349  0.81967113  1
  H  H38  1  0.26515590  0.86373998  0.82586932  1
  H  H39  1  0.74925293  0.19434135  0.81767571  1
  H  H40  1  0.74749327  0.52609662  0.82304012  1
  H  H41  1  0.73500699  0.86561761  0.82243094  1
  H  H42  1  0.25064782  0.13592102  0.31995477  1
  H  H43  1  0.26044554  0.47151168  0.32418721  1
  H  H44  1  0.24984878  0.80373605  0.32284294  1
  H  H45  1  0.75425116  0.13688173  0.32064829  1
  H  H46  1  0.73985321  0.46985973  0.31906406  1
  H  H47  1  0.74674126  0.80387169  0.32325823  1
  H  H48  1  0.13395301  0.04615867  0.63014590  1
  H  H49  1  0.12459739  0.38775793  0.60858159  1
  H  H50  1  0.11109995  0.72479279  0.59305119  1
  H  H51  1  0.63238173  0.04928620  0.61370020  1
  H  H52  1  0.61792787  0.39352033  0.59729124  1
  H  H53  1  0.61117250  0.72427417  0.58998059  1
  H  H54  1  0.37673163  0.28172469  0.12343577  1
  H  H55  1  0.38209918  0.60792736  0.10255819  1
  H  H56  1  0.37773826  0.94604690  0.11637363  1
  H  H57  1  0.88657759  0.27773341  0.08654410  1
  H  H58  1  0.87463955  0.61538303  0.10985053  1
  H  H59  1  0.87740803  0.94420717  0.10368471  1
  H  H60  1  0.38570218  0.05977758  0.90486227  1
  H  H61  1  0.38502034  0.39072322  0.90652639  1
  H  H62  1  0.37289493  0.71755880  0.87342224  1
  H  H63  1  0.88404270  0.05340844  0.89550352  1
  H  H64  1  0.87738237  0.38729067  0.89208404  1
  H  H65  1  0.87776526  0.72390540  0.90416700  1
  H  H66  1  0.12023497  0.27603288  0.39880137  1
  H  H67  1  0.11965815  0.60884741  0.39733518  1
  H  H68  1  0.12665996  0.95041096  0.37535291  1
  H  H69  1  0.62309447  0.27844924  0.38677911  1
  H  H70  1  0.61831845  0.61321668  0.40373330  1
  H  H71  1  0.63485963  0.94889932  0.38089358  1
  H  H72  1  0.36631515  0.22696856  0.59116252  1
  H  H73  1  0.37623503  0.55473096  0.60401816  1
  H  H74  1  0.37320665  0.88911408  0.60284990  1
  H  H75  1  0.87888120  0.21467773  0.62876774  1
  H  H76  1  0.87715797  0.55118149  0.62505718  1
  H  H77  1  0.85858151  0.89231206  0.58571022  1
  H  H78  1  0.11743978  0.11395462  0.11888146  1
  H  H79  1  0.11854146  0.45004517  0.11724960  1
  H  H80  1  0.12411860  0.77946454  0.11403047  1
  H  H81  1  0.62181800  0.11539770  0.12289349  1
  H  H82  1  0.62212879  0.44311287  0.10435541  1
  H  H83  1  0.63436842  0.77431894  0.09575530  1
  H  H84  1  0.12251639  0.22174952  0.89156669  1
  H  H85  1  0.12303877  0.54823534  0.87803129  1
  H  H86  1  0.11880664  0.87905249  0.87087624  1
  H  H87  1  0.62278227  0.21910083  0.88427521  1
  H  H88  1  0.62328742  0.55403953  0.89412712  1
  H  H89  1  0.63981276  0.89356480  0.91198925  1
  H  H90  1  0.36698744  0.10965337  0.39762763  1
  H  H91  1  0.36931706  0.44122363  0.40631250  1
  H  H92  1  0.38905976  0.78509480  0.37638804  1
  H  H93  1  0.86431775  0.10835985  0.40019842  1
  H  H94  1  0.87827641  0.45046765  0.37569915  1
  H  H95  1  0.87587211  0.78336404  0.38660240  1
  H  H96  1  0.37519720  0.28090196  0.39261083  1
  H  H97  1  0.37079667  0.61413998  0.38310676  1
  H  H98  1  0.38791649  0.94307164  0.40443033  1
  H  H99  1  0.87208963  0.27908721  0.38959035  1
  H  H100  1  0.87157840  0.61667309  0.38887086  1
  H  H101  1  0.88185642  0.94174573  0.40734649  1
  H  H102  1  0.13240172  0.05067602  0.88265526  1
  H  H103  1  0.12591262  0.38757344  0.89432656  1
  H  H104  1  0.12436799  0.71677329  0.88195681  1
  H  H105  1  0.63028848  0.05013901  0.87431218  1
  H  H106  1  0.63085358  0.38483760  0.87925932  1
  H  H107  1  0.61943231  0.72398287  0.90194395  1
  H  H108  1  0.12733155  0.28606666  0.12991868  1
  H  H109  1  0.12350227  0.61321827  0.11142144  1
  H  H110  1  0.12612476  0.94698950  0.10234342  1
  H  H111  1  0.62096332  0.27736967  0.09187341  1
  H  H112  1  0.63009133  0.61456429  0.12051001  1
  H  H113  1  0.62737449  0.94575644  0.11513839  1
  H  H114  1  0.38468775  0.05456508  0.59933273  1
  H  H115  1  0.37067133  0.38710148  0.61880697  1
  H  H116  1  0.36626165  0.71712032  0.61910443  1
  H  H117  1  0.88881102  0.05368264  0.59599461  1
  H  H118  1  0.87704234  0.39066745  0.60340853  1
  H  H119  1  0.86543313  0.71578364  0.62452892  1
  H  H120  1  0.11904951  0.11305794  0.38279258  1
  H  H121  1  0.12372407  0.44964585  0.37952906  1
  H  H122  1  0.14178053  0.77677959  0.40419255  1
  H  H123  1  0.61651675  0.11460412  0.37740097  1
  H  H124  1  0.63122575  0.44495252  0.40158340  1
  H  H125  1  0.62781243  0.78074686  0.39689236  1
  H  H126  1  0.37033847  0.22445298  0.89838378  1
  H  H127  1  0.36831368  0.55850746  0.90410321  1
  H  H128  1  0.35795283  0.89768140  0.91527817  1
  H  H129  1  0.87209410  0.22410179  0.88862881  1
  H  H130  1  0.87193694  0.55220226  0.89477297  1
  H  H131  1  0.88088303  0.87956091  0.86883323  1
  H  H132  1  0.36373046  0.11120150  0.09434911  1
  H  H133  1  0.36551839  0.44030835  0.09641402  1
  H  H134  1  0.37246854  0.77676199  0.10717827  1
  H  H135  1  0.86977549  0.11102035  0.10655621  1
  H  H136  1  0.87106800  0.44922750  0.10768643  1
  H  H137  1  0.88104472  0.77997264  0.12125812  1
  H  H138  1  0.12351160  0.21321209  0.62632044  1
  H  H139  1  0.12673278  0.55327017  0.61385391  1
  H  H140  1  0.12522939  0.88471274  0.61552649  1
  H  H141  1  0.63610152  0.22942261  0.59086763  1
  H  H142  1  0.63435522  0.56188646  0.58929449  1
  H  H143  1  0.61507911  0.87902203  0.62376751  1
  H  H144  1  0.42079503  0.92383106  0.00354726  1
  H  H145  1  0.81109944  0.08268917  -0.00228002  1
  H  H146  1  0.21093128  0.74852835  0.50988270  1
  H  H147  1  0.79769246  0.07421005  0.50438545  1
  H  H148  1  0.96340111  0.07947537  0.49089140  1
  H  H149  1  0.61741037  0.91259131  0.50289368  1
  H  H150  1  0.29236948  0.58358827  1.00390965  1
  H  H151  1  0.64311462  0.08190759  0.48451917  1
  H  H152  1  0.15192720  0.08038638  0.49357633  1
  H  H153  1  0.16527495  0.24927817  0.99685114  1
  H  H154  1  0.29328557  0.41419333  -0.00460379  1
  H  H155  1  0.28514316  0.24010591  0.49280149  1
  H  H156  1  0.13994766  0.25118909  0.52136413  1
  H  H157  1  0.26883541  0.91272241  1.01143463  1
  H  H158  1  0.43481993  0.27546926  0.49838715  1
  H  H159  1  0.86672021  0.58324593  0.51458153  1
  H  H160  1  0.86914805  0.24476998  0.51844098  1
  H  H161  1  0.37958228  0.75105442  0.49950961  1
  H  H162  1  0.54832166  0.74416361  1.00348487  1
  H  H163  1  0.11094635  0.92157823  0.49103590  1
  H  H164  1  0.71539500  0.25621396  0.48914904  1
  H  H165  1  0.70573519  0.74610860  -0.00492719  1
  H  H166  1  0.54215600  0.25639027  -0.00761468  1
  H  H167  1  0.46040659  0.41477815  1.00673483  1
  H  H168  1  0.44877639  0.57957060  -0.00312001  1
  H  H169  1  0.16372340  0.58151707  0.50821768  1
  H  H170  1  0.87792431  0.91292803  0.97784948  1
  H  H171  1  0.84253104  0.75322529  0.50010034  1
  H  H172  1  0.07953920  0.58151494  0.00026282  1
  H  H173  1  0.39464343  0.74935852  0.98594770  1
  H  H174  1  0.81999752  0.24835131  0.99422479  1
  H  H175  1  0.66707946  0.24712314  0.99652983  1
  H  H176  1  0.46337000  0.08622870  1.00314919  1
  H  H177  1  0.69989756  0.41715177  0.50661044  1
  H  H178  1  0.16466466  0.75062892  0.00361800  1
  H  H179  1  0.54936533  0.42338161  0.49623163  1
  H  H180  1  0.29086323  0.08469355  -0.00603953  1
  H  H181  1  0.97308379  0.25335889  -0.00890389  1
  H  H182  1  0.64995689  0.08545328  0.01014890  1
  H  H183  1  0.08158495  0.41650168  0.50301278  1
  H  H184  1  0.56853537  0.22802341  0.48066419  1
  H  H185  1  0.94259941  0.07797648  1.00711458  1
  H  H186  1  0.58175017  0.92435690  0.00234561  1
  H  H187  1  0.72321818  0.91961619  1.01215597  1
  H  H188  1  0.12070566  0.91561040  0.97869534  1
  H  H189  1  0.85413835  0.42392203  0.48388461  1
  H  H190  1  0.32435454  0.58472504  0.49621484  1
  H  H191  1  0.03415732  0.75098842  0.49316388  1
  Pb  Pb192  1  0.25490167  0.04718346  0.75481396  1
  Pb  Pb193  1  0.24781604  0.38323136  0.75827475  1
  Pb  Pb194  1  0.24597034  0.71361814  0.74693330  1
  Pb  Pb195  1  0.75260627  0.04713962  0.74601362  1
  Pb  Pb196  1  0.75046454  0.37945551  0.74134008  1
  Pb  Pb197  1  0.74799027  0.71421393  0.75571427  1
  Pb  Pb198  1  0.24912927  0.28855420  0.25961338  1
  Pb  Pb199  1  0.25097732  0.61848060  0.24586833  1
  Pb  Pb200  1  0.25355072  0.94907054  0.24832003  1
  Pb  Pb201  1  0.75091170  0.28335920  0.23967933  1
  Pb  Pb202  1  0.75102951  0.62029654  0.25877726  1
  Pb  Pb203  1  0.75355662  0.95284662  0.25163973  1
  Pb  Pb204  1  0.00136187  0.21339657  0.75891393  1
  Pb  Pb205  1  -0.00342930  0.54614943  0.75181446  1
  Pb  Pb206  1  -0.00113953  0.88050357  0.73744901  1
  Pb  Pb207  1  0.49534050  0.21748819  0.74173702  1
  Pb  Pb208  1  0.50201610  0.54894952  0.75024309  1
  Pb  Pb209  1  0.49975281  0.88004788  0.76275564  1
  Pb  Pb210  1  0.00340483  0.11826274  0.25254328  1
  Pb  Pb211  1  -0.00148152  0.45365867  0.25232215  1
  Pb  Pb212  1  0.00258488  0.78583263  0.26249540  1
  Pb  Pb213  1  0.49252777  0.11738414  0.24372875  1
  Pb  Pb214  1  0.50054262  0.45268169  0.25393268  1
  Pb  Pb215  1  0.50683795  0.78342445  0.23724960  1
  C  C216  1  0.00474226  0.04340106  0.63399001  1
  C  C217  1  -0.00014830  0.37977025  0.62914049  1
  C  C218  1  -0.00542219  0.71042658  0.63035868  1
  C  C219  1  0.50548616  0.04284700  0.63086566  1
  C  C220  1  0.49842882  0.38071787  0.62985182  1
  C  C221  1  0.49313415  0.71382421  0.62466350  1
  C  C222  1  -0.00110335  0.29155344  0.13051516  1
  C  C223  1  -0.00035216  0.62187408  0.13172440  1
  C  C224  1  0.00180909  0.95327631  0.12421243  1
  C  C225  1  0.50498535  0.28856388  0.13093250  1
  C  C226  1  0.50261523  0.61850237  0.13477707  1
  C  C227  1  0.50268422  0.95306165  0.13707854  1
  C  C228  1  0.00533132  0.04560341  0.86770013  1
  C  C229  1  0.00202798  0.38113213  0.87288460  1
  C  C230  1  -0.00305612  0.71149522  0.87020816  1
  C  C231  1  0.50210334  0.04735973  0.86556621  1
  C  C232  1  0.50263590  0.37867130  0.86959660  1
  C  C233  1  0.50108502  0.71120192  0.86629764  1
  C  C234  1  -0.00199286  0.28662355  0.37149821  1
  C  C235  1  -0.00236613  0.61985668  0.37221915  1
  C  C236  1  -0.00022726  0.95293957  0.37071610  1
  C  C237  1  0.49832718  0.28768043  0.36720835  1
  C  C238  1  0.49784161  0.62328368  0.37055199  1
  C  C239  1  0.50750247  0.95408877  0.37252363  1
  C  C240  1  0.25152389  0.21150090  0.63050039  1
  C  C241  1  0.25303440  0.54518730  0.63083729  1
  C  C242  1  0.25167014  0.87873221  0.63265429  1
  C  C243  1  0.75070415  0.21347434  0.63092438  1
  C  C244  1  0.74940989  0.54830092  0.62869396  1
  C  C245  1  0.74315220  0.87861579  0.62527202  1
  C  C246  1  0.24513565  0.12201417  0.13006816  1
  C  C247  1  0.24655914  0.45468853  0.13024825  1
  C  C248  1  0.24953697  0.78665995  0.13358523  1
  C  C249  1  0.74830675  0.12003887  0.13541189  1
  C  C250  1  0.74559330  0.45599293  0.12849724  1
  C  C251  1  0.75297231  0.78793645  0.12988098  1
  C  C252  1  0.24745114  0.21360270  0.87112970  1
  C  C253  1  0.25103855  0.54550994  0.86711362  1
  C  C254  1  0.24727335  0.87974488  0.87145538  1
  C  C255  1  0.74874745  0.21096097  0.86492348  1
  C  C256  1  0.74737865  0.54362011  0.86984226  1
  C  C257  1  0.75262753  0.88018942  0.86864450  1
  C  C258  1  0.24557692  0.11948985  0.36695037  1
  C  C259  1  0.25138479  0.45418419  0.37038611  1
  C  C260  1  0.26012860  0.78850864  0.36983423  1
  C  C261  1  0.74427334  0.12033249  0.36737295  1
  C  C262  1  0.75047242  0.45526556  0.36638608  1
  C  C263  1  0.75085008  0.78921854  0.37095866  1
  C  C264  1  0.95399537  0.25960075  0.46312983  1
  C  C265  1  0.79784920  0.76291253  0.46355504  1
  C  C266  1  0.75656283  0.90859432  0.52890633  1
  C  C267  1  0.95807142  0.59488651  0.03890508  1
  C  C268  1  0.71662749  0.76216973  0.46538879  1
  C  C269  1  0.05808925  0.06786750  0.95886410  1
  C  C270  1  0.28657796  0.57394580  0.53656665  1
  C  C271  1  0.20795677  0.76046333  0.04150422  1
  C  C272  1  0.97681841  0.06937141  0.96508980  1
  C  C273  1  0.96079561  0.40556611  0.96496359  1
  C  C274  1  0.70493483  0.23961684  0.95620591  1
  C  C275  1  0.24119311  0.76036204  0.46677540  1
  C  C276  1  0.51330921  0.74157781  0.52841060  1
  C  C277  1  0.98120096  0.92607731  0.46786240  1
  C  C278  1  0.04983153  0.74026657  0.95828819  1
  C  C279  1  0.73619400  0.58028749  0.53171724  1
  C  C280  1  0.93067362  0.73972036  0.54583623  1
  C  C281  1  0.69527252  0.09523010  0.04505891  1
  C  C282  1  0.46080506  0.93183696  0.04242916  1
  C  C283  1  0.19520205  0.42463266  0.45707534  1
  C  C284  1  0.71223869  0.41948561  0.03843419  1
  C  C285  1  0.43262347  0.73952250  0.53723019  1
  C  C286  1  0.74632238  0.90842338  0.96636185  1
  C  C287  1  0.19850765  0.09139862  0.45680458  1
  C  C288  1  0.96085132  0.92834039  0.03073146  1
  C  C289  1  0.77693411  0.09348742  0.03915626  1
  C  C290  1  0.67704106  0.90359724  0.54104561  1
  C  C291  1  0.81206342  0.75435153  0.04451896  1
  C  C292  1  0.48334813  0.92472517  0.46760604  1
  C  C293  1  0.54286959  0.93186497  0.04198087  1
  C  C294  1  0.74019326  0.24294650  0.53383462  1
  C  C295  1  0.32193529  0.76342186  0.45643187  1
  C  C296  1  0.76762414  0.08832346  0.46205884  1
  C  C297  1  0.03956364  0.59359050  0.03799646  1
  C  C298  1  0.04223048  0.92951533  0.03024761  1
  C  C299  1  0.48013531  0.59092453  0.03958888  1
  C  C300  1  0.03026498  0.59251712  0.46661818  1
  C  C301  1  0.07102111  0.06563599  0.54860576  1
  C  C302  1  0.44151069  0.73960404  0.95220403  1
  C  C303  1  0.06157461  0.92916168  0.45856028  1
  C  C304  1  0.04124553  0.40541470  0.96559569  1
  C  C305  1  0.44135722  0.41302523  0.54300874  1
  C  C306  1  0.72931708  0.42775048  0.46292410  1
  C  C307  1  0.44736371  0.59239167  0.45865114  1
  C  C308  1  0.27912710  0.91042950  0.53908893  1
  C  C309  1  0.99149145  0.06871642  0.53500686  1
  C  C310  1  0.94867193  0.59525003  0.46366316  1
  C  C311  1  0.56407004  0.92656238  0.46016683  1
  N  N312  1  0.73386416  0.75421040  0.03674766  1
  N  N313  1  0.26641888  0.42272453  0.03776354  1
  N  N314  1  0.78442943  0.24257053  0.95601793  1
  N  N315  1  0.26437137  0.09146213  0.03687652  1
  N  N316  1  0.18974682  0.56967203  0.95387935  1
  N  N317  1  0.00835275  0.74226422  0.53594203  1
  N  N318  1  0.96192720  0.41030308  0.53639955  1
  N  N319  1  0.04068554  0.41017250  0.53963183  1
  N  N320  1  0.70931609  0.57643276  0.96148676  1
  N  N321  1  0.03199950  0.25914338  0.46744649  1
  N  N322  1  0.47865152  0.07283035  0.53602346  1
  N  N323  1  0.82295176  0.90475875  0.95017061  1
  N  N324  1  0.68891997  0.09089892  0.45321425  1
  N  N325  1  0.51975583  0.41378539  0.53669731  1
  N  N326  1  0.18897329  0.42574748  0.04352501  1
  N  N327  1  0.20550878  0.24008114  0.96136058  1
  N  N328  1  0.28372583  0.24124591  0.96522245  1
  N  N329  1  0.80789359  0.42804156  0.45242483  1
  N  N330  1  0.78952806  0.42124954  0.03819290  1
  N  N331  1  0.25118162  0.91521539  0.96513048  1
  N  N332  1  0.56499406  0.07082480  0.95175689  1
  N  N333  1  0.18700701  0.23331918  0.54646887  1
  N  N334  1  0.27197929  0.42142363  0.46667408  1
  N  N335  1  0.56321285  0.40616708  0.95584652  1
  N  N336  1  0.78541166  0.57576827  0.96167671  1
  N  N337  1  0.20187572  0.90897181  0.54263570  1
  N  N338  1  0.18685883  0.09178326  0.04381632  1
  N  N339  1  0.81319921  0.57563768  0.54481080  1
  N  N340  1  0.55898280  0.59259510  0.04547019  1
  N  N341  1  0.28745178  0.75979657  0.03871381  1
  N  N342  1  0.48818145  0.07379816  0.96083237  1
  N  N343  1  0.97291809  0.74299890  0.96644138  1
  N  N344  1  0.99330885  0.26032658  0.03623835  1
  N  N345  1  0.81750935  0.23758720  0.54763980  1
  N  N346  1  0.52036490  0.74133795  0.96095412  1
  N  N347  1  0.44182059  0.26198391  0.04540423  1
  N  N348  1  0.06945077  0.26350790  0.04917105  1
  N  N349  1  0.54211293  0.26358225  0.45897368  1
  N  N350  1  0.26412620  0.24665890  0.53726154  1
  N  N351  1  0.26688418  0.57387892  0.96148309  1
  N  N352  1  0.55473709  0.07076791  0.54097900  1
  N  N353  1  0.27737405  0.09044715  0.46246477  1
  N  N354  1  0.17559230  0.90166229  0.95208405  1
  N  N355  1  0.46012997  0.25839026  0.45882688  1
  N  N356  1  0.51884530  0.26025771  0.03632326  1
  N  N357  1  0.52441256  0.59154137  0.46622447  1
  N  N358  1  0.20695052  0.57392291  0.54142650  1
  N  N359  1  0.48589363  0.40782300  0.96355678  1
  N  N360  1  0.07874572  0.05059274  0.60844803  1
  N  N361  1  0.06449463  0.39011491  0.59517698  1
  N  N362  1  0.04866227  0.72178930  0.58717652  1
  N  N363  1  0.57281204  0.05224939  0.59972709  1
  N  N364  1  0.55624476  0.39239802  0.58956786  1
  N  N365  1  0.54969121  0.72604034  0.58135705  1
  N  N366  1  0.43396416  0.27726559  0.10502485  1
  N  N367  1  0.44390741  0.60656663  0.09398254  1
  N  N368  1  0.43726739  0.94499382  0.10183843  1
  N  N369  1  0.94899652  0.27993644  0.08440603  1
  N  N370  1  0.93430038  0.61162184  0.09535809  1
  N  N371  1  0.93697190  0.94293222  0.08889832  1
  N  N372  1  0.44833927  0.05987945  0.90870130  1
  N  N373  1  0.44738650  0.38920259  0.91221088  1
  N  N374  1  0.42954532  0.72248573  0.89307908  1
  N  N375  1  0.94480908  0.05544697  0.90705579  1
  N  N376  1  0.93626128  0.39096749  0.90844019  1
  N  N377  1  0.93966905  0.72407163  0.91038980  1
  N  N378  1  0.05912388  0.27646469  0.40888027  1
  N  N379  1  0.05928979  0.60762420  0.41054330  1
  N  N380  1  0.07164662  0.94566069  0.39691110  1
  N  N381  1  0.56285821  0.27193245  0.39885311  1
  N  N382  1  0.55604305  0.61149698  0.41024089  1
  N  N383  1  0.57812311  0.94445510  0.40053451  1
  N  N384  1  0.30440259  0.22229764  0.58596119  1
  N  N385  1  0.31527745  0.55706703  0.59266793  1
  N  N386  1  0.31189130  0.89190986  0.59309143  1
  N  N387  1  0.82328539  0.21914069  0.60717183  1
  N  N388  1  0.82143280  0.55601459  0.60453255  1
  N  N389  1  0.79650278  0.89329772  0.58050502  1
  N  N390  1  0.17552282  0.10934115  0.10254470  1
  N  N391  1  0.17699172  0.44437542  0.10160609  1
  N  N392  1  0.18374805  0.77669171  0.09944515  1
  N  N393  1  0.67896525  0.11162635  0.10498249  1
  N  N394  1  0.68228529  0.44017927  0.09290719  1
  N  N395  1  0.69625478  0.77706262  0.08842831  1
  N  N396  1  0.18217954  0.22236360  0.90475124  1
  N  N397  1  0.18050394  0.55321073  0.89496981  1
  N  N398  1  0.17349847  0.88830171  0.89208277  1
  N  N399  1  0.68229985  0.22139244  0.89926759  1
  N  N400  1  0.68405892  0.55670513  0.90451814  1
  N  N401  1  0.70198952  0.89319651  0.91580314  1
  N  N402  1  0.30517562  0.10775979  0.40583237  1
  N  N403  1  0.30717770  0.44038793  0.41148093  1
  N  N404  1  0.33244128  0.78044339  0.39673522  1
  N  N405  1  0.80241775  0.10667604  0.40881802  1
  N  N406  1  0.82045318  0.44612121  0.39345369  1
  N  N407  1  0.81801855  0.77981309  0.40314666  1
  N  N408  1  0.43575136  0.28313976  0.40475624  1
  N  N409  1  0.42864212  0.61105818  0.40045867  1
  N  N410  1  0.44917485  0.94140713  0.41420526  1
  N  N411  1  0.93123919  0.27602660  0.40486534  1
  N  N412  1  0.92991203  0.61168309  0.40513530  1
  N  N413  1  0.94390294  0.94048452  0.41509380  1
  N  N414  1  0.07464565  0.05371883  0.89990956  1
  N  N415  1  0.06706231  0.39076488  0.90941018  1
  N  N416  1  0.06687424  0.72158040  0.89982108  1
  N  N417  1  0.57328515  0.05465725  0.89259593  1
  N  N418  1  0.57305786  0.38958581  0.89665594  1
  N  N419  1  0.55706332  0.72067963  0.90874958  1
  N  N420  1  0.07213056  0.28104813  0.10846450  1
  N  N421  1  0.06434955  0.61076050  0.09700155  1
  N  N422  1  0.06643597  0.94476784  0.08828592  1
  N  N423  1  0.55914691  0.27893824  0.08715445  1
  N  N424  1  0.57107760  0.60937592  0.10488429  1
  N  N425  1  0.56753431  0.94489771  0.10105486  1
  N  N426  1  0.44671793  0.05562432  0.59155526  1
  N  N427  1  0.42781201  0.39289618  0.60070700  1
  N  N428  1  0.42154471  0.72217065  0.59803230  1
  N  N429  1  0.95090334  0.05446166  0.58970785  1
  N  N430  1  0.93765134  0.39288238  0.59291545  1
  N  N431  1  0.92167675  0.72098237  0.60468009  1
  N  N432  1  0.17762092  0.10895597  0.39840658  1
  N  N433  1  0.18049677  0.44400278  0.39827779  1
  N  N434  1  0.20373977  0.77601064  0.41174420  1
  N  N435  1  0.67472267  0.11098732  0.39508363  1
  N  N436  1  0.69323967  0.44377440  0.40923934  1
  N  N437  1  0.68829567  0.77800535  0.40986190  1
  N  N438  1  0.30927883  0.22539431  0.90854897  1
  N  N439  1  0.30598653  0.55745466  0.90956220  1
  N  N440  1  0.29620543  0.89229327  0.91828029  1
  N  N441  1  0.81150011  0.22165603  0.90079707  1
  N  N442  1  0.81069741  0.55531302  0.90506227  1
  N  N443  1  0.82599162  0.88827326  0.89012210  1
  N  N444  1  0.30134346  0.11155338  0.08822017  1
  N  N445  1  0.30340338  0.44242117  0.08932871  1
  N  N446  1  0.31168330  0.77593876  0.09688003  1
  N  N447  1  0.80859675  0.10886468  0.09594285  1
  N  N448  1  0.81062204  0.44442282  0.09542111  1
  N  N449  1  0.82414273  0.77499313  0.10216506  1
  N  N450  1  0.17950641  0.22131890  0.60684465  1
  N  N451  1  0.18665890  0.55524899  0.59900358  1
  N  N452  1  0.18448132  0.88938900  0.60207600  1
  N  N453  1  0.69810314  0.22799064  0.58547079  1
  N  N454  1  0.69622966  0.56295548  0.58336711  1
  N  N455  1  0.66974255  0.88519301  0.60116993  1
  Cl  Cl456  1  0.26424468  0.05236491  0.62437014  1
  Cl  Cl457  1  0.24512722  0.38192798  0.62692130  1
  Cl  Cl458  1  0.23145066  0.72192648  0.61235157  1
  Cl  Cl459  1  0.76113119  0.05611738  0.60953768  1
  Cl  Cl460  1  0.74594248  0.39027964  0.60390862  1
  Cl  Cl461  1  0.73664282  0.71843262  0.62341582  1
  Cl  Cl462  1  0.25273757  0.28374876  0.12820171  1
  Cl  Cl463  1  0.25922245  0.60677109  0.10769532  1
  Cl  Cl464  1  0.25409326  0.93837830  0.10708766  1
  Cl  Cl465  1  0.75749522  0.27355357  0.09719755  1
  Cl  Cl466  1  0.75315605  0.62134746  0.12843139  1
  Cl  Cl467  1  0.75163657  0.94087266  0.11627434  1
  Cl  Cl468  1  0.26599102  0.05927919  0.89621315  1
  Cl  Cl469  1  0.26461500  0.39267903  0.89757798  1
  Cl  Cl470  1  0.24790392  0.71789102  0.87876601  1
  Cl  Cl471  1  0.75882601  0.05298808  0.87951370  1
  Cl  Cl472  1  0.75397420  0.38003984  0.87157058  1
  Cl  Cl473  1  0.74265740  0.72985039  0.89723871  1
  Cl  Cl474  1  0.25161789  0.26970202  0.39660750  1
  Cl  Cl475  1  0.24504092  0.60617065  0.38032244  1
  Cl  Cl476  1  0.26311352  0.94546215  0.37587477  1
  Cl  Cl477  1  0.74553964  0.27944477  0.38296486  1
  Cl  Cl478  1  0.74248427  0.61256955  0.39420917  1
  Cl  Cl479  1  0.76261271  0.94668837  0.38349587  1
  Cl  Cl480  1  0.00210814  0.21609853  0.62761065  1
  Cl  Cl481  1  0.00502755  0.55430216  0.61876368  1
  Cl  Cl482  1  -0.01063809  0.88588157  0.60513856  1
  Cl  Cl483  1  0.49734941  0.23139694  0.60065757  1
  Cl  Cl484  1  0.50358527  0.55242790  0.61865274  1
  Cl  Cl485  1  0.49033200  0.88310781  0.63149658  1
  Cl  Cl486  1  -0.00799545  0.11539980  0.11911288  1
  Cl  Cl487  1  -0.00609221  0.45210238  0.12219094  1
  Cl  Cl488  1  0.00357177  0.78069387  0.13300079  1
  Cl  Cl489  1  0.48420352  0.10938980  0.09974109  1
  Cl  Cl490  1  0.48747879  0.43800225  0.10735006  1
  Cl  Cl491  1  0.50937940  0.77069198  0.09985636  1
  Cl  Cl492  1  -0.00539505  0.22871053  0.89821598  1
  Cl  Cl493  1  -0.00517626  0.55120067  0.88436543  1
  Cl  Cl494  1  0.00111369  0.87925736  0.87080990  1
  Cl  Cl495  1  0.49786689  0.22565133  0.88613138  1
  Cl  Cl496  1  0.49079754  0.55636466  0.88850247  1
  Cl  Cl497  1  0.49685624  0.89370676  0.89802681  1
  Cl  Cl498  1  -0.01197183  0.11217231  0.38667878  1
  Cl  Cl499  1  0.00119259  0.44550045  0.38719067  1
  Cl  Cl500  1  0.01589252  0.77427847  0.39889108  1
  Cl  Cl501  1  0.49197245  0.11804630  0.37624868  1
  Cl  Cl502  1  0.50471405  0.44096304  0.39366767  1
  Cl  Cl503  1  0.51110670  0.78506997  0.36703786  1
  Cl  Cl504  1  0.35782285  0.15312715  0.75415565  1
  Cl  Cl505  1  0.35571707  0.47959653  0.74861076  1
  Cl  Cl506  1  0.35527286  0.81527667  0.75451133  1
  Cl  Cl507  1  0.86350041  0.14860369  0.74597321  1
  Cl  Cl508  1  0.85939124  0.48127156  0.73938277  1
  Cl  Cl509  1  0.86199503  0.81352235  0.75281858  1
  Cl  Cl510  1  0.13817345  0.18735778  0.24556506  1
  Cl  Cl511  1  0.14019569  0.51701186  0.24777357  1
  Cl  Cl512  1  0.14281868  0.85292981  0.25584457  1
  Cl  Cl513  1  0.63678626  0.18993583  0.24917509  1
  Cl  Cl514  1  0.63830163  0.51921859  0.24663854  1
  Cl  Cl515  1  0.64131878  0.85265734  0.24484046  1
  Cl  Cl516  1  0.13741686  0.14482554  0.74913943  1
  Cl  Cl517  1  0.13784825  0.47871598  0.75297702  1
  Cl  Cl518  1  0.13483120  0.81378285  0.75181280  1
  Cl  Cl519  1  0.64305411  0.14766592  0.74948763  1
  Cl  Cl520  1  0.64029179  0.48158739  0.74946228  1
  Cl  Cl521  1  0.64076470  0.81729942  0.75190635  1
  Cl  Cl522  1  0.35672567  0.18481667  0.25082125  1
  Cl  Cl523  1  0.36313366  0.51777391  0.25247809  1
  Cl  Cl524  1  0.36231770  0.85562187  0.24037109  1
  Cl  Cl525  1  0.85357011  0.18641863  0.25242654  1
  Cl  Cl526  1  0.85825814  0.51772676  0.25519868  1
  Cl  Cl527  1  0.86276016  0.85053937  0.25075900  1
  Cl  Cl528  1  0.11034604  0.31403797  0.75522759  1
  Cl  Cl529  1  0.10943560  0.64589628  0.75383535  1
  Cl  Cl530  1  0.11628476  0.97869467  0.75167580  1
  Cl  Cl531  1  0.61256296  0.31389788  0.75098909  1
  Cl  Cl532  1  0.60652566  0.64942419  0.75193430  1
  Cl  Cl533  1  0.61483680  0.97977662  0.75285913  1
  Cl  Cl534  1  0.39464030  0.01866213  0.24758919  1
  Cl  Cl535  1  0.39240485  0.34997399  0.25049216  1
  Cl  Cl536  1  0.38602712  0.68887583  0.25114638  1
  Cl  Cl537  1  0.89039364  0.01831468  0.24680652  1
  Cl  Cl538  1  0.88830060  0.35138159  0.25626538  1
  Cl  Cl539  1  0.89189935  0.68445661  0.25616568  1
  Cl  Cl540  1  0.39523881  0.31407613  0.74600062  1
  Cl  Cl541  1  0.38492297  0.64746641  0.74665162  1
  Cl  Cl542  1  0.39367286  0.98405925  0.75378989  1
  Cl  Cl543  1  0.89094446  0.31406216  0.74613648  1
  Cl  Cl544  1  0.88610295  0.64760389  0.74543054  1
  Cl  Cl545  1  0.89337444  0.98279406  0.75277367  1
  Cl  Cl546  1  0.10868576  0.02108871  0.25162152  1
  Cl  Cl547  1  0.10891420  0.35203200  0.24913544  1
  Cl  Cl548  1  0.11435142  0.68532583  0.25130747  1
  Cl  Cl549  1  0.61615005  0.02363751  0.25028356  1
  Cl  Cl550  1  0.61272343  0.35260135  0.25310673  1
  Cl  Cl551  1  0.60632220  0.68413862  0.24685273  1
