# generated using pymatgen
data_H8PbC4(N3Cl2)2
_symmetry_space_group_name_H-M   'P 1'
_cell_length_a   16.62478358
_cell_length_b   22.51460554
_cell_length_c   21.59349049
_cell_angle_alpha   89.99977338
_cell_angle_beta   90.00650287
_cell_angle_gamma   89.99394740
_symmetry_Int_Tables_number   1
_chemical_formula_structural   H8PbC4(N3Cl2)2
_chemical_formula_sum   'H192 Pb24 C96 N144 Cl96'
_cell_volume   8082.45299142
_cell_formula_units_Z   24
loop_
 _symmetry_equiv_pos_site_id
 _symmetry_equiv_pos_as_xyz
  1  'x, y, z'
loop_
 _atom_site_type_symbol
 _atom_site_label
 _atom_site_symmetry_multiplicity
 _atom_site_fract_x
 _atom_site_fract_y
 _atom_site_fract_z
 _atom_site_occupancy
  H  H0  1  -0.00197471  0.03038533  0.68023982  1
  H  H1  1  0.00497832  0.36282374  0.68106261  1
  H  H2  1  -0.01074177  0.69724106  0.67784495  1
  H  H3  1  0.49531437  0.03176513  0.67830924  1
  H  H4  1  0.49690692  0.36108146  0.67676186  1
  H  H5  1  0.50954134  0.69306663  0.67631860  1
  H  H6  1  0.00016119  0.30460394  0.17408001  1
  H  H7  1  0.00837836  0.63299291  0.17469946  1
  H  H8  1  -0.00040799  0.97133080  0.17700714  1
  H  H9  1  0.49758681  0.31537352  0.17446030  1
  H  H10  1  0.48447720  0.63651613  0.17876213  1
  H  H11  1  0.50072761  0.96966343  0.18079226  1
  H  H12  1  -0.00554496  0.02701919  0.82496676  1
  H  H13  1  -0.00593792  0.36340522  0.82268490  1
  H  H14  1  0.00258083  0.69454532  0.82338231  1
  H  H15  1  0.51053124  0.02966758  0.82214003  1
  H  H16  1  0.49690303  0.36374278  0.82406297  1
  H  H17  1  0.49965271  0.69730043  0.82140342  1
  H  H18  1  0.01787065  0.30033936  0.31943492  1
  H  H19  1  -0.00141344  0.63858036  0.32285944  1
  H  H20  1  -0.00322109  0.97083815  0.31923734  1
  H  H21  1  0.48017789  0.30421518  0.32530280  1
  H  H22  1  0.49159551  0.63350535  0.32200124  1
  H  H23  1  0.49676131  0.97136098  0.32453133  1
  H  H24  1  0.24704376  0.18615997  0.67404466  1
  H  H25  1  0.25065915  0.52901503  0.67875727  1
  H  H26  1  0.25633055  0.85813644  0.68106258  1
  H  H27  1  0.75359121  0.19965871  0.67815512  1
  H  H28  1  0.75230242  0.52922626  0.67709215  1
  H  H29  1  0.75148957  0.86369174  0.68058164  1
  H  H30  1  0.23250328  0.13383222  0.17324655  1
  H  H31  1  0.25364422  0.46924717  0.17934101  1
  H  H32  1  0.24600408  0.80435010  0.17650711  1
  H  H33  1  0.75460362  0.13263344  0.17974574  1
  H  H34  1  0.74305769  0.47229536  0.17703998  1
  H  H35  1  0.74800298  0.80477373  0.17838084  1
  H  H36  1  0.26914065  0.19415255  0.82432085  1
  H  H37  1  0.26452858  0.52626509  0.82203788  1
  H  H38  1  0.26472108  0.86523974  0.81903874  1
  H  H39  1  0.73355776  0.19812013  0.81992755  1
  H  H40  1  0.73538917  0.52952966  0.82482803  1
  H  H41  1  0.73595330  0.86254592  0.82053251  1
  H  H42  1  0.24546162  0.12998735  0.32532873  1
  H  H43  1  0.24109154  0.47236881  0.31993842  1
  H  H44  1  0.26028596  0.80314042  0.32157721  1
  H  H45  1  0.75661016  0.13766340  0.32138576  1
  H  H46  1  0.75552885  0.47004616  0.32228589  1
  H  H47  1  0.74670885  0.80239346  0.32394239  1
  H  H48  1  0.13119842  0.05302670  0.61576602  1
  H  H49  1  0.12506977  0.38842248  0.60579335  1
  H  H50  1  0.11519906  0.71919455  0.61169267  1
  H  H51  1  0.63051902  0.05549982  0.61768860  1
  H  H52  1  0.62860129  0.38617775  0.61392961  1
  H  H53  1  0.60964080  0.72495578  0.58924275  1
  H  H54  1  0.37495655  0.27953969  0.10799653  1
  H  H55  1  0.38108055  0.60583345  0.09245325  1
  H  H56  1  0.38336215  0.94765117  0.10642706  1
  H  H57  1  0.87511019  0.27988242  0.10417147  1
  H  H58  1  0.87368412  0.61477115  0.11662471  1
  H  H59  1  0.88033787  0.94362617  0.10278360  1
  H  H60  1  0.37511330  0.04999913  0.88085141  1
  H  H61  1  0.37618615  0.39092660  0.89592341  1
  H  H62  1  0.36781950  0.72013961  0.88554010  1
  H  H63  1  0.88136152  0.05770432  0.90269525  1
  H  H64  1  0.87902122  0.39067899  0.90087595  1
  H  H65  1  0.86817288  0.71783033  0.88362482  1
  H  H66  1  0.11893097  0.27410830  0.40595541  1
  H  H67  1  0.12534042  0.61279313  0.38934868  1
  H  H68  1  0.13408467  0.95353360  0.37480662  1
  H  H69  1  0.62537627  0.28672465  0.36898193  1
  H  H70  1  0.62821735  0.61512607  0.38198441  1
  H  H71  1  0.63595392  0.94824639  0.37701935  1
  H  H72  1  0.37234403  0.21840548  0.60866273  1
  H  H73  1  0.37247919  0.55514413  0.60643733  1
  H  H74  1  0.36683010  0.89071700  0.60234993  1
  H  H75  1  0.87327537  0.22206732  0.60464762  1
  H  H76  1  0.86698921  0.55776283  0.59888485  1
  H  H77  1  0.86381683  0.88832523  0.60118653  1
  H  H78  1  0.12951605  0.10694723  0.08944958  1
  H  H79  1  0.12049143  0.44852860  0.11766843  1
  H  H80  1  0.13271416  0.77532254  0.09781226  1
  H  H81  1  0.62103652  0.11424157  0.11799088  1
  H  H82  1  0.62333582  0.44345986  0.10435883  1
  H  H83  1  0.63153961  0.78062178  0.10202965  1
  H  H84  1  0.12737426  0.21385241  0.87339074  1
  H  H85  1  0.12134034  0.54796944  0.86753141  1
  H  H86  1  0.12111056  0.88001860  0.86742873  1
  H  H87  1  0.63214176  0.22739280  0.90612963  1
  H  H88  1  0.63292478  0.55676983  0.91125777  1
  H  H89  1  0.62142051  0.88986177  0.90012562  1
  H  H90  1  0.37021523  0.11274704  0.39429569  1
  H  H91  1  0.37172564  0.44654241  0.38462080  1
  H  H92  1  0.38324192  0.77677026  0.39411705  1
  H  H93  1  0.86694186  0.11209834  0.40171311  1
  H  H94  1  0.87014068  0.44490113  0.40005438  1
  H  H95  1  0.88416539  0.78034177  0.37915814  1
  H  H96  1  0.38493878  0.26957363  0.41360444  1
  H  H97  1  0.38221119  0.60763980  0.40414739  1
  H  H98  1  0.39034917  0.94354983  0.40791430  1
  H  H99  1  0.87560617  0.28667016  0.36802203  1
  H  H100  1  0.87607363  0.61327966  0.39486684  1
  H  H101  1  0.88740787  0.94290483  0.39907862  1
  H  H102  1  0.12898430  0.05262748  0.88289046  1
  H  H103  1  0.12736353  0.38498435  0.88468395  1
  H  H104  1  0.11551900  0.72246655  0.90189884  1
  H  H105  1  0.62177503  0.05730925  0.90388320  1
  H  H106  1  0.62543171  0.38811843  0.89119082  1
  H  H107  1  0.61517443  0.72302977  0.89911516  1
  H  H108  1  0.12399990  0.27503883  0.10615063  1
  H  H109  1  0.12032608  0.60993657  0.09549454  1
  H  H110  1  0.12968298  0.94894987  0.11311990  1
  H  H111  1  0.62329362  0.28148955  0.11001346  1
  H  H112  1  0.62503566  0.61686500  0.12566505  1
  H  H113  1  0.63237751  0.94922100  0.11716975  1
  H  H114  1  0.38352215  0.05828753  0.59624609  1
  H  H115  1  0.37925604  0.39006708  0.60309125  1
  H  H116  1  0.36734379  0.71580093  0.62739637  1
  H  H117  1  0.88246486  0.05666669  0.60314176  1
  H  H118  1  0.87580422  0.38532421  0.61439309  1
  H  H119  1  0.86635745  0.72062779  0.60638465  1
  H  H120  1  0.12154986  0.11209204  0.39490153  1
  H  H121  1  0.12374650  0.44469787  0.39777710  1
  H  H122  1  0.13502864  0.77743224  0.39089986  1
  H  H123  1  0.61931814  0.11574054  0.37869956  1
  H  H124  1  0.62238493  0.44753328  0.38438349  1
  H  H125  1  0.63786230  0.77300765  0.40553785  1
  H  H126  1  0.37088038  0.22736240  0.91002984  1
  H  H127  1  0.36394011  0.55741794  0.91028715  1
  H  H128  1  0.36459072  0.89207292  0.90505297  1
  H  H129  1  0.87598351  0.21502385  0.87217973  1
  H  H130  1  0.87717239  0.55028904  0.87533601  1
  H  H131  1  0.86879509  0.88630947  0.88387453  1
  H  H132  1  0.37340558  0.11700606  0.12365179  1
  H  H133  1  0.36838234  0.44142194  0.10102574  1
  H  H134  1  0.38073331  0.78290560  0.11742434  1
  H  H135  1  0.86973204  0.11124392  0.10309734  1
  H  H136  1  0.87226256  0.44821288  0.11117034  1
  H  H137  1  0.88026365  0.77904306  0.11592939  1
  H  H138  1  0.12403610  0.21980160  0.60681981  1
  H  H139  1  0.12365215  0.55308725  0.61052363  1
  H  H140  1  0.11963099  0.88164572  0.62282762  1
  H  H141  1  0.62476192  0.22127548  0.61313004  1
  H  H142  1  0.61936581  0.55225904  0.61705276  1
  H  H143  1  0.61601045  0.88766087  0.62166008  1
  H  H144  1  0.09671692  0.91583078  0.00227907  1
  H  H145  1  0.79977100  0.08660774  0.50904270  1
  H  H146  1  0.43637084  0.26313331  0.00156430  1
  H  H147  1  0.52733948  0.74960758  0.49214537  1
  H  H148  1  0.43889266  0.91867051  -0.00398768  1
  H  H149  1  0.39935018  0.08065833  0.99344780  1
  H  H150  1  0.19807049  0.74684719  -0.00335427  1
  H  H151  1  0.29822631  0.92515298  0.49960403  1
  H  H152  1  0.59229592  0.41511326  0.50762396  1
  H  H153  1  0.93653192  0.91611200  -0.00069157  1
  H  H154  1  0.70790767  0.58484720  1.01291920  1
  H  H155  1  0.92892111  0.58306204  0.49850825  1
  H  H156  1  0.07379583  0.75080995  0.49965927  1
  H  H157  1  0.40275852  0.74762954  0.99229067  1
  H  H158  1  0.46521868  0.91930008  0.50892952  1
  H  H159  1  0.33256105  0.74946792  0.49748764  1
  H  H160  1  0.13841075  0.24520705  0.98636323  1
  H  H161  1  0.70953950  0.74555612  0.50619123  1
  H  H162  1  0.95402055  0.91160765  0.50444859  1
  H  H163  1  0.86630812  0.58013675  0.98629921  1
  H  H164  1  0.09404408  0.41759294  0.99520349  1
  H  H165  1  0.12819464  0.58076956  0.98034076  1
  H  H166  1  0.68930801  0.75105755  -0.00584536  1
  H  H167  1  0.79907152  0.91767879  0.49451454  1
  H  H168  1  0.56756502  0.26378361  0.00396726  1
  H  H169  1  0.04250378  0.25212309  0.50996555  1
  H  H170  1  0.60154480  0.58689968  0.48994748  1
  H  H171  1  0.88191441  0.25659941  0.48239172  1
  H  H172  1  0.18381182  0.23251163  0.49999901  1
  H  H173  1  0.62350711  0.25230511  0.48250644  1
  H  H174  1  0.46160549  0.58004900  -0.00507348  1
  H  H175  1  0.71049864  0.25209890  1.00784618  1
  H  H176  1  0.31403160  0.22830788  0.50055613  1
  H  H177  1  0.64264571  0.91225840  0.51104911  1
  H  H178  1  0.84600532  0.75178762  0.00929074  1
  H  H179  1  0.16686653  0.58301647  0.50163472  1
  H  H180  1  0.91781655  0.41508833  0.50466850  1
  H  H181  1  0.64568157  0.08951907  0.48731355  1
  H  H182  1  0.46936937  0.25086313  0.51030159  1
  H  H183  1  0.28250027  0.57904717  1.00724733  1
  H  H184  1  0.11307395  0.92248099  0.48804948  1
  H  H185  1  0.28618046  0.92245657  1.00764413  1
  H  H186  1  0.92222152  0.24897601  -0.00002160  1
  H  H187  1  0.94923454  0.08605647  1.00508725  1
  H  H188  1  0.29181930  0.24414828  1.00969292  1
  H  H189  1  0.43486757  0.42371825  0.49653315  1
  H  H190  1  0.81049199  0.08328886  -0.00686642  1
  H  H191  1  0.94580489  0.08538990  0.49614441  1
  Pb  Pb192  1  0.24876944  0.04596516  0.74534440  1
  Pb  Pb193  1  0.24700119  0.38156859  0.74824873  1
  Pb  Pb194  1  0.24478366  0.71303636  0.75577420  1
  Pb  Pb195  1  0.74954894  0.04892892  0.75255990  1
  Pb  Pb196  1  0.75050887  0.38043115  0.75351783  1
  Pb  Pb197  1  0.74234218  0.71427662  0.74616764  1
  Pb  Pb198  1  0.24875282  0.28121199  0.25684698  1
  Pb  Pb199  1  0.24846694  0.61783376  0.24557657  1
  Pb  Pb200  1  0.25571286  0.95389618  0.25309206  1
  Pb  Pb201  1  0.74995246  0.28814086  0.24282007  1
  Pb  Pb202  1  0.75321407  0.61945716  0.25294396  1
  Pb  Pb203  1  0.75187382  0.94984374  0.25424294  1
  Pb  Pb204  1  0.00010020  0.21318148  0.74822668  1
  Pb  Pb205  1  -0.00434853  0.54744004  0.73780321  1
  Pb  Pb206  1  -0.00645348  0.88035765  0.75035125  1
  Pb  Pb207  1  0.49679737  0.21761843  0.75706724  1
  Pb  Pb208  1  0.49714882  0.54639071  0.75984788  1
  Pb  Pb209  1  0.49283180  0.88368309  0.75234719  1
  Pb  Pb210  1  -0.00446887  0.11696641  0.24696755  1
  Pb  Pb211  1  -0.00133011  0.45134309  0.25446027  1
  Pb  Pb212  1  0.00563415  0.78630331  0.24697855  1
  Pb  Pb213  1  0.50154448  0.11983387  0.25139733  1
  Pb  Pb214  1  0.49935743  0.45254439  0.24900677  1
  Pb  Pb215  1  0.49951806  0.78436122  0.25278224  1
  C  C216  1  0.00424468  0.04619711  0.63297478  1
  C  C217  1  0.00205193  0.37899204  0.63380317  1
  C  C218  1  -0.00936415  0.71236267  0.63025600  1
  C  C219  1  0.50319793  0.04767282  0.63116202  1
  C  C220  1  0.50208446  0.37902961  0.63013174  1
  C  C221  1  0.49565369  0.70999756  0.63041878  1
  C  C222  1  -0.00081024  0.28713307  0.12734617  1
  C  C223  1  0.00061100  0.61945693  0.12702199  1
  C  C224  1  0.00282598  0.95499147  0.12967842  1
  C  C225  1  0.49865629  0.29414172  0.12930363  1
  C  C226  1  0.49656068  0.62090807  0.13215250  1
  C  C227  1  0.50526660  0.95533736  0.13308305  1
  C  C228  1  0.00122319  0.04436437  0.87141000  1
  C  C229  1  0.00025067  0.37957597  0.86969220  1
  C  C230  1  -0.00497221  0.71093973  0.86999612  1
  C  C231  1  0.50271820  0.04541550  0.86918997  1
  C  C232  1  0.49980783  0.38101964  0.87072094  1
  C  C233  1  0.49372209  0.71322760  0.86855188  1
  C  C234  1  0.00356434  0.28711218  0.36660289  1
  C  C235  1  -0.00041492  0.62171911  0.36981965  1
  C  C236  1  0.00660460  0.95574167  0.36643074  1
  C  C237  1  0.49684609  0.28837756  0.37115658  1
  C  C238  1  0.50114584  0.61900702  0.36934163  1
  C  C239  1  0.50765102  0.95576470  0.37135856  1
  C  C240  1  0.24778100  0.20607503  0.62820536  1
  C  C241  1  0.24882108  0.54531711  0.63157538  1
  C  C242  1  0.24725573  0.87610084  0.63499725  1
  C  C243  1  0.75044608  0.21397533  0.63038532  1
  C  C244  1  0.74635916  0.54611384  0.63039885  1
  C  C245  1  0.74289391  0.87909665  0.63327668  1
  C  C246  1  0.24561027  0.11908821  0.12663626  1
  C  C247  1  0.24770075  0.45326711  0.13236126  1
  C  C248  1  0.25282220  0.78738879  0.12974664  1
  C  C249  1  0.74864540  0.11942154  0.13177688  1
  C  C250  1  0.74639434  0.45516359  0.13036261  1
  C  C251  1  0.75380889  0.78839439  0.13119900  1
  C  C252  1  0.25605280  0.21016106  0.87085394  1
  C  C253  1  0.24993513  0.54241917  0.86822223  1
  C  C254  1  0.25014699  0.87909622  0.86583816  1
  C  C255  1  0.74758941  0.21287110  0.86660701  1
  C  C256  1  0.74900137  0.54520886  0.87142285  1
  C  C257  1  0.74195151  0.87873070  0.86768891  1
  C  C258  1  0.24577854  0.11812197  0.37403633  1
  C  C259  1  0.24531750  0.45495959  0.36666558  1
  C  C260  1  0.26005492  0.78654068  0.36872035  1
  C  C261  1  0.74694838  0.12175393  0.36841147  1
  C  C262  1  0.74895262  0.45452117  0.36929781  1
  C  C263  1  0.75615622  0.78658483  0.37079774  1
  C  C264  1  0.93536047  0.26506760  0.45184375  1
  C  C265  1  0.71504699  0.42171758  0.03873791  1
  C  C266  1  0.18073272  0.90277109  0.94926043  1
  C  C267  1  0.04487984  0.59149545  0.46136755  1
  C  C268  1  0.97825155  0.07442033  0.53846274  1
  C  C269  1  0.56919227  0.26058880  0.45154552  1
  C  C270  1  0.81690453  0.75660564  0.45745819  1
  C  C271  1  0.55548785  0.92994182  0.04262010  1
  C  C272  1  0.28641340  0.09867909  0.46772594  1
  C  C273  1  0.69612040  0.57457090  0.54127522  1
  C  C274  1  0.57004131  0.92626982  0.45659367  1
  C  C275  1  0.31023981  0.09407171  0.04187460  1
  C  C276  1  0.02637477  0.59397911  0.03077118  1
  C  C277  1  0.73692138  0.24033086  0.96329418  1
  C  C278  1  0.77568577  0.42416571  0.46379259  1
  C  C279  1  0.23113094  0.09023245  0.03041333  1
  C  C280  1  0.04841834  0.40762486  0.95893820  1
  C  C281  1  0.20873132  0.57300211  0.53976150  1
  C  C282  1  0.46683783  0.41318909  0.96252980  1
  C  C283  1  0.69563173  0.09587567  0.04168997  1
  C  C284  1  0.03262323  0.73992002  0.53707572  1
  C  C285  1  0.05164849  0.92600752  0.03970346  1
  C  C286  1  0.72304167  0.76071374  0.03616680  1
  C  C287  1  0.20610408  0.09879674  0.46795354  1
  C  C288  1  0.98474171  0.92586113  0.46255322  1
  C  C289  1  0.26796312  0.91057487  0.54180941  1
  C  C290  1  0.77025112  0.09522145  0.46498687  1
  C  C291  1  0.78511906  0.23997229  0.53560230  1
  C  C292  1  0.01942900  0.74121890  0.96480018  1
  C  C293  1  0.95958598  0.40546473  0.54245255  1
  C  C294  1  0.73510134  0.57372065  0.96853059  1
  C  C295  1  0.25975884  0.90807500  0.96401159  1
  C  C296  1  0.04113328  0.25608537  0.03491769  1
  C  C297  1  0.01560488  0.26194096  0.46530088  1
  C  C298  1  0.44969780  0.07146016  0.95778971  1
  C  C299  1  0.94536687  0.59514886  0.03768344  1
  C  C300  1  0.18929068  0.23734210  0.95428740  1
  C  C301  1  0.46998558  0.41118182  0.53699079  1
  C  C302  1  0.47437330  0.92892566  0.03697393  1
  C  C303  1  0.18091122  0.57147655  0.94968792  1
  C  C304  1  0.76831076  0.90656569  0.53746800  1
  C  C305  1  0.05733220  0.07812843  0.95802557  1
  C  C306  1  0.30895505  0.75916770  0.04127846  1
  C  C307  1  0.70395737  0.23914290  0.53842091  1
  C  C308  1  0.19810069  0.42579969  0.04276508  1
  C  C309  1  0.95061017  0.74004534  0.53656634  1
  C  C310  1  0.06581995  0.93064962  0.45417777  1
  C  C311  1  0.77662865  0.09408449  0.03476975  1
  N  N312  1  0.20852913  0.24655842  0.54128058  1
  N  N313  1  0.47682198  0.59200471  0.46593978  1
  N  N314  1  0.49181139  0.92487611  0.46594997  1
  N  N315  1  0.27530672  0.42290296  0.03635397  1
  N  N316  1  0.29483164  0.75825775  0.46018252  1
  N  N317  1  0.79152598  0.90835932  0.95722412  1
  N  N318  1  0.81459676  0.23672366  0.95221486  1
  N  N319  1  0.28803711  0.57441173  0.53772447  1
  N  N320  1  0.69163020  0.09432328  0.45509104  1
  N  N321  1  0.81298373  0.57163983  0.95555721  1
  N  N322  1  0.79231317  0.42342084  0.03950550  1
  N  N323  1  0.26749255  0.24201873  0.96588970  1
  N  N324  1  0.49187989  0.25507619  0.46596116  1
  N  N325  1  0.56191955  0.59359787  0.04803299  1
  N  N326  1  0.77347673  0.57712394  0.53440903  1
  N  N327  1  0.03877090  0.40678578  0.53911922  1
  N  N328  1  0.97203949  0.92359667  0.03748548  1
  N  N329  1  0.45968013  0.25058641  0.04392762  1
  N  N330  1  0.21628960  0.75851169  0.46070477  1
  N  N331  1  0.96185890  0.25789906  0.03549191  1
  N  N332  1  0.23005848  0.75633487  0.03600350  1
  N  N333  1  0.55437862  0.59469932  0.45688115  1
  N  N334  1  0.54152343  0.25057098  0.04507111  1
  N  N335  1  0.55582716  0.07704444  0.54291659  1
  N  N336  1  0.44700979  0.73959236  0.95745241  1
  N  N337  1  0.52818304  0.07454723  0.96581750  1
  N  N338  1  0.71527126  0.90948746  0.96243545  1
  N  N339  1  0.50467355  0.74209981  0.53665301  1
  N  N340  1  0.29243430  0.42320061  0.45617763  1
  N  N341  1  0.94224578  0.73997215  0.95974159  1
  N  N342  1  0.54423123  0.41196868  0.96244709  1
  N  N343  1  0.69803994  0.42489280  0.45960196  1
  N  N344  1  0.68943586  0.90515979  0.54540950  1
  N  N345  1  0.25870287  0.57479415  0.96302163  1
  N  N346  1  0.05722288  0.07395863  0.54311027  1
  N  N347  1  0.18949366  0.90772835  0.54878889  1
  N  N348  1  0.29034765  0.24479884  0.54133239  1
  N  N349  1  0.96952675  0.41010547  0.96475275  1
  N  N350  1  0.21604199  0.42256096  0.46026420  1
  N  N351  1  0.73838488  0.75479603  0.46490970  1
  N  N352  1  0.42796864  0.73832667  0.54780907  1
  N  N353  1  0.97876992  0.07819030  0.96405818  1
  N  N354  1  0.47983746  0.07757287  0.53580516  1
  N  N355  1  0.52502731  0.74071314  0.96367861  1
  N  N356  1  0.48507660  0.58969855  0.03848556  1
  N  N357  1  0.80227806  0.75892052  0.04270507  1
  N  N358  1  0.54957886  0.41014050  0.54196604  1
  N  N359  1  0.96564224  0.59189303  0.46169040  1
  N  N360  1  0.07162488  0.05637871  0.60194325  1
  N  N361  1  0.06353171  0.39033736  0.59646695  1
  N  N362  1  0.05613635  0.72255418  0.59622961  1
  N  N363  1  0.57164482  0.05882291  0.60209459  1
  N  N364  1  0.56895447  0.38894919  0.59884578  1
  N  N365  1  0.54709351  0.72250833  0.58566778  1
  N  N366  1  0.43540349  0.28075604  0.09484082  1
  N  N367  1  0.44360157  0.60813820  0.08844488  1
  N  N368  1  0.44392642  0.94490033  0.09468492  1
  N  N369  1  0.93556081  0.27772270  0.09230871  1
  N  N370  1  0.93071978  0.61079714  0.09727309  1
  N  N371  1  0.94187948  0.94330330  0.09231980  1
  N  N372  1  0.43285193  0.05437507  0.89856060  1
  N  N373  1  0.43669964  0.39457167  0.90751984  1
  N  N374  1  0.42688720  0.72280131  0.90002063  1
  N  N375  1  0.94297456  0.05547744  0.91151268  1
  N  N376  1  0.94099533  0.39234277  0.90868363  1
  N  N377  1  0.92689468  0.72073870  0.89952098  1
  N  N378  1  0.05699778  0.27565491  0.41168532  1
  N  N379  1  0.06604431  0.60946516  0.40424124  1
  N  N380  1  0.07795326  0.94888751  0.39450187  1
  N  N381  1  0.57178369  0.27945732  0.39241038  1
  N  N382  1  0.57004194  0.61109134  0.39844928  1
  N  N383  1  0.57996866  0.94374190  0.39722659  1
  N  N384  1  0.31228468  0.21718989  0.59435132  1
  N  N385  1  0.31131034  0.55689915  0.59540108  1
  N  N386  1  0.30484067  0.89140020  0.59446255  1
  N  N387  1  0.81298611  0.22431001  0.59231254  1
  N  N388  1  0.80479106  0.55892129  0.59137843  1
  N  N389  1  0.80205423  0.89075609  0.59204438  1
  N  N390  1  0.19127838  0.10556537  0.08230354  1
  N  N391  1  0.17879048  0.44384064  0.10116652  1
  N  N392  1  0.19485159  0.77441078  0.09029390  1
  N  N393  1  0.67920180  0.11084037  0.10019719  1
  N  N394  1  0.68384718  0.44093904  0.09326369  1
  N  N395  1  0.69256009  0.77810885  0.09132944  1
  N  N396  1  0.18259807  0.21970772  0.89484239  1
  N  N397  1  0.17584626  0.55317086  0.89039736  1
  N  N398  1  0.17528503  0.88565453  0.88997150  1
  N  N399  1  0.69424206  0.22576425  0.91127035  1
  N  N400  1  0.69483434  0.55786544  0.91627356  1
  N  N401  1  0.68323363  0.89090750  0.90728718  1
  N  N402  1  0.31122040  0.10982292  0.41029960  1
  N  N403  1  0.31181955  0.44313743  0.39814774  1
  N  N404  1  0.32266132  0.77604781  0.40484618  1
  N  N405  1  0.80503186  0.11112663  0.41082246  1
  N  N406  1  0.80885278  0.44211646  0.40942920  1
  N  N407  1  0.82786714  0.77562006  0.39879452  1
  N  N408  1  0.44690542  0.27611678  0.41723523  1
  N  N409  1  0.44407768  0.60694785  0.41093003  1
  N  N410  1  0.45279712  0.94628853  0.41438765  1
  N  N411  1  0.92997584  0.28052349  0.39052378  1
  N  N412  1  0.93711153  0.61087604  0.40569803  1
  N  N413  1  0.94914573  0.94171917  0.40748537  1
  N  N414  1  0.07132313  0.05767756  0.90050523  1
  N  N415  1  0.06869517  0.38938941  0.90063074  1
  N  N416  1  0.05404841  0.72417691  0.91069641  1
  N  N417  1  0.55972217  0.05784298  0.91006046  1
  N  N418  1  0.56498832  0.39193748  0.90375499  1
  N  N419  1  0.55349658  0.72467693  0.90788805  1
  N  N420  1  0.06426294  0.27333650  0.09213957  1
  N  N421  1  0.05947053  0.60865164  0.08572907  1
  N  N422  1  0.07073534  0.94447474  0.09742610  1
  N  N423  1  0.56322609  0.28049495  0.09660944  1
  N  N424  1  0.56832699  0.61186830  0.10676361  1
  N  N425  1  0.57383073  0.94573968  0.10057406  1
  N  N426  1  0.44594995  0.05925401  0.59018679  1
  N  N427  1  0.44025260  0.39276004  0.59204319  1
  N  N428  1  0.42322182  0.72040569  0.60696165  1
  N  N429  1  0.94398304  0.05771172  0.59333594  1
  N  N430  1  0.93551544  0.38883423  0.60031861  1
  N  N431  1  0.92605810  0.72354217  0.59335194  1
  N  N432  1  0.18044310  0.10996382  0.41068330  1
  N  N433  1  0.18552824  0.44206758  0.40495054  1
  N  N434  1  0.19557191  0.77541710  0.40341541  1
  N  N435  1  0.67757317  0.11122737  0.39589713  1
  N  N436  1  0.68153433  0.44411255  0.39955060  1
  N  N437  1  0.69989277  0.77526155  0.41241974  1
  N  N438  1  0.30885801  0.22143046  0.91529312  1
  N  N439  1  0.30124485  0.55354785  0.91369093  1
  N  N440  1  0.30241674  0.89247753  0.91052418  1
  N  N441  1  0.81940543  0.22006159  0.89172315  1
  N  N442  1  0.82065531  0.55394793  0.89596816  1
  N  N443  1  0.80919264  0.88957411  0.89841483  1
  N  N444  1  0.31880674  0.11129172  0.10116201  1
  N  N445  1  0.30638791  0.44030012  0.09348262  1
  N  N446  1  0.32310401  0.77749322  0.09968918  1
  N  N447  1  0.80883426  0.10917978  0.09220136  1
  N  N448  1  0.81213566  0.44466420  0.09776713  1
  N  N449  1  0.82091351  0.77651724  0.10103705  1
  N  N450  1  0.18446381  0.21917096  0.59379607  1
  N  N451  1  0.18325366  0.55582491  0.59725192  1
  N  N452  1  0.17797951  0.88620220  0.60682477  1
  N  N453  1  0.68336003  0.22364445  0.59691057  1
  N  N454  1  0.67737173  0.55637832  0.59984407  1
  N  N455  1  0.67403215  0.88716974  0.60405361  1
  Cl  Cl456  1  0.26036310  0.05667254  0.61094922  1
  Cl  Cl457  1  0.25243998  0.38559815  0.61732519  1
  Cl  Cl458  1  0.24209453  0.72109553  0.62476199  1
  Cl  Cl459  1  0.75874461  0.05674230  0.61459579  1
  Cl  Cl460  1  0.75169531  0.38649487  0.62025833  1
  Cl  Cl461  1  0.73126920  0.72567755  0.60299476  1
  Cl  Cl462  1  0.25259403  0.27058113  0.11274304  1
  Cl  Cl463  1  0.25804038  0.60618053  0.10099234  1
  Cl  Cl464  1  0.25605833  0.94675412  0.11954360  1
  Cl  Cl465  1  0.74709125  0.27821408  0.10714581  1
  Cl  Cl466  1  0.74858799  0.61347786  0.11844947  1
  Cl  Cl467  1  0.75939542  0.94693736  0.12362203  1
  Cl  Cl468  1  0.25182503  0.05126097  0.87574204  1
  Cl  Cl469  1  0.25254156  0.38370411  0.88002551  1
  Cl  Cl470  1  0.24090269  0.72287709  0.89459264  1
  Cl  Cl471  1  0.75426899  0.05907177  0.88707907  1
  Cl  Cl472  1  0.75164066  0.38790067  0.88521947  1
  Cl  Cl473  1  0.73886072  0.72111377  0.88443101  1
  Cl  Cl474  1  0.25426698  0.26478480  0.39901866  1
  Cl  Cl475  1  0.25245261  0.61345778  0.37841241  1
  Cl  Cl476  1  0.27069406  0.94083290  0.38829902  1
  Cl  Cl477  1  0.74958254  0.28631703  0.36980663  1
  Cl  Cl478  1  0.75262557  0.61703706  0.38420060  1
  Cl  Cl479  1  0.76437798  0.94457562  0.39073852  1
  Cl  Cl480  1  0.00162779  0.22268017  0.61437955  1
  Cl  Cl481  1  -0.00832652  0.55944964  0.60181118  1
  Cl  Cl482  1  -0.01346363  0.88550167  0.61753507  1
  Cl  Cl483  1  0.49273471  0.22946234  0.61549420  1
  Cl  Cl484  1  0.49642305  0.55316815  0.62703809  1
  Cl  Cl485  1  0.48849905  0.89348669  0.60580222  1
  Cl  Cl486  1  -0.00259003  0.10955652  0.10592871  1
  Cl  Cl487  1  -0.00307227  0.44672551  0.12330249  1
  Cl  Cl488  1  0.00870081  0.77908686  0.11228188  1
  Cl  Cl489  1  0.49965433  0.11307935  0.12214234  1
  Cl  Cl490  1  0.49482534  0.44323331  0.11695556  1
  Cl  Cl491  1  0.50559782  0.78174136  0.12133543  1
  Cl  Cl492  1  0.00222868  0.21620044  0.88203814  1
  Cl  Cl493  1  -0.00209331  0.55176965  0.86806063  1
  Cl  Cl494  1  -0.00923214  0.88982386  0.88677314  1
  Cl  Cl495  1  0.49864097  0.23660213  0.90129606  1
  Cl  Cl496  1  0.48864374  0.56056977  0.90068569  1
  Cl  Cl497  1  0.49341606  0.88903742  0.88628053  1
  Cl  Cl498  1  -0.01116100  0.11015343  0.38115894  1
  Cl  Cl499  1  -0.00367145  0.44822675  0.38901478  1
  Cl  Cl500  1  0.01185777  0.77546610  0.37932032  1
  Cl  Cl501  1  0.49596732  0.11700419  0.38212863  1
  Cl  Cl502  1  0.49651036  0.44422966  0.38574166  1
  Cl  Cl503  1  0.51290858  0.77347700  0.39880341  1
  Cl  Cl504  1  0.36077233  0.14787715  0.74934738  1
  Cl  Cl505  1  0.35718359  0.48281057  0.74898916  1
  Cl  Cl506  1  0.35859019  0.81361912  0.74830424  1
  Cl  Cl507  1  0.85858409  0.15135535  0.75239944  1
  Cl  Cl508  1  0.85805873  0.48293327  0.75056007  1
  Cl  Cl509  1  0.85563908  0.81429679  0.75148572  1
  Cl  Cl510  1  0.14409017  0.18645981  0.25079849  1
  Cl  Cl511  1  0.14524289  0.52143086  0.24571105  1
  Cl  Cl512  1  0.14393473  0.85276100  0.25310602  1
  Cl  Cl513  1  0.63739104  0.18811178  0.24741404  1
  Cl  Cl514  1  0.63642678  0.52176752  0.25486403  1
  Cl  Cl515  1  0.64687541  0.85507953  0.25509571  1
  Cl  Cl516  1  0.13981569  0.14639534  0.75062048  1
  Cl  Cl517  1  0.13525309  0.48112468  0.75076951  1
  Cl  Cl518  1  0.13398089  0.81429842  0.75344328  1
  Cl  Cl519  1  0.63470024  0.14782434  0.74643983  1
  Cl  Cl520  1  0.63807536  0.48171274  0.75202546  1
  Cl  Cl521  1  0.63892502  0.81239628  0.74458899  1
  Cl  Cl522  1  0.36242336  0.18354725  0.24497585  1
  Cl  Cl523  1  0.36414841  0.51976933  0.25083826  1
  Cl  Cl524  1  0.36182412  0.84881194  0.24616182  1
  Cl  Cl525  1  0.85718379  0.18362076  0.24958332  1
  Cl  Cl526  1  0.85979121  0.51624172  0.25023142  1
  Cl  Cl527  1  0.86646721  0.85108558  0.25194444  1
  Cl  Cl528  1  0.11087256  0.31388051  0.75031545  1
  Cl  Cl529  1  0.10754909  0.64763555  0.74997722  1
  Cl  Cl530  1  0.11121888  0.97836733  0.74937030  1
  Cl  Cl531  1  0.60979833  0.31330563  0.75005188  1
  Cl  Cl532  1  0.60542518  0.64924706  0.75454073  1
  Cl  Cl533  1  0.61610568  0.97666451  0.74110503  1
  Cl  Cl534  1  0.39842749  0.01529770  0.25142655  1
  Cl  Cl535  1  0.38936829  0.35086858  0.25067575  1
  Cl  Cl536  1  0.39810012  0.68698529  0.25422514  1
  Cl  Cl537  1  0.89944871  0.01798724  0.24723854  1
  Cl  Cl538  1  0.89374479  0.34976966  0.25076789  1
  Cl  Cl539  1  0.89023451  0.68710722  0.24477429  1
  Cl  Cl540  1  0.39142471  0.31435224  0.74915208  1
  Cl  Cl541  1  0.38577909  0.64851060  0.75123054  1
  Cl  Cl542  1  0.39658240  0.98231450  0.75127829  1
  Cl  Cl543  1  0.89116018  0.31537554  0.75463140  1
  Cl  Cl544  1  0.88722109  0.64942061  0.75051832  1
  Cl  Cl545  1  0.89107100  0.98552298  0.75260664  1
  Cl  Cl546  1  0.11649923  0.02112230  0.25214963  1
  Cl  Cl547  1  0.11472269  0.35185812  0.24804354  1
  Cl  Cl548  1  0.11207821  0.68243796  0.24633612  1
  Cl  Cl549  1  0.61963604  0.02209725  0.25654037  1
  Cl  Cl550  1  0.61104627  0.35209921  0.25198105  1
  Cl  Cl551  1  0.61867232  0.68844639  0.24916776  1
