# generated using pymatgen
data_H8PbC4(N3Cl2)2
_symmetry_space_group_name_H-M   'P 1'
_cell_length_a   16.63124016
_cell_length_b   22.53008864
_cell_length_c   21.59965834
_cell_angle_alpha   90.00017816
_cell_angle_beta   89.99032155
_cell_angle_gamma   89.99393574
_symmetry_Int_Tables_number   1
_chemical_formula_structural   H8PbC4(N3Cl2)2
_chemical_formula_sum   'H192 Pb24 C96 N144 Cl96'
_cell_volume   8093.46342731
_cell_formula_units_Z   24
loop_
 _symmetry_equiv_pos_site_id
 _symmetry_equiv_pos_as_xyz
  1  'x, y, z'
loop_
 _atom_site_type_symbol
 _atom_site_label
 _atom_site_symmetry_multiplicity
 _atom_site_fract_x
 _atom_site_fract_y
 _atom_site_fract_z
 _atom_site_occupancy
  H  H0  1  0.00398716  0.02692177  0.67250316  1
  H  H1  1  0.01759026  0.36177456  0.67846643  1
  H  H2  1  -0.00131311  0.69118572  0.67428536  1
  H  H3  1  0.48586272  0.03619208  0.65524836  1
  H  H4  1  0.47462363  0.35725360  0.67424098  1
  H  H5  1  0.49973135  0.68967361  0.67459125  1
  H  H6  1  0.00624279  0.29857985  0.18274712  1
  H  H7  1  0.00436556  0.64051846  0.17484462  1
  H  H8  1  -0.02415488  0.97654237  0.17825451  1
  H  H9  1  0.49287673  0.30666662  0.17528977  1
  H  H10  1  0.50709339  0.64115726  0.17811212  1
  H  H11  1  0.52072992  0.96714959  0.17578420  1
  H  H12  1  0.01312164  0.03686534  0.82096498  1
  H  H13  1  -0.01716688  0.36679958  0.81637229  1
  H  H14  1  -0.00145541  0.69572580  0.82288000  1
  H  H15  1  0.48884447  0.02183012  0.82476580  1
  H  H16  1  0.51150393  0.36083883  0.83136104  1
  H  H17  1  0.49955080  0.69922758  0.82976303  1
  H  H18  1  -0.00847717  0.30704663  0.32521609  1
  H  H19  1  -0.00901979  0.63713420  0.32283706  1
  H  H20  1  -0.00117527  0.97296199  0.32835807  1
  H  H21  1  0.50257715  0.30617083  0.32100418  1
  H  H22  1  0.50497770  0.64111199  0.33099025  1
  H  H23  1  0.50428454  0.97298969  0.31224153  1
  H  H24  1  0.25119135  0.18954513  0.67539373  1
  H  H25  1  0.23752255  0.53296486  0.67484112  1
  H  H26  1  0.27522279  0.85486540  0.67382602  1
  H  H27  1  0.73992931  0.18775414  0.67470877  1
  H  H28  1  0.76440084  0.52424300  0.67225998  1
  H  H29  1  0.72284133  0.85928250  0.67166641  1
  H  H30  1  0.26768197  0.13647835  0.17771611  1
  H  H31  1  0.24703157  0.46538668  0.17383848  1
  H  H32  1  0.25407540  0.80342594  0.17806459  1
  H  H33  1  0.73410328  0.13741635  0.16928555  1
  H  H34  1  0.76954332  0.47358644  0.18489860  1
  H  H35  1  0.74644937  0.79899728  0.17138759  1
  H  H36  1  0.23908745  0.19647314  0.82433761  1
  H  H37  1  0.26390589  0.52401234  0.82591387  1
  H  H38  1  0.24051121  0.86095501  0.82125597  1
  H  H39  1  0.75106348  0.19266013  0.82600684  1
  H  H40  1  0.74399747  0.53241122  0.82371829  1
  H  H41  1  0.75390641  0.85456426  0.81914945  1
  H  H42  1  0.26703204  0.13207204  0.34739067  1
  H  H43  1  0.24597037  0.47602297  0.31714745  1
  H  H44  1  0.25986190  0.80142456  0.32160600  1
  H  H45  1  0.74785243  0.13985066  0.32400438  1
  H  H46  1  0.74346461  0.47555686  0.32576758  1
  H  H47  1  0.75948078  0.80557524  0.32280679  1
  H  H48  1  0.11107926  0.06151517  0.59367323  1
  H  H49  1  0.11393229  0.39297602  0.59089410  1
  H  H50  1  0.13013158  0.71836146  0.61097015  1
  H  H51  1  0.59002308  0.06527046  0.57327874  1
  H  H52  1  0.62230190  0.38082027  0.63487754  1
  H  H53  1  0.63068129  0.71570521  0.61006916  1
  H  H54  1  0.36331663  0.28249523  0.10860542  1
  H  H55  1  0.38753213  0.61231909  0.10766469  1
  H  H56  1  0.37659558  0.95133559  0.13186295  1
  H  H57  1  0.86560574  0.28181940  0.12797430  1
  H  H58  1  0.88480986  0.61296950  0.10090179  1
  H  H59  1  0.88080376  0.93983601  0.08982044  1
  H  H60  1  0.38448910  0.05780238  0.90699038  1
  H  H61  1  0.36785970  0.38494747  0.87704178  1
  H  H62  1  0.36286186  0.71789459  0.88457930  1
  H  H63  1  0.88069077  0.05523825  0.88560166  1
  H  H64  1  0.87116952  0.39152928  0.89653136  1
  H  H65  1  0.85953523  0.71357137  0.87749794  1
  H  H66  1  0.12998108  0.28013342  0.37865228  1
  H  H67  1  0.10852343  0.61220765  0.39621654  1
  H  H68  1  0.12630221  0.95113278  0.39448162  1
  H  H69  1  0.62889855  0.27957796  0.38992255  1
  H  H70  1  0.61499431  0.60441021  0.40641669  1
  H  H71  1  0.62878934  0.94930972  0.38142786  1
  H  H72  1  0.36150848  0.22193923  0.59582027  1
  H  H73  1  0.38164518  0.55184133  0.62860866  1
  H  H74  1  0.36445277  0.89641448  0.58447330  1
  H  H75  1  0.86788558  0.21886574  0.60988920  1
  H  H76  1  0.88504439  0.55644070  0.60123976  1
  H  H77  1  0.87035545  0.87752809  0.63067899  1
  H  H78  1  0.12199311  0.11878638  0.13484470  1
  H  H79  1  0.13985027  0.44212582  0.09234708  1
  H  H80  1  0.14540274  0.77638954  0.09792884  1
  H  H81  1  0.62860120  0.10112435  0.08936571  1
  H  H82  1  0.63518516  0.45088551  0.12646134  1
  H  H83  1  0.63913100  0.77084054  0.09067863  1
  H  H84  1  0.14229966  0.22915532  0.91215138  1
  H  H85  1  0.12036400  0.54880749  0.87127480  1
  H  H86  1  0.12109630  0.88949345  0.89493392  1
  H  H87  1  0.63412936  0.22343180  0.89966812  1
  H  H88  1  0.61874595  0.55754602  0.89432757  1
  H  H89  1  0.62257272  0.88360010  0.87867141  1
  H  H90  1  0.40731915  0.11303238  0.39633756  1
  H  H91  1  0.36918970  0.44568601  0.38755712  1
  H  H92  1  0.36706220  0.77250870  0.40558394  1
  H  H93  1  0.88485165  0.11884562  0.38091646  1
  H  H94  1  0.87602673  0.45011177  0.38625684  1
  H  H95  1  0.86741645  0.77274277  0.40467970  1
  H  H96  1  0.37983558  0.27498378  0.38930855  1
  H  H97  1  0.36885559  0.61770033  0.38831651  1
  H  H98  1  0.37936270  0.95172506  0.38230243  1
  H  H99  1  0.88513002  0.27483625  0.40790019  1
  H  H100  1  0.85961665  0.61425717  0.38584001  1
  H  H101  1  0.87776941  0.94348878  0.39734443  1
  H  H102  1  0.12877078  0.05979273  0.89913056  1
  H  H103  1  0.11888764  0.38619847  0.87591747  1
  H  H104  1  0.10655326  0.72475140  0.90282853  1
  H  H105  1  0.62853964  0.05218015  0.87221141  1
  H  H106  1  0.60865778  0.39455722  0.91937250  1
  H  H107  1  0.60906355  0.72434707  0.91022726  1
  H  H108  1  0.11024702  0.27266864  0.09728795  1
  H  H109  1  0.13275052  0.61080648  0.10921814  1
  H  H110  1  0.12096259  0.95414939  0.13708128  1
  H  H111  1  0.61066887  0.27401394  0.10167852  1
  H  H112  1  0.63678054  0.61955957  0.11214869  1
  H  H113  1  0.61796370  0.93681733  0.08912816  1
  H  H114  1  0.34574888  0.05540580  0.60526657  1
  H  H115  1  0.38473712  0.39339470  0.58298985  1
  H  H116  1  0.38272597  0.72380177  0.60177720  1
  H  H117  1  0.86524408  0.04864516  0.61720724  1
  H  H118  1  0.87321766  0.37867727  0.63551286  1
  H  H119  1  0.88203479  0.72058625  0.59874672  1
  H  H120  1  0.16325569  0.10151987  0.42939872  1
  H  H121  1  0.11989232  0.44658474  0.38184455  1
  H  H122  1  0.12148034  0.78109774  0.37993779  1
  H  H123  1  0.63885368  0.10811994  0.40391604  1
  H  H124  1  0.62746232  0.44725080  0.39964335  1
  H  H125  1  0.62172103  0.78037096  0.37980217  1
  H  H126  1  0.38386183  0.21670771  0.86860372  1
  H  H127  1  0.36093155  0.55786921  0.91342848  1
  H  H128  1  0.36932684  0.88630712  0.88673011  1
  H  H129  1  0.88187496  0.21490702  0.89069572  1
  H  H130  1  0.86772950  0.55907693  0.89281004  1
  H  H131  1  0.87082715  0.88582460  0.89488951  1
  H  H132  1  0.36205210  0.10276288  0.08774084  1
  H  H133  1  0.38547703  0.44655194  0.12029722  1
  H  H134  1  0.39276845  0.78291872  0.12379727  1
  H  H135  1  0.87343059  0.11468655  0.11691883  1
  H  H136  1  0.88228338  0.44906761  0.10308256  1
  H  H137  1  0.88417162  0.78148614  0.11857965  1
  H  H138  1  0.11442807  0.21206108  0.61873206  1
  H  H139  1  0.13942634  0.56399428  0.58762872  1
  H  H140  1  0.12784328  0.87712865  0.63457417  1
  H  H141  1  0.61980440  0.21952663  0.60128085  1
  H  H142  1  0.63652558  0.55267916  0.60756678  1
  H  H143  1  0.63370835  0.89633707  0.58078330  1
  H  H144  1  0.27500954  0.58289185  1.00951069  1
  H  H145  1  0.81508883  0.43645050  -0.00054584  1
  H  H146  1  0.05323740  0.58263444  0.50639651  1
  H  H147  1  0.88808194  0.08312852  0.50868944  1
  H  H148  1  0.87421424  0.41099204  0.52047753  1
  H  H149  1  0.47841150  0.41990609  0.49156903  1
  H  H150  1  0.72687712  0.91665318  0.48750285  1
  H  H151  1  0.27077114  0.92217137  0.49302515  1
  H  H152  1  0.11775472  0.91977668  0.02360669  1
  H  H153  1  0.20968259  0.41718220  -0.01592513  1
  H  H154  1  0.08770573  0.92248500  0.50594388  1
  H  H155  1  0.68319632  0.41554201  0.50785034  1
  H  H156  1  0.27686757  0.08025948  -0.00707406  1
  H  H157  1  0.58919657  0.74845398  0.50629506  1
  H  H158  1  0.38199143  0.75037007  0.00194809  1
  H  H159  1  0.92474046  0.91515920  0.50774136  1
  H  H160  1  0.52243436  0.41912625  1.01544017  1
  H  H161  1  0.08629537  0.40107688  0.98746300  1
  H  H162  1  0.16352556  0.41057700  0.49114461  1
  H  H163  1  0.08851640  0.58396297  0.00334704  1
  H  H164  1  0.31635866  0.41969836  0.49245765  1
  H  H165  1  0.69595689  0.24126258  1.00495976  1
  H  H166  1  0.96689174  0.91889933  -0.00546828  1
  H  H167  1  0.22249040  0.58738848  0.48953629  1
  H  H168  1  0.03554122  0.24419042  -0.00453332  1
  H  H169  1  0.12428114  0.08554600  0.02153023  1
  H  H170  1  0.66325726  0.42657100  0.01224477  1
  H  H171  1  0.10691110  0.24904876  0.48765396  1
  H  H172  1  0.03207123  0.42073646  0.49050575  1
  H  H173  1  0.43174986  0.23533161  0.49457622  1
  H  H174  1  0.21343882  0.74734415  -0.00841676  1
  H  H175  1  0.84427958  0.25179312  0.99439661  1
  H  H176  1  0.86951918  0.74561014  1.00045920  1
  H  H177  1  0.85022335  0.08161407  0.00851348  1
  H  H178  1  0.65852004  0.91880285  0.98984221  1
  H  H179  1  0.38134490  0.91906336  1.01765785  1
  H  H180  1  0.43963626  0.58234912  -0.00291099  1
  H  H181  1  0.93548047  0.41347369  1.00448731  1
  H  H182  1  0.03785522  0.75315957  1.00919634  1
  H  H183  1  0.39497103  0.58617257  0.49851853  1
  H  H184  1  0.80937573  0.90587339  0.99909244  1
  H  H185  1  0.22680722  0.25567556  1.00819068  1
  H  H186  1  0.40238271  0.25493783  0.00090227  1
  H  H187  1  0.46301194  0.08852826  1.00432466  1
  H  H188  1  0.08983392  0.74953645  0.50590884  1
  H  H189  1  0.53674493  0.90715872  -0.01194263  1
  H  H190  1  0.58464447  0.93187738  0.49483216  1
  H  H191  1  0.42308397  0.93217883  0.49469079  1
  Pb  Pb192  1  0.24773060  0.04808260  0.75969240  1
  Pb  Pb193  1  0.25412665  0.38427946  0.73283027  1
  Pb  Pb194  1  0.24922371  0.71689855  0.75120424  1
  Pb  Pb195  1  0.75139910  0.04948865  0.74811310  1
  Pb  Pb196  1  0.74540859  0.38333944  0.76893285  1
  Pb  Pb197  1  0.74591792  0.71375582  0.74991846  1
  Pb  Pb198  1  0.24781071  0.28297552  0.24220133  1
  Pb  Pb199  1  0.25021079  0.61608300  0.25054349  1
  Pb  Pb200  1  0.24623995  0.95035289  0.25889415  1
  Pb  Pb201  1  0.74496892  0.27987300  0.24907414  1
  Pb  Pb202  1  0.74923885  0.61943522  0.24944375  1
  Pb  Pb203  1  0.75343711  0.94872607  0.24246932  1
  Pb  Pb204  1  0.00258455  0.21808738  0.75918568  1
  Pb  Pb205  1  -0.00139810  0.54860999  0.74509144  1
  Pb  Pb206  1  -0.00271805  0.88071114  0.76325443  1
  Pb  Pb207  1  0.50127748  0.21475535  0.74508323  1
  Pb  Pb208  1  0.50305789  0.55085425  0.75632180  1
  Pb  Pb209  1  0.50231709  0.88747251  0.73546754  1
  Pb  Pb210  1  0.00251782  0.11799758  0.26271190  1
  Pb  Pb211  1  -0.00443448  0.44814033  0.24011400  1
  Pb  Pb212  1  0.00175657  0.78318073  0.25051711  1
  Pb  Pb213  1  0.49776953  0.11532755  0.23720980  1
  Pb  Pb214  1  0.50278762  0.45061703  0.25486083  1
  Pb  Pb215  1  0.50110366  0.78430392  0.25367809  1
  C  C216  1  -0.00711877  0.04438021  0.62656871  1
  C  C217  1  0.00086962  0.37735812  0.63253697  1
  C  C218  1  0.00401935  0.70919589  0.62790627  1
  C  C219  1  0.47324957  0.05209709  0.60898671  1
  C  C220  1  0.49352736  0.37542464  0.63001278  1
  C  C221  1  0.50468323  0.70885576  0.62876448  1
  C  C222  1  -0.00661962  0.28556858  0.13537807  1
  C  C223  1  0.00786246  0.62245399  0.12840447  1
  C  C224  1  -0.00737707  0.95835773  0.13331083  1
  C  C225  1  0.48832338  0.28874894  0.12881797  1
  C  C226  1  0.51007949  0.62485218  0.13103142  1
  C  C227  1  0.50435017  0.95188042  0.12971992  1
  C  C228  1  0.00720481  0.05035968  0.86875704  1
  C  C229  1  -0.00827588  0.38034257  0.86418562  1
  C  C230  1  -0.01183250  0.71113536  0.86979051  1
  C  C231  1  0.50050003  0.04198068  0.86931534  1
  C  C232  1  0.49626803  0.37890925  0.87655319  1
  C  C233  1  0.48988267  0.71365739  0.87709591  1
  C  C234  1  0.00264235  0.28811183  0.37061801  1
  C  C235  1  -0.01338213  0.62204293  0.37026761  1
  C  C236  1  0.00108558  0.95649056  0.37558189  1
  C  C237  1  0.50381104  0.28784072  0.36738189  1
  C  C238  1  0.49568419  0.62277265  0.37672258  1
  C  C239  1  0.50417471  0.95910255  0.36038145  1
  C  C240  1  0.24251036  0.20765040  0.62941681  1
  C  C241  1  0.25279811  0.54814893  0.62855342  1
  C  C242  1  0.25630316  0.87458176  0.63037827  1
  C  C243  1  0.74237933  0.20756569  0.62897718  1
  C  C244  1  0.76193569  0.54342949  0.62644696  1
  C  C245  1  0.74182383  0.87629737  0.62694603  1
  C  C246  1  0.25056582  0.12081481  0.13182422  1
  C  C247  1  0.25756084  0.45158714  0.12639065  1
  C  C248  1  0.26418631  0.78800451  0.13110243  1
  C  C249  1  0.74593458  0.11896130  0.12387071  1
  C  C250  1  0.76280853  0.45959404  0.13697919  1
  C  C251  1  0.75727485  0.78395997  0.12441526  1
  C  C252  1  0.25507232  0.21295357  0.86993314  1
  C  C253  1  0.24855712  0.54215890  0.87099659  1
  C  C254  1  0.24388795  0.87808298  0.86794575  1
  C  C255  1  0.75592598  0.21033995  0.87279704  1
  C  C256  1  0.74311368  0.54931630  0.87056774  1
  C  C257  1  0.74970818  0.87238184  0.86584402  1
  C  C258  1  0.27987637  0.11605947  0.39360599  1
  C  C259  1  0.24573151  0.45796132  0.36381722  1
  C  C260  1  0.24946861  0.78634712  0.36869918  1
  C  C261  1  0.75729615  0.12327297  0.37036318  1
  C  C262  1  0.74845692  0.45832353  0.37246825  1
  C  C263  1  0.74959306  0.78750438  0.36876213  1
  C  C264  1  0.00789933  0.40717659  0.53503777  1
  C  C265  1  0.06530176  0.92774718  0.05424978  1
  C  C266  1  0.32270604  0.57585589  0.54628118  1
  C  C267  1  0.23922068  0.42662764  0.02790595  1
  C  C268  1  0.92692841  0.73501266  0.95696196  1
  C  C269  1  0.78008864  0.58295594  0.96105968  1
  C  C270  1  0.21161968  0.90808520  0.96164311  1
  C  C271  1  0.20210695  0.42330623  0.45277450  1
  C  C272  1  0.81122389  0.09508871  0.45778857  1
  C  C273  1  0.32633938  0.24281770  0.95079480  1
  C  C274  1  0.43166559  0.73980746  0.96527064  1
  C  C275  1  0.18877904  0.23563994  0.54182014  1
  C  C276  1  0.00754963  0.74006959  0.96657848  1
  C  C277  1  0.69953095  0.90558724  0.95326425  1
  C  C278  1  0.49293996  0.08328131  0.51181726  1
  C  C279  1  0.04566767  0.93089121  0.46837340  1
  C  C280  1  0.01437179  0.08089421  0.53235170  1
  C  C281  1  0.03541681  0.07500799  0.96487362  1
  C  C282  1  0.00747031  0.25840764  0.03887638  1
  C  C283  1  0.46304987  0.93933330  0.45562336  1
  C  C284  1  0.24408915  0.75943557  0.03436410  1
  C  C285  1  0.43316471  0.92691891  0.04726970  1
  C  C286  1  0.46913023  0.25146557  0.45689178  1
  C  C287  1  0.73678746  0.75369191  0.02881943  1
  C  C288  1  0.54500069  0.93881141  0.45553845  1
  C  C289  1  0.55739715  0.59770710  0.04019361  1
  C  C290  1  0.72592976  0.08138404  0.02969555  1
  C  C291  1  0.52032588  0.58572520  0.47003742  1
  C  C292  1  0.41004247  0.07901646  0.52218334  1
  C  C293  1  0.51264892  0.74180727  0.97314119  1
  C  C294  1  0.47620905  0.59449718  0.03683091  1
  C  C295  1  0.51250414  0.92147530  0.03236689  1
  C  C296  1  0.01748784  0.59409098  0.46586392  1
  C  C297  1  0.80030962  0.42901288  0.46140089  1
  C  C298  1  0.81773890  0.75677856  0.03755252  1
  C  C299  1  0.26102375  0.08467005  0.49075137  1
  C  C300  1  0.34389421  0.08998414  0.48036872  1
  C  C301  1  0.71924881  0.42727950  0.46767990  1
  C  C302  1  0.93586007  0.59579625  0.46097708  1
  C  C303  1  0.17748160  0.09291528  0.05188310  1
  C  C304  1  0.79472730  0.57897270  0.53534728  1
  C  C305  1  0.70743109  0.43438512  0.04848593  1
  C  C306  1  0.32473889  0.76255023  0.04428247  1
  C  C307  1  0.92852889  0.40195540  0.55022280  1
  C  C308  1  0.56470408  0.08153797  0.94949808  1
  C  C309  1  0.96567576  0.40546930  0.96064163  1
  C  C310  1  0.96372740  0.92759275  0.46932776  1
  C  C311  1  0.31998472  0.42850551  0.03894257  1
  N  N312  1  0.17867722  0.57206617  0.95158681  1
  N  N313  1  0.74347145  0.90987134  0.53338748  1
  N  N314  1  0.71729702  0.57768328  0.53596614  1
  N  N315  1  0.44263754  0.59288970  0.46379433  1
  N  N316  1  0.54869486  0.74189938  0.54181479  1
  N  N317  1  0.25467689  0.08683649  0.03746764  1
  N  N318  1  0.05893560  0.25779283  0.45477896  1
  N  N319  1  0.95765051  0.07368622  0.96173849  1
  N  N320  1  0.93672561  0.07514396  0.54113156  1
  N  N321  1  0.42628379  0.40803642  0.95800264  1
  N  N322  1  0.24921470  0.24786650  0.96371439  1
  N  N323  1  0.52290330  0.25836070  0.03556908  1
  N  N324  1  0.18009584  0.90996099  0.55593132  1
  N  N325  1  0.48720212  0.08130009  0.96067596  1
  N  N326  1  0.56983276  0.40728622  0.55358177  1
  N  N327  1  0.97110568  0.59167546  0.03555869  1
  N  N328  1  0.70951922  0.24715657  0.53910202  1
  N  N329  1  0.26564163  0.23965920  0.53333224  1
  N  N330  1  0.26811204  0.75774200  0.46518380  1
  N  N331  1  0.19248208  0.76095955  0.45684911  1
  N  N332  1  0.25469808  0.91378378  0.53920115  1
  N  N333  1  0.28917473  0.90769568  0.96004680  1
  N  N334  1  0.70290843  0.58191937  0.96292511  1
  N  N335  1  0.50233555  0.41205715  0.97029244  1
  N  N336  1  0.80328708  0.23373524  0.96274696  1
  N  N337  1  0.04470961  0.40421443  0.95281924  1
  N  N338  1  0.98206751  0.25601223  0.46578339  1
  N  N339  1  0.73443677  0.09024086  0.46605922  1
  N  N340  1  0.44506295  0.26193987  0.03878233  1
  N  N341  1  0.80369872  0.08768227  0.03941866  1
  N  N342  1  0.49493028  0.41152781  0.53754594  1
  N  N343  1  0.47072100  0.74471530  0.53727840  1
  N  N344  1  0.04865909  0.74065642  0.54056091  1
  N  N345  1  0.28180516  0.42237674  0.45327525  1
  N  N346  1  0.24538677  0.58036378  0.53379176  1
  N  N347  1  0.98807015  0.92300394  0.03952237  1
  N  N348  1  0.72537635  0.24559558  0.96322247  1
  N  N349  1  0.76892778  0.75480249  0.46374528  1
  N  N350  1  0.97075787  0.74203767  0.53512493  1
  N  N351  1  0.54823837  0.25353644  0.45758746  1
  N  N352  1  0.78663601  0.43373133  0.04145310  1
  N  N353  1  0.25489928  0.57620400  0.96429626  1
  N  N354  1  0.92959182  0.26407158  0.04811611  1
  N  N355  1  0.69331717  0.75759020  0.45560367  1
  N  N356  1  0.77896367  0.90546383  0.95776185  1
  N  N357  1  0.81845410  0.90356119  0.54884272  1
  N  N358  1  0.78554505  0.24715132  0.54175675  1
  N  N359  1  0.04898113  0.59166659  0.03964153  1
  N  N360  1  0.04950875  0.06185310  0.58498355  1
  N  N361  1  0.05204232  0.39177816  0.58677074  1
  N  N362  1  0.07050825  0.72006218  0.59635122  1
  N  N363  1  0.52900453  0.06664270  0.56444787  1
  N  N364  1  0.56825459  0.38676619  0.61182792  1
  N  N365  1  0.57076378  0.71847676  0.59634099  1
  N  N366  1  0.42277644  0.28140704  0.09506344  1
  N  N367  1  0.44766203  0.61130519  0.09476647  1
  N  N368  1  0.42968943  0.94537411  0.10756976  1
  N  N369  1  0.92232079  0.28047287  0.10856379  1
  N  N370  1  0.94609848  0.61019848  0.09127354  1
  N  N371  1  0.94320775  0.94550663  0.08712327  1
  N  N372  1  0.44660862  0.05466136  0.91244700  1
  N  N373  1  0.42291472  0.38970069  0.89874678  1
  N  N374  1  0.41896163  0.72229134  0.90463842  1
  N  N375  1  0.94032447  0.05833623  0.90027174  1
  N  N376  1  0.93244810  0.39215216  0.90537591  1
  N  N377  1  0.91600377  0.71764177  0.89743782  1
  N  N378  1  0.07263579  0.27743508  0.39723504  1
  N  N379  1  0.04801120  0.61052787  0.40828453  1
  N  N380  1  0.06743466  0.94855242  0.40978120  1
  N  N381  1  0.56822928  0.27617522  0.40153786  1
  N  N382  1  0.55368098  0.60414464  0.41647000  1
  N  N383  1  0.56925304  0.95075538  0.39596720  1
  N  N384  1  0.29915080  0.22173360  0.58931343  1
  N  N385  1  0.32742397  0.55750796  0.60574364  1
  N  N386  1  0.30264418  0.89120487  0.58364563  1
  N  N387  1  0.80756066  0.22293385  0.59755375  1
  N  N388  1  0.82473734  0.55855770  0.59009476  1
  N  N389  1  0.81666063  0.88478574  0.60773898  1
  N  N390  1  0.17526966  0.11255657  0.11090161  1
  N  N391  1  0.20125854  0.44097963  0.08372030  1
  N  N392  1  0.20732104  0.77550845  0.08953029  1
  N  N393  1  0.68988082  0.10031346  0.08204057  1
  N  N394  1  0.69272724  0.44832400  0.10797320  1
  N  N395  1  0.70080682  0.77023395  0.08149850  1
  N  N396  1  0.20468297  0.22616974  0.91507748  1
  N  N397  1  0.17552721  0.55372546  0.89258857  1
  N  N398  1  0.18165110  0.89087119  0.90568603  1
  N  N399  1  0.69535969  0.22170819  0.91077955  1
  N  N400  1  0.67941430  0.56061998  0.90521530  1
  N  N401  1  0.68105561  0.88657524  0.89584496  1
  N  N402  1  0.35207940  0.10931904  0.41893861  1
  N  N403  1  0.30849966  0.44736018  0.39966873  1
  N  N404  1  0.30480993  0.77323707  0.41075264  1
  N  N405  1  0.82798729  0.11434186  0.39899097  1
  N  N406  1  0.81779169  0.44744079  0.40381012  1
  N  N407  1  0.80525065  0.77317931  0.41014588  1
  N  N408  1  0.44007969  0.27237034  0.40190395  1
  N  N409  1  0.42654199  0.61663456  0.40611262  1
  N  N410  1  0.43903425  0.95184864  0.39619647  1
  N  N411  1  0.94732356  0.27426531  0.41291995  1
  N  N412  1  0.91809079  0.61227790  0.40293004  1
  N  N413  1  0.93755707  0.94350627  0.41130397  1
  N  N414  1  0.06781675  0.06112500  0.90871752  1
  N  N415  1  0.06052606  0.38551323  0.89409006  1
  N  N416  1  0.04466297  0.72501249  0.91120626  1
  N  N417  1  0.57295695  0.05807199  0.89256055  1
  N  N418  1  0.54655210  0.39167368  0.92217864  1
  N  N419  1  0.54745518  0.72601165  0.91960583  1
  N  N420  1  0.04794836  0.27216002  0.09175825  1
  N  N421  1  0.07299980  0.61113500  0.09541597  1
  N  N422  1  0.06776422  0.94740523  0.11323873  1
  N  N423  1  0.54915751  0.27423394  0.09175559  1
  N  N424  1  0.57756734  0.61561238  0.09709589  1
  N  N425  1  0.55596905  0.93736230  0.08427826  1
  N  N426  1  0.40138555  0.05976491  0.58359066  1
  N  N427  1  0.44697019  0.38966775  0.58258339  1
  N  N428  1  0.44391674  0.72536882  0.59238850  1
  N  N429  1  0.92284165  0.05168666  0.59899567  1
  N  N430  1  0.92617644  0.38365480  0.61074081  1
  N  N431  1  0.94346792  0.72277874  0.59000279  1
  N  N432  1  0.22462676  0.10068214  0.43804688  1
  N  N433  1  0.17946960  0.44393862  0.39687254  1
  N  N434  1  0.17963061  0.77893844  0.39704697  1
  N  N435  1  0.70119142  0.10863142  0.41063478  1
  N  N436  1  0.68798139  0.44575343  0.41071671  1
  N  N437  1  0.67996839  0.77776547  0.39665191  1
  N  N438  1  0.33013677  0.22287232  0.89179932  1
  N  N439  1  0.29863472  0.55477034  0.91672710  1
  N  N440  1  0.30940998  0.88829018  0.90060668  1
  N  N441  1  0.82285078  0.22173573  0.90381798  1
  N  N442  1  0.80771147  0.56307641  0.90564563  1
  N  N443  1  0.80970322  0.88142009  0.90496747  1
  N  N444  1  0.29969110  0.10735186  0.08567577  1
  N  N445  1  0.32999533  0.44342485  0.09874796  1
  N  N446  1  0.33620129  0.77983993  0.10378090  1
  N  N447  1  0.81648125  0.11192277  0.09707138  1
  N  N448  1  0.82061800  0.45338500  0.09534041  1
  N  N449  1  0.82893072  0.77567487  0.09776460  1
  N  N450  1  0.17196941  0.21707816  0.60069041  1
  N  N451  1  0.20169910  0.55989812  0.58348829  1
  N  N452  1  0.18152753  0.88600190  0.61252542  1
  N  N453  1  0.68105140  0.22186041  0.59271017  1
  N  N454  1  0.69660357  0.55491316  0.59379607  1
  N  N455  1  0.69525089  0.89059589  0.57959277  1
  Cl  Cl456  1  0.22720483  0.05689704  0.62592281  1
  Cl  Cl457  1  0.25715733  0.39679167  0.59391302  1
  Cl  Cl458  1  0.25463935  0.72037193  0.61882005  1
  Cl  Cl459  1  0.73591490  0.05209179  0.62081540  1
  Cl  Cl460  1  0.74643106  0.38508092  0.64060850  1
  Cl  Cl461  1  0.75496700  0.71848631  0.61772623  1
  Cl  Cl462  1  0.23423502  0.27354604  0.10088025  1
  Cl  Cl463  1  0.25925644  0.60283258  0.10695072  1
  Cl  Cl464  1  0.24795491  0.95285041  0.13105047  1
  Cl  Cl465  1  0.73212312  0.26943564  0.10788452  1
  Cl  Cl466  1  0.76229703  0.61323521  0.11670171  1
  Cl  Cl467  1  0.75432132  0.93643819  0.09809418  1
  Cl  Cl468  1  0.26008703  0.06215945  0.89919336  1
  Cl  Cl469  1  0.24158613  0.38707110  0.86815967  1
  Cl  Cl470  1  0.23052323  0.72282950  0.88561060  1
  Cl  Cl471  1  0.75642824  0.05374026  0.88490444  1
  Cl  Cl472  1  0.74001319  0.39587724  0.90670209  1
  Cl  Cl473  1  0.73089217  0.72418186  0.88355811  1
  Cl  Cl474  1  0.25448131  0.27963469  0.37278512  1
  Cl  Cl475  1  0.23740145  0.60520729  0.39203889  1
  Cl  Cl476  1  0.25677499  0.94059554  0.39892968  1
  Cl  Cl477  1  0.75970849  0.27816528  0.37912005  1
  Cl  Cl478  1  0.73564865  0.60666708  0.38006639  1
  Cl  Cl479  1  0.75224698  0.93573373  0.38611384  1
  Cl  Cl480  1  -0.00952844  0.21299839  0.62799017  1
  Cl  Cl481  1  0.01600666  0.56029451  0.60987806  1
  Cl  Cl482  1  -0.00254742  0.87819677  0.63300357  1
  Cl  Cl483  1  0.48760384  0.22044363  0.60956749  1
  Cl  Cl484  1  0.51037767  0.55567794  0.62238096  1
  Cl  Cl485  1  0.49737159  0.90193609  0.59883727  1
  Cl  Cl486  1  -0.00424693  0.10965735  0.12944104  1
  Cl  Cl487  1  0.00860345  0.44024665  0.10183092  1
  Cl  Cl488  1  0.02198858  0.77799193  0.11679730  1
  Cl  Cl489  1  0.48899893  0.10462870  0.09773769  1
  Cl  Cl490  1  0.51315908  0.43817148  0.11421077  1
  Cl  Cl491  1  0.52006499  0.77363270  0.12197776  1
  Cl  Cl492  1  0.01576110  0.22445543  0.89649105  1
  Cl  Cl493  1  -0.00835577  0.55137697  0.87722164  1
  Cl  Cl494  1  -0.00706469  0.89941983  0.90047178  1
  Cl  Cl495  1  0.51319950  0.22246353  0.87944040  1
  Cl  Cl496  1  0.48498300  0.55748110  0.89183302  1
  Cl  Cl497  1  0.49696268  0.89004565  0.87073006  1
  Cl  Cl498  1  0.02663567  0.10795426  0.39560813  1
  Cl  Cl499  1  -0.00046939  0.44046412  0.37367873  1
  Cl  Cl500  1  -0.00727837  0.77475677  0.38306971  1
  Cl  Cl501  1  0.52276016  0.10974432  0.37094513  1
  Cl  Cl502  1  0.49208463  0.43951470  0.39705058  1
  Cl  Cl503  1  0.49333439  0.77316705  0.38707783  1
  Cl  Cl504  1  0.36133403  0.14792232  0.75319686  1
  Cl  Cl505  1  0.35627964  0.47965258  0.74285731  1
  Cl  Cl506  1  0.35610015  0.81631339  0.75131881  1
  Cl  Cl507  1  0.86026642  0.14381503  0.76025841  1
  Cl  Cl508  1  0.86523541  0.47774879  0.75371447  1
  Cl  Cl509  1  0.86083939  0.81271983  0.75129044  1
  Cl  Cl510  1  0.14283365  0.17959348  0.25138583  1
  Cl  Cl511  1  0.14533172  0.51494562  0.24066545  1
  Cl  Cl512  1  0.15035874  0.84919820  0.25246588  1
  Cl  Cl513  1  0.65006482  0.18056930  0.24698838  1
  Cl  Cl514  1  0.64105715  0.51491470  0.24410009  1
  Cl  Cl515  1  0.64212939  0.84918112  0.25563989  1
  Cl  Cl516  1  0.13916098  0.15091230  0.75643227  1
  Cl  Cl517  1  0.13633750  0.48092058  0.75296542  1
  Cl  Cl518  1  0.13602208  0.81697311  0.74937634  1
  Cl  Cl519  1  0.64147056  0.15105565  0.75645954  1
  Cl  Cl520  1  0.64352417  0.48856061  0.75116676  1
  Cl  Cl521  1  0.63821932  0.81807668  0.74498046  1
  Cl  Cl522  1  0.36413246  0.18500564  0.25018989  1
  Cl  Cl523  1  0.36886362  0.51954502  0.24782497  1
  Cl  Cl524  1  0.37005643  0.85829346  0.24623648  1
  Cl  Cl525  1  0.87031573  0.18892797  0.24153516  1
  Cl  Cl526  1  0.86494896  0.52040728  0.26038085  1
  Cl  Cl527  1  0.86681079  0.85068853  0.23412113  1
  Cl  Cl528  1  0.10524758  0.31551266  0.74828980  1
  Cl  Cl529  1  0.10632733  0.65004042  0.75518143  1
  Cl  Cl530  1  0.10609568  0.98263704  0.75035216  1
  Cl  Cl531  1  0.60667587  0.31926701  0.75283076  1
  Cl  Cl532  1  0.59717017  0.65364979  0.75567656  1
  Cl  Cl533  1  0.60091587  0.98401245  0.75057432  1
  Cl  Cl534  1  0.39248354  0.02180150  0.24668951  1
  Cl  Cl535  1  0.38336050  0.35546378  0.24132746  1
  Cl  Cl536  1  0.38005759  0.68905940  0.25356348  1
  Cl  Cl537  1  0.88446539  0.01980615  0.26080349  1
  Cl  Cl538  1  0.88440189  0.35784042  0.23780024  1
  Cl  Cl539  1  0.89542447  0.68251448  0.24422188  1
  Cl  Cl540  1  0.38660324  0.31474250  0.75726706  1
  Cl  Cl541  1  0.38037884  0.64502576  0.74833087  1
  Cl  Cl542  1  0.38398561  0.98432869  0.74382173  1
  Cl  Cl543  1  0.88088475  0.31233933  0.75571664  1
  Cl  Cl544  1  0.88455611  0.64769538  0.74935240  1
  Cl  Cl545  1  0.88401072  0.97964588  0.75242840  1
  Cl  Cl546  1  0.10528305  0.01177701  0.25387725  1
  Cl  Cl547  1  0.10730078  0.34686956  0.25278510  1
  Cl  Cl548  1  0.11500041  0.68264511  0.25529051  1
  Cl  Cl549  1  0.61758856  0.01773088  0.23694161  1
  Cl  Cl550  1  0.60456088  0.34485702  0.24744784  1
  Cl  Cl551  1  0.60467693  0.67929839  0.25687887  1
