# generated using pymatgen
data_H8PbC4(N3Cl2)2
_symmetry_space_group_name_H-M   'P 1'
_cell_length_a   16.62279776
_cell_length_b   22.50523627
_cell_length_c   21.58753137
_cell_angle_alpha   89.99893449
_cell_angle_beta   89.99489463
_cell_angle_gamma   90.00235613
_symmetry_Int_Tables_number   1
_chemical_formula_structural   H8PbC4(N3Cl2)2
_chemical_formula_sum   'H192 Pb24 C96 N144 Cl96'
_cell_volume   8075.89525271
_cell_formula_units_Z   24
loop_
 _symmetry_equiv_pos_site_id
 _symmetry_equiv_pos_as_xyz
  1  'x, y, z'
loop_
 _atom_site_type_symbol
 _atom_site_label
 _atom_site_symmetry_multiplicity
 _atom_site_fract_x
 _atom_site_fract_y
 _atom_site_fract_z
 _atom_site_occupancy
  H  H0  1  -0.00162616  0.03409395  0.68146976  1
  H  H1  1  0.00654890  0.36462435  0.67686729  1
  H  H2  1  -0.00201151  0.69887575  0.67858602  1
  H  H3  1  0.50672691  0.03314114  0.68064009  1
  H  H4  1  0.49518209  0.35498447  0.67625205  1
  H  H5  1  0.49012080  0.69763914  0.67985799  1
  H  H6  1  -0.00380126  0.30316915  0.18150314  1
  H  H7  1  -0.00142080  0.63575969  0.17950740  1
  H  H8  1  -0.00439476  0.96952715  0.17721521  1
  H  H9  1  0.50685276  0.30196396  0.17988301  1
  H  H10  1  0.49157903  0.63457408  0.17785362  1
  H  H11  1  0.49938138  0.97005116  0.17995316  1
  H  H12  1  -0.00732188  0.03054029  0.82245774  1
  H  H13  1  0.00260735  0.36483963  0.81811347  1
  H  H14  1  0.00197128  0.69717473  0.82082711  1
  H  H15  1  0.50470453  0.03259339  0.82456339  1
  H  H16  1  0.50073919  0.36366119  0.82171338  1
  H  H17  1  0.49272285  0.69765339  0.81722626  1
  H  H18  1  -0.00722365  0.30394719  0.32148518  1
  H  H19  1  -0.01205027  0.63732074  0.32004869  1
  H  H20  1  0.01245091  0.96605488  0.32085614  1
  H  H21  1  0.50818792  0.29969263  0.32164609  1
  H  H22  1  0.51272881  0.63561624  0.32148777  1
  H  H23  1  0.48746568  0.96814087  0.32039768  1
  H  H24  1  0.23821450  0.19798822  0.67434092  1
  H  H25  1  0.25284216  0.53064521  0.68149784  1
  H  H26  1  0.24994523  0.86399326  0.68125248  1
  H  H27  1  0.75437932  0.19784742  0.68134498  1
  H  H28  1  0.75242347  0.53269577  0.68289565  1
  H  H29  1  0.74774179  0.86439782  0.67473225  1
  H  H30  1  0.25813921  0.13404661  0.17493895  1
  H  H31  1  0.25216038  0.46965936  0.17923891  1
  H  H32  1  0.25964635  0.80136386  0.17674969  1
  H  H33  1  0.74939058  0.13564258  0.17744481  1
  H  H34  1  0.75246434  0.46978750  0.17930922  1
  H  H35  1  0.74192954  0.80152975  0.18220552  1
  H  H36  1  0.23947010  0.19709528  0.82180322  1
  H  H37  1  0.26057703  0.53257793  0.82243646  1
  H  H38  1  0.25927265  0.86583257  0.82299977  1
  H  H39  1  0.75944930  0.19515000  0.82232132  1
  H  H40  1  0.74524215  0.53167068  0.82074101  1
  H  H41  1  0.74588305  0.86799891  0.82376668  1
  H  H42  1  0.24241183  0.13618723  0.32144886  1
  H  H43  1  0.26182637  0.46869217  0.32157412  1
  H  H44  1  0.25300678  0.80161104  0.32075467  1
  H  H45  1  0.75637093  0.13553860  0.32058235  1
  H  H46  1  0.73842718  0.46605380  0.32170071  1
  H  H47  1  0.75933985  0.80077796  0.32363143  1
  H  H48  1  0.12999513  0.05334675  0.61753756  1
  H  H49  1  0.11622226  0.39081154  0.59396071  1
  H  H50  1  0.12720370  0.71942020  0.61558232  1
  H  H51  1  0.62430298  0.05580531  0.60242887  1
  H  H52  1  0.62235185  0.38609677  0.61250287  1
  H  H53  1  0.62852013  0.71672173  0.62369418  1
  H  H54  1  0.37309640  0.27895288  0.11693713  1
  H  H55  1  0.38096529  0.60898586  0.09675914  1
  H  H56  1  0.38187477  0.94658979  0.10357258  1
  H  H57  1  0.87214595  0.27852588  0.11165328  1
  H  H58  1  0.87783517  0.61163689  0.10531266  1
  H  H59  1  0.88210693  0.94406213  0.09693853  1
  H  H60  1  0.37794703  0.05326330  0.89089395  1
  H  H61  1  0.37832810  0.39063683  0.89322667  1
  H  H62  1  0.38054007  0.72039674  0.89809217  1
  H  H63  1  0.88268057  0.05692159  0.90458308  1
  H  H64  1  0.87872636  0.38664439  0.89094306  1
  H  H65  1  0.88066664  0.72320407  0.89271684  1
  H  H66  1  0.12623917  0.28159575  0.38330834  1
  H  H67  1  0.12435380  0.61551482  0.37616584  1
  H  H68  1  0.11254131  0.94326860  0.40794859  1
  H  H69  1  0.61679888  0.27459422  0.40553720  1
  H  H70  1  0.61699469  0.60799350  0.40710999  1
  H  H71  1  0.62725130  0.94774442  0.37473593  1
  H  H72  1  0.37551615  0.21852205  0.61791940  1
  H  H73  1  0.37635820  0.55580614  0.61081137  1
  H  H74  1  0.37461809  0.88744033  0.61209580  1
  H  H75  1  0.87130516  0.22226662  0.60447971  1
  H  H76  1  0.87629469  0.55566759  0.61257472  1
  H  H77  1  0.87677030  0.88543101  0.60858353  1
  H  H78  1  0.12200218  0.11363415  0.11691444  1
  H  H79  1  0.12735395  0.44818411  0.10866332  1
  H  H80  1  0.11950120  0.78349629  0.12457209  1
  H  H81  1  0.62375591  0.11279385  0.10673730  1
  H  H82  1  0.62092785  0.44785766  0.11575699  1
  H  H83  1  0.62327803  0.77960776  0.10824215  1
  H  H84  1  0.13274511  0.22701324  0.90428026  1
  H  H85  1  0.12333441  0.55010897  0.87712730  1
  H  H86  1  0.11890479  0.88424591  0.87511906  1
  H  H87  1  0.62418062  0.21624485  0.88125015  1
  H  H88  1  0.62060829  0.55440237  0.89257986  1
  H  H89  1  0.62267945  0.88907811  0.89368195  1
  H  H90  1  0.37443278  0.11420052  0.38355992  1
  H  H91  1  0.37148872  0.44028894  0.40351795  1
  H  H92  1  0.36223372  0.77311901  0.40246438  1
  H  H93  1  0.87022965  0.10906985  0.40090628  1
  H  H94  1  0.87901102  0.44911147  0.37608166  1
  H  H95  1  0.86689056  0.77593539  0.40610010  1
  H  H96  1  0.37099259  0.28082742  0.37817911  1
  H  H97  1  0.37240534  0.61491271  0.37263006  1
  H  H98  1  0.38132238  0.94312274  0.40395713  1
  H  H99  1  0.87879464  0.27594544  0.40092762  1
  H  H100  1  0.87759126  0.61081004  0.40241711  1
  H  H101  1  0.86943611  0.94982103  0.36854735  1
  H  H102  1  0.12919152  0.05170325  0.87931085  1
  H  H103  1  0.12729691  0.39022267  0.88667230  1
  H  H104  1  0.13020158  0.71994470  0.88886688  1
  H  H105  1  0.62709017  0.05330471  0.89522001  1
  H  H106  1  0.62687438  0.38596233  0.88987982  1
  H  H107  1  0.62822247  0.71922820  0.87823792  1
  H  H108  1  0.12187180  0.27662546  0.11188202  1
  H  H109  1  0.12744388  0.61313784  0.11365030  1
  H  H110  1  0.12970473  0.94674450  0.11480674  1
  H  H111  1  0.61993212  0.27491730  0.09884497  1
  H  H112  1  0.62798267  0.61497489  0.11900032  1
  H  H113  1  0.63114624  0.94920801  0.11308553  1
  H  H114  1  0.37591181  0.05421833  0.61636970  1
  H  H115  1  0.37384858  0.38793186  0.60668988  1
  H  H116  1  0.38317213  0.72678228  0.59493940  1
  H  H117  1  0.88094118  0.05326195  0.60603747  1
  H  H118  1  0.86995554  0.38568101  0.62040769  1
  H  H119  1  0.87875206  0.72202218  0.60407363  1
  H  H120  1  0.12661036  0.11016543  0.40012589  1
  H  H121  1  0.12498415  0.44807741  0.37803703  1
  H  H122  1  0.11500724  0.78191141  0.37774348  1
  H  H123  1  0.62265998  0.11551174  0.38305183  1
  H  H124  1  0.63304614  0.43967604  0.40582851  1
  H  H125  1  0.62141950  0.78342749  0.37713397  1
  H  H126  1  0.37817285  0.21332607  0.87833255  1
  H  H127  1  0.36893978  0.55694795  0.90319390  1
  H  H128  1  0.36404303  0.89469921  0.90695090  1
  H  H129  1  0.87145769  0.22384690  0.90218583  1
  H  H130  1  0.86928656  0.55429289  0.89200491  1
  H  H131  1  0.87149020  0.88625236  0.89157419  1
  H  H132  1  0.36910949  0.10708373  0.09521473  1
  H  H133  1  0.37717466  0.44694841  0.10904271  1
  H  H134  1  0.36442964  0.77222853  0.09264273  1
  H  H135  1  0.87287032  0.11049928  0.10737947  1
  H  H136  1  0.87007364  0.44513292  0.10347894  1
  H  H137  1  0.87223783  0.78302818  0.11674750  1
  H  H138  1  0.12941037  0.22581799  0.59340039  1
  H  H139  1  0.12757129  0.55467708  0.61064836  1
  H  H140  1  0.12464870  0.88845978  0.61084362  1
  H  H141  1  0.62250968  0.21982510  0.61661055  1
  H  H142  1  0.62638654  0.55519107  0.61192742  1
  H  H143  1  0.62832123  0.88989753  0.60139878  1
  H  H144  1  0.09405408  0.74915918  0.50179515  1
  H  H145  1  0.29064110  0.74807135  0.50400819  1
  H  H146  1  0.28864937  0.92107424  1.00659427  1
  H  H147  1  0.80096665  0.08158951  0.50197329  1
  H  H148  1  0.44755002  0.74742815  1.00400980  1
  H  H149  1  0.35230494  0.24827516  0.50839659  1
  H  H150  1  0.29961256  0.41568626  0.50487717  1
  H  H151  1  0.45327059  0.91859166  0.50996382  1
  H  H152  1  0.67024691  0.58340742  0.99607943  1
  H  H153  1  0.84111923  0.91643921  0.50134881  1
  H  H154  1  0.80194804  0.24808226  1.00519968  1
  H  H155  1  0.81413350  0.41513309  -0.00397498  1
  H  H156  1  0.28875612  0.74387468  -0.00617840  1
  H  H157  1  0.53874955  0.58547444  0.50687933  1
  H  H158  1  0.70562490  0.41478174  0.51077444  1
  H  H159  1  0.03520633  0.91698894  0.51145657  1
  H  H160  1  0.67596384  0.58755900  0.50805062  1
  H  H161  1  0.20855787  0.23933793  1.00552467  1
  H  H162  1  0.10075096  0.58409716  0.48853474  1
  H  H163  1  0.33044229  0.42452622  0.00261297  1
  H  H164  1  0.17129973  0.42092910  -0.00138521  1
  H  H165  1  0.09389129  0.58247937  0.00288847  1
  H  H166  1  0.46017452  0.74828198  0.49458669  1
  H  H167  1  0.67533547  0.75330412  -0.00216799  1
  H  H168  1  0.60720826  0.92146506  0.48345758  1
  H  H169  1  0.17381424  0.91601885  0.50542327  1
  H  H170  1  0.64042952  0.75448312  0.49235370  1
  H  H171  1  0.56675251  0.39895423  0.50470317  1
  H  H172  1  0.92968493  0.75520360  1.00065573  1
  H  H173  1  0.93150634  0.58017997  0.00306434  1
  H  H174  1  0.94810651  0.24993208  0.50302190  1
  H  H175  1  0.09654616  0.91949694  0.00678816  1
  H  H176  1  0.92052956  0.25195709  0.00020316  1
  H  H177  1  0.09136468  0.74801854  0.99494233  1
  H  H178  1  0.80931143  0.24930233  0.49675599  1
  H  H179  1  0.32777138  0.91652531  0.50097179  1
  H  H180  1  0.65545661  0.41906305  0.00896222  1
  H  H181  1  0.41185714  0.08319221  0.50514259  1
  H  H182  1  0.82854584  0.58099371  0.50076420  1
  H  H183  1  0.93673202  0.08006142  0.49500154  1
  H  H184  1  0.43743906  0.40454777  0.50145248  1
  H  H185  1  0.32973318  0.58285038  0.50134730  1
  H  H186  1  0.14779053  0.08417184  0.00747987  1
  H  H187  1  0.86066066  0.42009782  0.48643693  1
  H  H188  1  0.07223028  0.25995346  0.00357351  1
  H  H189  1  0.35513941  0.24970132  0.98378269  1
  H  H190  1  0.94779937  0.59254194  0.50509767  1
  H  H191  1  0.44249782  0.92133929  -0.00505490  1
  Pb  Pb192  1  0.25088270  0.04685674  0.75389772  1
  Pb  Pb193  1  0.25067679  0.37988997  0.74723180  1
  Pb  Pb194  1  0.25317028  0.71704506  0.74784002  1
  Pb  Pb195  1  0.75157948  0.04590555  0.74680674  1
  Pb  Pb196  1  0.74455636  0.38069852  0.75279995  1
  Pb  Pb197  1  0.75245610  0.71325770  0.75074136  1
  Pb  Pb198  1  0.24899548  0.28431729  0.24648628  1
  Pb  Pb199  1  0.24935000  0.62083020  0.24652520  1
  Pb  Pb200  1  0.25428658  0.95083524  0.25794698  1
  Pb  Pb201  1  0.75386773  0.28409897  0.25164748  1
  Pb  Pb202  1  0.75399983  0.61761662  0.25623467  1
  Pb  Pb203  1  0.74698476  0.95363010  0.24736075  1
  Pb  Pb204  1  -0.00415393  0.21635707  0.75113251  1
  Pb  Pb205  1  -0.00052236  0.54573239  0.74846724  1
  Pb  Pb206  1  -0.00257907  0.88070690  0.74859883  1
  Pb  Pb207  1  0.50002892  0.21070054  0.74880413  1
  Pb  Pb208  1  0.49856418  0.54774652  0.74925766  1
  Pb  Pb209  1  0.50438672  0.88218610  0.75215667  1
  Pb  Pb210  1  0.00043531  0.11506927  0.25467323  1
  Pb  Pb211  1  0.00313353  0.45285422  0.24422343  1
  Pb  Pb212  1  -0.00275209  0.78793275  0.25276359  1
  Pb  Pb213  1  0.49924688  0.12147109  0.24789776  1
  Pb  Pb214  1  0.50163886  0.45137367  0.25932381  1
  Pb  Pb215  1  0.50014463  0.78237137  0.24746139  1
  C  C216  1  0.00284953  0.04742087  0.63339795  1
  C  C217  1  -0.00227049  0.38015762  0.62995179  1
  C  C218  1  0.00201467  0.71382086  0.63101933  1
  C  C219  1  0.50238866  0.04798650  0.63297658  1
  C  C220  1  0.49718921  0.37500155  0.63042676  1
  C  C221  1  0.50028075  0.71307644  0.63297966  1
  C  C222  1  -0.00251627  0.28758311  0.13381951  1
  C  C223  1  0.00093489  0.61998110  0.13192441  1
  C  C224  1  0.00298349  0.95386403  0.13002847  1
  C  C225  1  0.49996190  0.28684237  0.13237566  1
  C  C226  1  0.50058118  0.61983012  0.13072717  1
  C  C227  1  0.50438013  0.95514889  0.13230763  1
  C  C228  1  0.00147827  0.04645789  0.86925478  1
  C  C229  1  0.00253754  0.38020158  0.86547626  1
  C  C230  1  0.00486258  0.71307572  0.86837432  1
  C  C231  1  0.50322310  0.04679817  0.87270716  1
  C  C232  1  0.50181149  0.37986656  0.86874327  1
  C  C233  1  0.50085368  0.71224872  0.86475467  1
  C  C234  1  -0.00109026  0.28784035  0.36862650  1
  C  C235  1  -0.00378931  0.62220819  0.36756790  1
  C  C236  1  -0.00196269  0.95293356  0.36796032  1
  C  C237  1  0.49888963  0.28533966  0.36896022  1
  C  C238  1  0.50095172  0.62043245  0.36831455  1
  C  C239  1  0.49917861  0.95286904  0.36736196  1
  C  C240  1  0.24818439  0.21360187  0.62740425  1
  C  C241  1  0.25213655  0.54647785  0.63405893  1
  C  C242  1  0.24921129  0.88000909  0.63372329  1
  C  C243  1  0.74922915  0.21304798  0.63384961  1
  C  C244  1  0.75112470  0.54749993  0.63494316  1
  C  C245  1  0.75139382  0.87976893  0.62718530  1
  C  C246  1  0.24922422  0.11843820  0.12789980  1
  C  C247  1  0.25253282  0.45443254  0.13142938  1
  C  C248  1  0.24802328  0.78647825  0.12974536  1
  C  C249  1  0.74846483  0.11981621  0.13019516  1
  C  C250  1  0.74746164  0.45382153  0.13190101  1
  C  C251  1  0.74542816  0.78820313  0.13406878  1
  C  C252  1  0.25031993  0.21216865  0.86900750  1
  C  C253  1  0.25054003  0.54678323  0.86977760  1
  C  C254  1  0.24757807  0.88072841  0.87000766  1
  C  C255  1  0.75217629  0.21068216  0.86943571  1
  C  C256  1  0.74475412  0.54675659  0.86846327  1
  C  C257  1  0.74664067  0.88137945  0.87218587  1
  C  C258  1  0.24752075  0.12020261  0.36850156  1
  C  C259  1  0.25310573  0.45359925  0.36867859  1
  C  C260  1  0.24360844  0.78699832  0.36809499  1
  C  C261  1  0.75014203  0.12042687  0.36806514  1
  C  C262  1  0.75077930  0.45170236  0.36891907  1
  C  C263  1  0.74823419  0.78669667  0.37083130  1
  C  C264  1  0.44310477  0.26098987  0.45722458  1
  C  C265  1  0.21163969  0.42936599  0.03787895  1
  C  C266  1  0.78496358  0.08879059  0.03869266  1
  C  C267  1  0.05318895  0.07122807  0.54228325  1
  C  C268  1  0.47916942  0.58991371  0.03564623  1
  C  C269  1  0.47864223  0.73791920  0.96067643  1
  C  C270  1  0.29624455  0.09193547  0.45813629  1
  C  C271  1  0.78849456  0.90405698  0.96453758  1
  C  C272  1  0.94317056  0.40653647  0.54189688  1
  C  C273  1  0.69478646  0.24027184  0.95722181  1
  C  C274  1  0.05626747  0.07353477  0.95703092  1
  C  C275  1  0.54046198  0.07290103  0.96512799  1
  C  C276  1  0.77612841  0.23957897  0.53901685  1
  C  C277  1  0.04938452  0.73989358  0.53844679  1
  C  C278  1  0.95707169  0.26013514  0.04112078  1
  C  C279  1  0.18311417  0.90729781  0.95539006  1
  C  C280  1  0.96837747  0.74244310  0.96164124  1
  C  C281  1  0.04823564  0.59267187  0.04055363  1
  C  C282  1  0.71610251  0.90907906  0.53248240  1
  C  C283  1  0.28879962  0.57307957  0.54081592  1
  C  C284  1  0.71283757  0.76328297  0.03769594  1
  C  C285  1  0.05452534  0.59416936  0.45431984  1
  C  C286  1  0.47604443  0.92978561  0.03738574  1
  C  C287  1  0.04188231  0.40892340  0.95770555  1
  C  C288  1  0.27100055  0.57419190  0.96559015  1
  C  C289  1  0.45657941  0.07338031  0.54197057  1
  C  C290  1  0.54276970  0.40866831  0.96061591  1
  C  C291  1  0.96801265  0.74099418  0.53653431  1
  C  C292  1  0.97201949  0.07121262  0.53640656  1
  C  C293  1  0.79166948  0.57110241  0.54105604  1
  C  C294  1  0.48063545  0.92687707  0.46497215  1
  C  C295  1  0.76934858  0.75999635  0.46783170  1
  C  C296  1  0.70825218  0.90493058  0.96514142  1
  C  C297  1  0.73316630  0.42514476  0.46628780  1
  C  C298  1  0.18352479  0.75979936  0.45532144  1
  C  C299  1  0.79416820  0.76502685  0.04203473  1
  C  C300  1  0.92855174  0.93043173  0.45193927  1
  C  C301  1  0.19322281  0.42449083  0.45570514  1
  C  C302  1  0.19107794  0.57156380  0.95705696  1
  C  C303  1  0.27406041  0.08790704  0.03176997  1
  C  C304  1  0.77910968  0.42600195  0.03703952  1
  C  C305  1  0.00781718  0.92787887  0.46712962  1
  C  C306  1  0.18328513  0.76006058  0.04427891  1
  C  C307  1  0.68868682  0.76273451  0.45925247  1
  C  C308  1  0.46019613  0.07307484  0.96369393  1
  C  C309  1  0.22563299  0.24453402  0.53103479  1
  C  C310  1  0.43522457  0.59243787  0.45325454  1
  C  C311  1  0.29052523  0.90758017  0.54123874  1
  N  N312  1  0.81136554  0.42786052  0.45496372  1
  N  N313  1  0.55503824  0.92934615  0.04106234  1
  N  N314  1  0.21897621  0.09018277  0.46451294  1
  N  N315  1  0.55638286  0.59228866  0.04134288  1
  N  N316  1  0.70850648  0.57218172  0.96027964  1
  N  N317  1  0.55739598  0.73848708  0.95390859  1
  N  N318  1  0.52496134  0.25884367  0.03641788  1
  N  N319  1  0.26121085  0.75651268  0.03444329  1
  N  N320  1  0.05377413  0.25999325  0.45703273  1
  N  N321  1  0.03679944  0.25883016  0.04232581  1
  N  N322  1  0.04801314  0.74043363  0.95939522  1
  N  N323  1  0.26176560  0.75715158  0.46282810  1
  N  N324  1  0.30954336  0.23338376  0.95548156  1
  N  N325  1  0.46471038  0.41047222  0.96290528  1
  N  N326  1  0.77256523  0.09226993  0.46144369  1
  N  N327  1  0.97612121  0.25779575  0.46145159  1
  N  N328  1  0.79515855  0.90691823  0.53615848  1
  N  N329  1  0.51320315  0.59069058  0.46368251  1
  N  N330  1  0.30365336  0.24095401  0.54026204  1
  N  N331  1  0.46021327  0.41766039  0.54380572  1
  N  N332  1  0.51972040  0.25932259  0.46755113  1
  N  N333  1  0.78709527  0.57278200  0.96158858  1
  N  N334  1  0.54267908  0.41573590  0.54512698  1
  N  N335  1  0.21097803  0.90931276  0.54245010  1
  N  N336  1  0.96843326  0.59386154  0.03823026  1
  N  N337  1  0.96422419  0.40750239  0.96028438  1
  N  N338  1  0.48488762  0.74059899  0.53813230  1
  N  N339  1  0.77323662  0.24145008  0.96362332  1
  N  N340  1  0.26108106  0.91048538  0.96536148  1
  N  N341  1  0.97545947  0.59279082  0.46252754  1
  N  N342  1  0.05210050  0.92645266  0.04215192  1
  N  N343  1  0.29143886  0.42718154  0.03935372  1
  N  N344  1  0.71205093  0.56913207  0.54130216  1
  N  N345  1  0.69707332  0.23971857  0.54318269  1
  N  N346  1  0.19578224  0.09130579  0.04006852  1
  N  N347  1  0.44909397  0.26122086  0.04200426  1
  N  N348  1  0.27146250  0.42356556  0.46333204  1
  N  N349  1  0.97935781  0.07619629  0.96641430  1
  N  N350  1  0.69953350  0.42627894  0.04249454  1
  N  N351  1  0.55883570  0.92715152  0.45313465  1
  N  N352  1  0.69493229  0.09438766  0.45691748  1
  N  N353  1  0.53576408  0.07337330  0.53663568  1
  N  N354  1  0.56164367  0.73792041  0.54700652  1
  N  N355  1  0.20939338  0.57294028  0.54037530  1
  N  N356  1  0.23201954  0.24656580  0.96198362  1
  N  N357  1  0.97445005  0.92568106  0.03482467  1
  N  N358  1  0.70778122  0.08987119  0.03706104  1
  N  N359  1  0.01990285  0.40887672  0.53251735  1
  N  N360  1  0.07141616  0.05702692  0.60075532  1
  N  N361  1  0.05401949  0.39186547  0.58858295  1
  N  N362  1  0.06935060  0.72298800  0.59886931  1
  N  N363  1  0.56263407  0.05760234  0.59395687  1
  N  N364  1  0.56260998  0.38677046  0.59792560  1
  N  N365  1  0.57109743  0.72241323  0.60616109  1
  N  N366  1  0.43202552  0.27875236  0.10149694  1
  N  N367  1  0.44260612  0.60672083  0.08896428  1
  N  N368  1  0.44315359  0.94470566  0.09327995  1
  N  N369  1  0.93237546  0.27614531  0.09824295  1
  N  N370  1  0.93925149  0.61027664  0.09463380  1
  N  N371  1  0.94418247  0.94226741  0.08972119  1
  N  N372  1  0.43674785  0.05718875  0.90714433  1
  N  N373  1  0.43940433  0.39212834  0.90425626  1
  N  N374  1  0.44244434  0.72215382  0.90631485  1
  N  N375  1  0.94512668  0.05848873  0.91050265  1
  N  N376  1  0.93962543  0.38946174  0.90154308  1
  N  N377  1  0.94138740  0.72560704  0.90508015  1
  N  N378  1  0.06738780  0.27721448  0.39853324  1
  N  N379  1  0.06721607  0.61070293  0.39514470  1
  N  N380  1  0.05052364  0.94230513  0.41331660  1
  N  N381  1  0.55475346  0.27476356  0.41103804  1
  N  N382  1  0.55469448  0.61068360  0.41219344  1
  N  N383  1  0.56962746  0.94350404  0.39335800  1
  N  N384  1  0.31792018  0.22156557  0.59964153  1
  N  N385  1  0.31620093  0.55734027  0.59819372  1
  N  N386  1  0.31474141  0.89040877  0.59821835  1
  N  N387  1  0.80995631  0.22372483  0.59441973  1
  N  N388  1  0.81625974  0.55651445  0.59868973  1
  N  N389  1  0.81709669  0.88857619  0.59434538  1
  N  N390  1  0.18003564  0.10982374  0.09944657  1
  N  N391  1  0.18744083  0.44454310  0.09556050  1
  N  N392  1  0.17499398  0.77808856  0.10354367  1
  N  N393  1  0.68458938  0.10955773  0.09537587  1
  N  N394  1  0.68044793  0.44373090  0.10082891  1
  N  N395  1  0.68347284  0.77784030  0.09616024  1
  N  N396  1  0.19470454  0.22301411  0.91154048  1
  N  N397  1  0.17890431  0.55522975  0.89782056  1
  N  N398  1  0.17455895  0.88968427  0.89604844  1
  N  N399  1  0.68164128  0.22198449  0.89887787  1
  N  N400  1  0.68147776  0.55705950  0.90393798  1
  N  N401  1  0.68172216  0.89136454  0.90877972  1
  N  N402  1  0.31603498  0.10969407  0.39982432  1
  N  N403  1  0.30972161  0.44327515  0.41043030  1
  N  N404  1  0.29982299  0.77618557  0.40979163  1
  N  N405  1  0.80815062  0.10868969  0.40812270  1
  N  N406  1  0.82171095  0.44382093  0.39500869  1
  N  N407  1  0.80507917  0.77449607  0.41446612  1
  N  N408  1  0.42789164  0.27649408  0.39721122  1
  N  N409  1  0.42787890  0.60927927  0.39366289  1
  N  N410  1  0.44303111  0.94193325  0.41143006  1
  N  N411  1  0.94075294  0.27655439  0.40877449  1
  N  N412  1  0.93947209  0.61378671  0.40975009  1
  N  N413  1  0.92360636  0.94525585  0.39174231  1
  N  N414  1  0.07202350  0.05649535  0.89757957  1
  N  N415  1  0.06766242  0.39259016  0.90044876  1
  N  N416  1  0.07008014  0.72145195  0.90219233  1
  N  N417  1  0.56762577  0.05700138  0.90978612  1
  N  N418  1  0.56745179  0.39036892  0.90357337  1
  N  N419  1  0.56938482  0.72252732  0.89403598  1
  N  N420  1  0.06160681  0.27973940  0.09855610  1
  N  N421  1  0.06815510  0.60928447  0.09881593  1
  N  N422  1  0.07072073  0.94402745  0.09976506  1
  N  N423  1  0.55799858  0.27485594  0.09215586  1
  N  N424  1  0.56968264  0.61120827  0.10210704  1
  N  N425  1  0.57103552  0.94545525  0.10011226  1
  N  N426  1  0.43487268  0.05807889  0.60088146  1
  N  N427  1  0.43480381  0.38867110  0.59514055  1
  N  N428  1  0.44575951  0.72347637  0.58954912  1
  N  N429  1  0.94155584  0.05631397  0.59453451  1
  N  N430  1  0.92689373  0.38981133  0.60160350  1
  N  N431  1  0.93955485  0.72536931  0.59218699  1
  N  N432  1  0.18840130  0.10821492  0.40738171  1
  N  N433  1  0.18172816  0.44271996  0.39708017  1
  N  N434  1  0.17201938  0.77749866  0.39628285  1
  N  N435  1  0.68146624  0.11129569  0.39834936  1
  N  N436  1  0.69490818  0.43990108  0.41293332  1
  N  N437  1  0.67686348  0.77920204  0.39794479  1
  N  N438  1  0.32089874  0.22153070  0.89550923  1
  N  N439  1  0.30753693  0.55911160  0.91243674  1
  N  N440  1  0.30159214  0.89233802  0.91307149  1
  N  N441  1  0.80997831  0.22111302  0.91014552  1
  N  N442  1  0.80862547  0.55651891  0.90415775  1
  N  N443  1  0.81258248  0.88994855  0.90773126  1
  N  N444  1  0.30758153  0.10487408  0.08606468  1
  N  N445  1  0.31641361  0.44466299  0.09648736  1
  N  N446  1  0.30202869  0.77420862  0.08682911  1
  N  N447  1  0.81295671  0.10712091  0.09457855  1
  N  N448  1  0.80907768  0.44237904  0.09280749  1
  N  N449  1  0.81342219  0.77978088  0.10038655  1
  N  N450  1  0.19078126  0.22760052  0.58487910  1
  N  N451  1  0.18820213  0.55615609  0.59891070  1
  N  N452  1  0.18549894  0.89076237  0.59894417  1
  N  N453  1  0.68220452  0.22305678  0.60226242  1
  N  N454  1  0.68722967  0.55676115  0.59996068  1
  N  N455  1  0.68875732  0.89232023  0.58911136  1
  Cl  Cl456  1  0.25313091  0.04940730  0.62395615  1
  Cl  Cl457  1  0.25050614  0.38976636  0.60500595  1
  Cl  Cl458  1  0.26545263  0.72861239  0.60521580  1
  Cl  Cl459  1  0.75429386  0.05379085  0.60850359  1
  Cl  Cl460  1  0.74354343  0.38949698  0.61688390  1
  Cl  Cl461  1  0.75542591  0.71566254  0.61748090  1
  Cl  Cl462  1  0.24492731  0.27029032  0.10541974  1
  Cl  Cl463  1  0.25474631  0.61581190  0.11438621  1
  Cl  Cl464  1  0.25702769  0.94389464  0.10970922  1
  Cl  Cl465  1  0.74842121  0.27546945  0.10795151  1
  Cl  Cl466  1  0.75484784  0.61068161  0.12233826  1
  Cl  Cl467  1  0.75934522  0.94814468  0.11624399  1
  Cl  Cl468  1  0.25264072  0.05290417  0.88830971  1
  Cl  Cl469  1  0.25376868  0.38988622  0.88483540  1
  Cl  Cl470  1  0.25763067  0.72345714  0.89164873  1
  Cl  Cl471  1  0.75774021  0.05295441  0.87830602  1
  Cl  Cl472  1  0.75217995  0.38587701  0.88836449  1
  Cl  Cl473  1  0.75659462  0.71928398  0.88279865  1
  Cl  Cl474  1  0.24813125  0.28282946  0.37912708  1
  Cl  Cl475  1  0.24848158  0.61715061  0.37939168  1
  Cl  Cl476  1  0.24747345  0.94055470  0.39434936  1
  Cl  Cl477  1  0.75539751  0.27752311  0.38742472  1
  Cl  Cl478  1  0.74539591  0.60627987  0.39979584  1
  Cl  Cl479  1  0.74627410  0.94583439  0.38308730  1
  Cl  Cl480  1  -0.00286947  0.22491494  0.61123245  1
  Cl  Cl481  1  -0.00067996  0.56048220  0.61026757  1
  Cl  Cl482  1  0.00146091  0.88676988  0.61322552  1
  Cl  Cl483  1  0.49817257  0.22201025  0.61878015  1
  Cl  Cl484  1  0.50453656  0.56179072  0.60571897  1
  Cl  Cl485  1  0.50106782  0.88808061  0.61418167  1
  Cl  Cl486  1  -0.00184548  0.11667721  0.12342538  1
  Cl  Cl487  1  -0.00118556  0.44879064  0.11339619  1
  Cl  Cl488  1  -0.00441828  0.77851039  0.11739830  1
  Cl  Cl489  1  0.49527995  0.11185110  0.11594596  1
  Cl  Cl490  1  0.49836136  0.45140607  0.12674506  1
  Cl  Cl491  1  0.48633840  0.77526447  0.11322703  1
  Cl  Cl492  1  0.00585309  0.22989669  0.89608321  1
  Cl  Cl493  1  -0.00870585  0.55549466  0.88384022  1
  Cl  Cl494  1  -0.00463712  0.88418328  0.87914037  1
  Cl  Cl495  1  0.50034536  0.21434752  0.87932173  1
  Cl  Cl496  1  0.49769371  0.55219449  0.88096802  1
  Cl  Cl497  1  0.48520641  0.89141704  0.88638807  1
  Cl  Cl498  1  -0.00548332  0.11113191  0.39111676  1
  Cl  Cl499  1  0.00106103  0.45192854  0.37600875  1
  Cl  Cl500  1  -0.01232316  0.77805496  0.38475626  1
  Cl  Cl501  1  0.49767269  0.11447594  0.38042277  1
  Cl  Cl502  1  0.50043797  0.43582787  0.40247621  1
  Cl  Cl503  1  0.48187477  0.77089637  0.39557358  1
  Cl  Cl504  1  0.36175119  0.14654328  0.75099671  1
  Cl  Cl505  1  0.36252064  0.48130762  0.74630904  1
  Cl  Cl506  1  0.35636549  0.81163863  0.74888914  1
  Cl  Cl507  1  0.86201091  0.14811209  0.74928696  1
  Cl  Cl508  1  0.85966871  0.47986405  0.75117180  1
  Cl  Cl509  1  0.86088541  0.81452033  0.74920082  1
  Cl  Cl510  1  0.13794617  0.18963950  0.24571604  1
  Cl  Cl511  1  0.13809826  0.52058658  0.25100510  1
  Cl  Cl512  1  0.13583554  0.85458127  0.24569418  1
  Cl  Cl513  1  0.63744887  0.18682292  0.25281938  1
  Cl  Cl514  1  0.63838235  0.51857381  0.25250572  1
  Cl  Cl515  1  0.63339821  0.85356235  0.25968388  1
  Cl  Cl516  1  0.14371460  0.14635678  0.75014183  1
  Cl  Cl517  1  0.13827159  0.47999117  0.75324170  1
  Cl  Cl518  1  0.14124018  0.80862193  0.75429783  1
  Cl  Cl519  1  0.63965431  0.14656911  0.74735837  1
  Cl  Cl520  1  0.63900575  0.47700584  0.74544975  1
  Cl  Cl521  1  0.63778135  0.81236161  0.74876931  1
  Cl  Cl522  1  0.35679991  0.18814679  0.24851136  1
  Cl  Cl523  1  0.35934984  0.52180652  0.25384253  1
  Cl  Cl524  1  0.35394469  0.85468188  0.25112290  1
  Cl  Cl525  1  0.85828882  0.19038941  0.24829769  1
  Cl  Cl526  1  0.85794235  0.52259218  0.25453998  1
  Cl  Cl527  1  0.85845727  0.85288773  0.25212155  1
  Cl  Cl528  1  0.11583509  0.31233283  0.74907594  1
  Cl  Cl529  1  0.11071880  0.64571634  0.74982200  1
  Cl  Cl530  1  0.11555360  0.97730796  0.75123445  1
  Cl  Cl531  1  0.61090855  0.31225357  0.74748043  1
  Cl  Cl532  1  0.61678773  0.64441934  0.74625522  1
  Cl  Cl533  1  0.60853208  0.97932581  0.74753700  1
  Cl  Cl534  1  0.38855550  0.01909797  0.25280344  1
  Cl  Cl535  1  0.38394104  0.35521466  0.25040507  1
  Cl  Cl536  1  0.38615965  0.68797222  0.25502928  1
  Cl  Cl537  1  0.88883667  0.02058852  0.25470347  1
  Cl  Cl538  1  0.88712327  0.35540311  0.24983353  1
  Cl  Cl539  1  0.89005372  0.68461763  0.24603394  1
  Cl  Cl540  1  0.38778795  0.31213837  0.74983962  1
  Cl  Cl541  1  0.39331839  0.64752869  0.74573660  1
  Cl  Cl542  1  0.38600069  0.97948835  0.74917422  1
  Cl  Cl543  1  0.89356670  0.31130912  0.74864977  1
  Cl  Cl544  1  0.88895754  0.64613214  0.74907506  1
  Cl  Cl545  1  0.89366212  0.98069735  0.74818290  1
  Cl  Cl546  1  0.10945496  0.02208377  0.24525883  1
  Cl  Cl547  1  0.10917767  0.35518298  0.24998021  1
  Cl  Cl548  1  0.11096486  0.68850214  0.25136572  1
  Cl  Cl549  1  0.61122117  0.02091112  0.25354437  1
  Cl  Cl550  1  0.60584396  0.35482632  0.25301869  1
  Cl  Cl551  1  0.60607749  0.68903154  0.24979996  1
