# generated using pymatgen
data_H8PbC4(N3Cl2)2
_symmetry_space_group_name_H-M   'P 1'
_cell_length_a   16.62181346
_cell_length_b   22.50820763
_cell_length_c   21.59150441
_cell_angle_alpha   89.99901710
_cell_angle_beta   90.00320031
_cell_angle_gamma   90.00403810
_symmetry_Int_Tables_number   1
_chemical_formula_structural   H8PbC4(N3Cl2)2
_chemical_formula_sum   'H192 Pb24 C96 N144 Cl96'
_cell_volume   8077.96967217
_cell_formula_units_Z   24
loop_
 _symmetry_equiv_pos_site_id
 _symmetry_equiv_pos_as_xyz
  1  'x, y, z'
loop_
 _atom_site_type_symbol
 _atom_site_label
 _atom_site_symmetry_multiplicity
 _atom_site_fract_x
 _atom_site_fract_y
 _atom_site_fract_z
 _atom_site_occupancy
  H  H0  1  -0.00184350  0.03070188  0.67894038  1
  H  H1  1  0.01287847  0.36528930  0.67567880  1
  H  H2  1  -0.00672882  0.69647012  0.68227749  1
  H  H3  1  0.50041051  0.03293183  0.67987608  1
  H  H4  1  0.49176927  0.36470350  0.68123566  1
  H  H5  1  0.49530312  0.69788813  0.67768601  1
  H  H6  1  0.00937714  0.30140701  0.17730089  1
  H  H7  1  0.00754604  0.63626346  0.18127773  1
  H  H8  1  0.01329839  0.96913119  0.17810846  1
  H  H9  1  0.50554404  0.30444285  0.18038930  1
  H  H10  1  0.50169974  0.63512242  0.18073488  1
  H  H11  1  0.48531090  0.96930379  0.18007024  1
  H  H12  1  0.00612459  0.03118404  0.82051618  1
  H  H13  1  -0.00682382  0.36604351  0.81797802  1
  H  H14  1  -0.01071622  0.69912720  0.81997375  1
  H  H15  1  0.48936913  0.03278541  0.82436449  1
  H  H16  1  0.50795635  0.36136626  0.82167779  1
  H  H17  1  0.51231548  0.69669867  0.82128855  1
  H  H18  1  0.00046601  0.30413472  0.32445183  1
  H  H19  1  0.00189707  0.63624775  0.31896221  1
  H  H20  1  0.00609840  0.97091936  0.31901573  1
  H  H21  1  0.50697773  0.30171095  0.32186563  1
  H  H22  1  0.49755896  0.63798448  0.31869250  1
  H  H23  1  0.49447131  0.96951321  0.32207646  1
  H  H24  1  0.25104583  0.19716822  0.67781523  1
  H  H25  1  0.24695215  0.53175747  0.68133436  1
  H  H26  1  0.25809748  0.86380405  0.67737887  1
  H  H27  1  0.74260138  0.19817950  0.67728851  1
  H  H28  1  0.75089980  0.52912198  0.67881474  1
  H  H29  1  0.75148869  0.86419311  0.68122760  1
  H  H30  1  0.24201952  0.13405442  0.17983734  1
  H  H31  1  0.25080390  0.47009294  0.18055359  1
  H  H32  1  0.25557076  0.80196764  0.17862690  1
  H  H33  1  0.76456476  0.13713051  0.18042662  1
  H  H34  1  0.75955822  0.46952574  0.17920177  1
  H  H35  1  0.74809811  0.80437300  0.18131426  1
  H  H36  1  0.24835509  0.19922592  0.82039661  1
  H  H37  1  0.25160319  0.52913395  0.81933953  1
  H  H38  1  0.24993511  0.86087338  0.81940620  1
  H  H39  1  0.74699581  0.19793810  0.82221770  1
  H  H40  1  0.74698901  0.53193235  0.82151568  1
  H  H41  1  0.75739332  0.86559729  0.82261877  1
  H  H42  1  0.25841050  0.13547927  0.32517566  1
  H  H43  1  0.25782229  0.47071055  0.32118539  1
  H  H44  1  0.24440804  0.80267355  0.31821631  1
  H  H45  1  0.75465971  0.13767202  0.31873228  1
  H  H46  1  0.74277064  0.46639242  0.32388634  1
  H  H47  1  0.75923997  0.80160932  0.32285626  1
  H  H48  1  0.13207611  0.05213183  0.61859739  1
  H  H49  1  0.11534786  0.39337383  0.58808818  1
  H  H50  1  0.12969288  0.71720889  0.62186060  1
  H  H51  1  0.62903179  0.05608721  0.61149430  1
  H  H52  1  0.62953519  0.38079417  0.62604454  1
  H  H53  1  0.62983017  0.72101192  0.61671921  1
  H  H54  1  0.37411720  0.27934568  0.11534313  1
  H  H55  1  0.37267653  0.61402449  0.11366771  1
  H  H56  1  0.38323252  0.94427057  0.09474473  1
  H  H57  1  0.87286346  0.28183784  0.11800073  1
  H  H58  1  0.87471410  0.61448477  0.11751879  1
  H  H59  1  0.87476781  0.94834168  0.12377444  1
  H  H60  1  0.37982053  0.05836643  0.90608832  1
  H  H61  1  0.38239748  0.38683505  0.89014203  1
  H  H62  1  0.37467458  0.71744792  0.87646901  1
  H  H63  1  0.87932446  0.05176305  0.88904615  1
  H  H64  1  0.88802604  0.38959779  0.90198582  1
  H  H65  1  0.88156985  0.72495899  0.90193987  1
  H  H66  1  0.11493988  0.27504803  0.40024448  1
  H  H67  1  0.12600320  0.61171790  0.38866321  1
  H  H68  1  0.13107292  0.94634870  0.38863580  1
  H  H69  1  0.61583428  0.27693916  0.40548935  1
  H  H70  1  0.62640188  0.61244846  0.38489375  1
  H  H71  1  0.63042660  0.94947755  0.38117001  1
  H  H72  1  0.38290607  0.21928745  0.61341431  1
  H  H73  1  0.37349861  0.55351908  0.61332015  1
  H  H74  1  0.36367063  0.89270857  0.59314675  1
  H  H75  1  0.88135917  0.21656970  0.62195593  1
  H  H76  1  0.87296720  0.55221825  0.60662987  1
  H  H77  1  0.86896194  0.89011865  0.60608649  1
  H  H78  1  0.12918409  0.11169397  0.10123242  1
  H  H79  1  0.12049629  0.44770181  0.11774847  1
  H  H80  1  0.12147938  0.78059278  0.11830584  1
  H  H81  1  0.62418530  0.11629622  0.12591188  1
  H  H82  1  0.62017327  0.44942809  0.12434806  1
  H  H83  1  0.62468468  0.77761335  0.10916639  1
  H  H84  1  0.12588144  0.22184416  0.89237721  1
  H  H85  1  0.12806863  0.55310290  0.89188989  1
  H  H86  1  0.12701512  0.88939185  0.89127977  1
  H  H87  1  0.62923470  0.22173822  0.89893555  1
  H  H88  1  0.62884736  0.55637553  0.89756765  1
  H  H89  1  0.62454371  0.88542303  0.88142714  1
  H  H90  1  0.36602494  0.10605205  0.40668076  1
  H  H91  1  0.37029754  0.44312291  0.40203199  1
  H  H92  1  0.37036548  0.77997210  0.38847253  1
  H  H93  1  0.87245331  0.11310403  0.39391897  1
  H  H94  1  0.87728733  0.44933891  0.38255607  1
  H  H95  1  0.86296676  0.77277254  0.40803467  1
  H  H96  1  0.36977003  0.28014788  0.37778887  1
  H  H97  1  0.37765089  0.61281410  0.39270651  1
  H  H98  1  0.38398491  0.94234475  0.40257626  1
  H  H99  1  0.86687423  0.28239436  0.38584600  1
  H  H100  1  0.87698971  0.61171466  0.39026681  1
  H  H101  1  0.88203262  0.94609906  0.39117754  1
  H  H102  1  0.12776896  0.05753068  0.89208565  1
  H  H103  1  0.13430960  0.38193594  0.87147705  1
  H  H104  1  0.12762470  0.71492700  0.87388938  1
  H  H105  1  0.62588027  0.05011493  0.87934257  1
  H  H106  1  0.63067742  0.38771074  0.89474101  1
  H  H107  1  0.62090368  0.72442435  0.90412500  1
  H  H108  1  0.12007395  0.27446605  0.09671129  1
  H  H109  1  0.12318287  0.61096683  0.10431106  1
  H  H110  1  0.12094207  0.94072772  0.09498126  1
  H  H111  1  0.62218485  0.27731844  0.10218745  1
  H  H112  1  0.62172961  0.61069425  0.10557789  1
  H  H113  1  0.62796035  0.95271729  0.13000555  1
  H  H114  1  0.38051335  0.05462188  0.60429141  1
  H  H115  1  0.38270662  0.39032961  0.59984561  1
  H  H116  1  0.38257550  0.72298680  0.59672937  1
  H  H117  1  0.88455889  0.05817590  0.59979057  1
  H  H118  1  0.87184066  0.38400187  0.62229811  1
  H  H119  1  0.88218873  0.72212939  0.60156726  1
  H  H120  1  0.11986054  0.11603219  0.38023767  1
  H  H121  1  0.12325821  0.44850075  0.38172937  1
  H  H122  1  0.12117458  0.77743962  0.38967130  1
  H  H123  1  0.62369982  0.11582704  0.38458843  1
  H  H124  1  0.63035770  0.44116289  0.40175108  1
  H  H125  1  0.61814548  0.78279621  0.37378223  1
  H  H126  1  0.37515760  0.21697452  0.88767864  1
  H  H127  1  0.37698579  0.55445721  0.88775710  1
  H  H128  1  0.37657224  0.88570262  0.88549488  1
  H  H129  1  0.87773020  0.22044218  0.88808807  1
  H  H130  1  0.87723272  0.55353945  0.88873167  1
  H  H131  1  0.87199799  0.89133065  0.90037739  1
  H  H132  1  0.37737698  0.11499825  0.12031210  1
  H  H133  1  0.36906416  0.44564959  0.10661110  1
  H  H134  1  0.36894913  0.77541504  0.09805935  1
  H  H135  1  0.87037018  0.11008591  0.09595459  1
  H  H136  1  0.86477457  0.44072155  0.09430489  1
  H  H137  1  0.87434161  0.78201192  0.11381357  1
  H  H138  1  0.13334234  0.22311688  0.60262915  1
  H  H139  1  0.12420509  0.55214376  0.61118261  1
  H  H140  1  0.11858830  0.88522308  0.62522366  1
  H  H141  1  0.63559943  0.22616813  0.59334121  1
  H  H142  1  0.62319070  0.55434066  0.61172924  1
  H  H143  1  0.62046801  0.88695761  0.61570365  1
  H  H144  1  0.95039590  0.74887137  0.49605173  1
  H  H145  1  0.08623902  0.91808293  0.49804277  1
  H  H146  1  0.45912400  0.92003997  -0.01050587  1
  H  H147  1  0.16933577  0.58128953  0.49969542  1
  H  H148  1  0.78794598  0.41630122  -0.00482287  1
  H  H149  1  0.89828563  0.25118292  0.49385954  1
  H  H150  1  0.33337102  0.91461786  0.99754489  1
  H  H151  1  0.34978912  0.24742923  0.50622131  1
  H  H152  1  0.95922200  0.41482006  1.00788264  1
  H  H153  1  0.45008318  0.41723816  0.49354385  1
  H  H154  1  0.88648228  0.41365648  0.51182719  1
  H  H155  1  0.78620737  0.74816194  0.50727610  1
  H  H156  1  0.83025505  0.75816012  0.00064461  1
  H  H157  1  0.93214683  0.06084851  0.99677915  1
  H  H158  1  0.19186670  0.08453735  -0.00782005  1
  H  H159  1  0.45513672  0.92975595  0.50487749  1
  H  H160  1  0.65000970  0.91811480  0.99554896  1
  H  H161  1  0.83665750  0.24940473  0.99370671  1
  H  H162  1  0.31646376  0.41575537  -0.00171680  1
  H  H163  1  0.06283476  0.58192801  -0.00187375  1
  H  H164  1  0.04565481  0.91691194  -0.00619466  1
  H  H165  1  0.81080694  0.91912637  0.49881166  1
  H  H166  1  0.41309876  0.58449226  0.00374496  1
  H  H167  1  0.83465384  0.58187973  0.99388877  1
  H  H168  1  0.43188682  0.58308135  0.49970502  1
  H  H169  1  0.57826399  0.41522468  0.99748877  1
  H  H170  1  0.15020943  0.41670597  0.00588926  1
  H  H171  1  0.81430311  0.08318868  0.50114371  1
  H  H172  1  0.06701829  0.10682571  0.98460031  1
  H  H173  1  0.60210266  0.91418376  0.48631552  1
  H  H174  1  0.54669544  0.74773128  1.00567734  1
  H  H175  1  0.58400865  0.08531766  0.50695498  1
  H  H176  1  0.59777885  0.74753501  0.50765922  1
  H  H177  1  0.29945985  0.41905930  0.50385226  1
  H  H178  1  0.82335929  0.58030061  0.49717595  1
  H  H179  1  0.95024432  0.74907502  1.00882963  1
  H  H180  1  0.18158384  0.90614274  0.99853370  1
  H  H181  1  0.61194820  0.40966456  0.51243541  1
  H  H182  1  0.33509178  0.24574546  1.00042304  1
  H  H183  1  0.14194692  0.08470692  0.49000641  1
  H  H184  1  0.28815815  0.91675328  0.49328896  1
  H  H185  1  0.17137626  0.74774831  0.49729778  1
  H  H186  1  0.11151247  0.74407125  0.98841379  1
  H  H187  1  0.67823845  0.76192157  0.00181204  1
  H  H188  1  0.66532166  0.57801797  0.50490051  1
  H  H189  1  0.79517186  0.08166705  -0.00658545  1
  H  H190  1  0.18925601  0.25239142  0.49485868  1
  H  H191  1  0.60484523  0.08107355  -0.00591677  1
  Pb  Pb192  1  0.25197903  0.05172720  0.75091003  1
  Pb  Pb193  1  0.25424217  0.37966080  0.74006947  1
  Pb  Pb194  1  0.25261436  0.71091457  0.74395930  1
  Pb  Pb195  1  0.75316046  0.04573866  0.74670827  1
  Pb  Pb196  1  0.75127536  0.37927413  0.76117669  1
  Pb  Pb197  1  0.75065250  0.71756893  0.75529061  1
  Pb  Pb198  1  0.24664121  0.28596715  0.24999074  1
  Pb  Pb199  1  0.24787497  0.62155292  0.25056845  1
  Pb  Pb200  1  0.25257509  0.95147116  0.24516374  1
  Pb  Pb201  1  0.74707556  0.28747206  0.24904245  1
  Pb  Pb202  1  0.75221340  0.61800697  0.25141051  1
  Pb  Pb203  1  0.75051365  0.95557229  0.25582138  1
  Pb  Pb204  1  -0.00108264  0.21557743  0.74665844  1
  Pb  Pb205  1  0.00072573  0.54609051  0.75229515  1
  Pb  Pb206  1  0.00443353  0.88118095  0.75536580  1
  Pb  Pb207  1  0.50540768  0.21240296  0.74856905  1
  Pb  Pb208  1  0.50262092  0.54673713  0.75164729  1
  Pb  Pb209  1  0.49464029  0.88271636  0.74265522  1
  Pb  Pb210  1  -0.00146431  0.12033761  0.23915642  1
  Pb  Pb211  1  -0.00162373  0.45356171  0.24570375  1
  Pb  Pb212  1  -0.00325785  0.78795976  0.25599029  1
  Pb  Pb213  1  0.49822929  0.12140862  0.25950236  1
  Pb  Pb214  1  0.49593733  0.45395797  0.25368974  1
  Pb  Pb215  1  0.50237846  0.78534428  0.24188469  1
  C  C216  1  0.00478657  0.04687772  0.63201182  1
  C  C217  1  -0.00022308  0.38037284  0.62893694  1
  C  C218  1  0.00208112  0.71171269  0.63506399  1
  C  C219  1  0.50380672  0.04786359  0.63219902  1
  C  C220  1  0.50173137  0.37871555  0.63369007  1
  C  C221  1  0.50319470  0.71366409  0.63062278  1
  C  C222  1  0.00044586  0.28636628  0.13027262  1
  C  C223  1  0.00145469  0.62038433  0.13403114  1
  C  C224  1  0.00324391  0.95405554  0.13110303  1
  C  C225  1  0.50065315  0.28805304  0.13328027  1
  C  C226  1  0.49873433  0.61991733  0.13312642  1
  C  C227  1  0.49864873  0.95541510  0.13303136  1
  C  C228  1  0.00436939  0.04692521  0.86814610  1
  C  C229  1  0.00491907  0.37882860  0.86554203  1
  C  C230  1  -0.00003547  0.71340364  0.86737079  1
  C  C231  1  0.49914125  0.04703525  0.87169739  1
  C  C232  1  0.50752663  0.37798500  0.86879385  1
  C  C233  1  0.50295360  0.71173537  0.86833444  1
  C  C234  1  -0.00634447  0.28769736  0.37134710  1
  C  C235  1  0.00127212  0.62025569  0.36610559  1
  C  C236  1  0.00626243  0.95462103  0.36624212  1
  C  C237  1  0.49754533  0.28657165  0.36887507  1
  C  C238  1  0.50077236  0.62124707  0.36573243  1
  C  C239  1  0.50329781  0.95390655  0.36928288  1
  C  C240  1  0.25634215  0.21325988  0.63044827  1
  C  C241  1  0.24780083  0.54585858  0.63340431  1
  C  C242  1  0.24693796  0.87916442  0.63051591  1
  C  C243  1  0.75309961  0.21352075  0.63049981  1
  C  C244  1  0.74857853  0.54504875  0.63127758  1
  C  C245  1  0.74659418  0.87973601  0.63375354  1
  C  C246  1  0.24928813  0.12032015  0.13208796  1
  C  C247  1  0.24652231  0.45433620  0.13308842  1
  C  C248  1  0.24900089  0.78652254  0.13143029  1
  C  C249  1  0.75288080  0.12174086  0.13367218  1
  C  C250  1  0.74831540  0.45443166  0.13226395  1
  C  C251  1  0.74832002  0.78862225  0.13366783  1
  C  C252  1  0.25033063  0.21303262  0.86841731  1
  C  C253  1  0.25187400  0.54535397  0.86643689  1
  C  C254  1  0.25038224  0.87769848  0.86663386  1
  C  C255  1  0.75182181  0.21373344  0.86953253  1
  C  C256  1  0.75144673  0.54731446  0.86899752  1
  C  C257  1  0.75071346  0.88068722  0.86997142  1
  C  C258  1  0.24752638  0.11938597  0.37174762  1
  C  C259  1  0.25071867  0.45486175  0.36828800  1
  C  C260  1  0.24524547  0.78693487  0.36565706  1
  C  C261  1  0.75000493  0.12217633  0.36621272  1
  C  C262  1  0.75030758  0.45228790  0.37148160  1
  C  C263  1  0.74699392  0.78659819  0.36972037  1
  C  C264  1  0.76780493  0.09295943  0.03779481  1
  C  C265  1  0.47629524  0.07502059  0.96807614  1
  C  C266  1  0.56606552  0.93270891  0.04828797  1
  C  C267  1  0.21176225  0.23857054  0.96257433  1
  C  C268  1  0.77907353  0.09441651  0.46034697  1
  C  C269  1  0.19807618  0.75864731  0.04264518  1
  C  C270  1  0.29337449  0.23695488  0.96262399  1
  C  C271  1  0.19700943  0.42764689  0.04183171  1
  C  C272  1  0.77558311  0.90685651  0.53934932  1
  C  C273  1  0.30526271  0.09716882  0.04258115  1
  C  C274  1  0.22463305  0.24143013  0.53584290  1
  C  C275  1  0.72444242  0.42445775  0.46691275  1
  C  C276  1  0.78576262  0.57123775  0.53725756  1
  C  C277  1  0.94111499  0.92444525  0.04524549  1
  C  C278  1  0.98028108  0.73890968  0.96535776  1
  C  C279  1  0.26868713  0.08670574  0.46757314  1
  C  C280  1  0.02304573  0.25509889  0.46588625  1
  C  C281  1  0.56205088  0.40165411  0.54538380  1
  C  C282  1  0.06137892  0.73601824  0.95545721  1
  C  C283  1  0.02212024  0.25751757  0.03469529  1
  C  C284  1  0.98894779  0.40387514  0.96435217  1
  C  C285  1  0.22435851  0.09520618  0.03443231  1
  C  C286  1  0.20982164  0.57140349  0.53847605  1
  C  C287  1  0.80545629  0.42727543  0.46067703  1
  C  C288  1  0.48078140  0.40536125  0.53628251  1
  C  C289  1  0.46926053  0.59359173  0.45949182  1
  C  C290  1  0.44179693  0.74071431  0.95474895  1
  C  C291  1  0.21015010  0.75932440  0.45857306  1
  C  C292  1  0.68156636  0.76011704  0.45460801  1
  C  C293  1  0.29169956  0.57454276  0.95834781  1
  C  C294  1  0.04463326  0.92776056  0.45902120  1
  C  C295  1  0.18289104  0.90745533  0.54525241  1
  C  C296  1  0.48663381  0.92988218  0.03405507  1
  C  C297  1  0.29155444  0.57154512  0.54065955  1
  C  C298  1  0.27893757  0.42693515  0.03784602  1
  C  C299  1  0.05547189  0.07328849  0.54265062  1
  C  C300  1  0.03973258  0.59112403  0.45839855  1
  C  C301  1  0.29485953  0.90591848  0.95791373  1
  C  C302  1  0.55697595  0.07226659  0.96056174  1
  C  C303  1  0.06885118  0.40058058  0.95202268  1
  C  C304  1  0.45615019  0.59426900  0.04140435  1
  C  C305  1  0.98101583  0.73863105  0.53944964  1
  C  C306  1  0.02817194  0.59315720  0.03929071  1
  C  C307  1  0.81032327  0.23987474  0.54365788  1
  C  C308  1  0.69806424  0.90773111  0.96049098  1
  C  C309  1  0.77941866  0.90905723  0.96536386  1
  C  C310  1  0.44190701  0.26011938  0.45648394  1
  C  C311  1  0.79230569  0.76334579  0.04125086  1
  N  N312  1  0.55856901  0.93169069  0.45700871  1
  N  N313  1  0.52934957  0.25735197  0.03894188  1
  N  N314  1  0.26099310  0.90942562  0.53546005  1
  N  N315  1  0.76255437  0.42448430  0.03823493  1
  N  N316  1  0.05977582  0.73800222  0.54639870  1
  N  N317  1  0.75941476  0.75704522  0.46519931  1
  N  N318  1  0.54470208  0.07295746  0.54150414  1
  N  N319  1  0.94501068  0.26007842  0.04036101  1
  N  N320  1  0.69969689  0.09524517  0.45752696  1
  N  N321  1  0.70605564  0.57308391  0.54046287  1
  N  N322  1  0.46659606  0.07240095  0.53735578  1
  N  N323  1  0.51842258  0.25881653  0.46677288  1
  N  N324  1  0.01559780  0.40864319  0.53179845  1
  N  N325  1  0.71260409  0.76073500  0.04109170  1
  N  N326  1  0.21407242  0.57416864  0.96083556  1
  N  N327  1  0.19443742  0.42834139  0.45648167  1
  N  N328  1  0.53545638  0.59323490  0.03794542  1
  N  N329  1  0.71769832  0.24081324  0.96421167  1
  N  N330  1  0.19079018  0.09146643  0.45798597  1
  N  N331  1  0.79421908  0.57307839  0.95892515  1
  N  N332  1  0.69634164  0.90433154  0.54173260  1
  N  N333  1  0.97827099  0.07591452  0.53526721  1
  N  N334  1  0.93905252  0.40523111  0.54401245  1
  N  N335  1  0.94451833  0.25874519  0.45989883  1
  N  N336  1  0.51993629  0.74155089  0.96316686  1
  N  N337  1  0.79570285  0.23999209  0.95908985  1
  N  N338  1  0.46299430  0.40640781  0.96053386  1
  N  N339  1  0.94884472  0.59453629  0.04318766  1
  N  N340  1  0.54144283  0.40667812  0.96015197  1
  N  N341  1  0.21508632  0.90731244  0.95876613  1
  N  N342  1  0.48022134  0.92104171  0.46216354  1
  N  N343  1  0.04184060  0.07181010  0.96110187  1
  N  N344  1  0.30418967  0.24004848  0.54061949  1
  N  N345  1  0.96529617  0.92703533  0.46012062  1
  N  N346  1  0.45329452  0.25811943  0.04320742  1
  N  N347  1  0.71613638  0.57405552  0.96358070  1
  N  N348  1  0.73393786  0.24409716  0.53332369  1
  N  N349  1  0.27204533  0.42627724  0.46175203  1
  N  N350  1  0.96196052  0.59118790  0.46013769  1
  N  N351  1  0.47567776  0.74123203  0.53494836  1
  N  N352  1  0.28936377  0.76032511  0.45881514  1
  N  N353  1  0.01927753  0.92334816  0.03647849  1
  N  N354  1  0.54867977  0.59262029  0.45734566  1
  N  N355  1  0.68529340  0.42799448  0.04673319  1
  N  N356  1  0.68991920  0.09453954  0.04809833  1
  N  N357  1  0.55324272  0.74053446  0.54285856  1
  N  N358  1  0.96045453  0.07645988  0.95779002  1
  N  N359  1  0.27498834  0.75739190  0.03457281  1
  N  N360  1  0.07408539  0.05640953  0.60168090  1
  N  N361  1  0.05319683  0.39313531  0.58474906  1
  N  N362  1  0.07105864  0.72122410  0.60614602  1
  N  N363  1  0.56892933  0.05875813  0.59895367  1
  N  N364  1  0.57315043  0.38538996  0.60596990  1
  N  N365  1  0.57129120  0.72334379  0.60074457  1
  N  N366  1  0.43396670  0.27757508  0.10151600  1
  N  N367  1  0.43222979  0.61034566  0.09957256  1
  N  N368  1  0.44509200  0.94421578  0.08856494  1
  N  N369  1  0.93143604  0.27806905  0.10143613  1
  N  N370  1  0.93422861  0.61121525  0.10273329  1
  N  N371  1  0.93119214  0.94278822  0.10403140  1
  N  N372  1  0.44130049  0.05963560  0.91456240  1
  N  N373  1  0.44279498  0.38928021  0.90309677  1
  N  N374  1  0.43120166  0.72294575  0.89591700  1
  N  N375  1  0.93958340  0.05087420  0.90350930  1
  N  N376  1  0.94995501  0.38995373  0.90895286  1
  N  N377  1  0.94314546  0.72499678  0.90995226  1
  N  N378  1  0.05385163  0.27311869  0.41107481  1
  N  N379  1  0.06605438  0.60865176  0.40177355  1
  N  N380  1  0.07111013  0.94409880  0.40145831  1
  N  N381  1  0.55338085  0.27593203  0.41090193  1
  N  N382  1  0.56638083  0.60982329  0.39823674  1
  N  N383  1  0.57252550  0.94229527  0.39696967  1
  N  N384  1  0.32313620  0.22224425  0.59877816  1
  N  N385  1  0.31407715  0.55624961  0.59808581  1
  N  N386  1  0.30139575  0.88934917  0.58726492  1
  N  N387  1  0.82473958  0.22182603  0.60300622  1
  N  N388  1  0.81235876  0.55520591  0.59405790  1
  N  N389  1  0.80771506  0.89164965  0.59520010  1
  N  N390  1  0.19021792  0.10977676  0.09158238  1
  N  N391  1  0.17868383  0.44454331  0.10131399  1
  N  N392  1  0.17943467  0.77608275  0.10127062  1
  N  N393  1  0.68203254  0.11253877  0.10761857  1
  N  N394  1  0.67722925  0.44512396  0.10587784  1
  N  N395  1  0.68555146  0.78014225  0.09720440  1
  N  N396  1  0.18610268  0.22434427  0.90567876  1
  N  N397  1  0.18914619  0.55566857  0.90232219  1
  N  N398  1  0.18780786  0.88607570  0.90336016  1
  N  N399  1  0.69082003  0.22450927  0.90807068  1
  N  N400  1  0.69005340  0.55848163  0.90702735  1
  N  N401  1  0.68176090  0.89007797  0.89985068  1
  N  N402  1  0.30423053  0.10418983  0.41430721  1
  N  N403  1  0.30819586  0.44419444  0.40929379  1
  N  N404  1  0.30950903  0.77717075  0.40057726  1
  N  N405  1  0.81130157  0.11051071  0.40470600  1
  N  N406  1  0.82012602  0.44420780  0.40147859  1
  N  N407  1  0.80056905  0.77554708  0.41333029  1
  N  N408  1  0.42651341  0.27646097  0.39673662  1
  N  N409  1  0.43859566  0.61066787  0.40368388  1
  N  N410  1  0.44598409  0.94505913  0.41084361  1
  N  N411  1  0.92584215  0.27928510  0.40175424  1
  N  N412  1  0.93797702  0.60946369  0.40125594  1
  N  N413  1  0.94326183  0.94384007  0.40202384  1
  N  N414  1  0.06671389  0.06363177  0.90195991  1
  N  N415  1  0.07830125  0.38562117  0.89239292  1
  N  N416  1  0.07164795  0.72047525  0.89441514  1
  N  N417  1  0.56987922  0.05470504  0.89961599  1
  N  N418  1  0.56995924  0.38853586  0.90507667  1
  N  N419  1  0.55888066  0.72164888  0.91067841  1
  N  N420  1  0.05845912  0.27333595  0.08849649  1
  N  N421  1  0.06169757  0.60861298  0.09462217  1
  N  N422  1  0.05877697  0.94391292  0.08847348  1
  N  N423  1  0.56027875  0.27569971  0.09461676  1
  N  N424  1  0.56029817  0.60904847  0.09570563  1
  N  N425  1  0.57273941  0.94775466  0.10814746  1
  N  N426  1  0.44172107  0.05694274  0.59423113  1
  N  N427  1  0.44444147  0.39106381  0.59179369  1
  N  N428  1  0.44480529  0.72510237  0.58991114  1
  N  N429  1  0.94662270  0.05902858  0.59239859  1
  N  N430  1  0.92873254  0.38798848  0.60289688  1
  N  N431  1  0.94419151  0.72300856  0.59349886  1
  N  N432  1  0.17727612  0.11161502  0.39885027  1
  N  N433  1  0.18186645  0.44447005  0.39766852  1
  N  N434  1  0.18136335  0.77562339  0.40166386  1
  N  N435  1  0.68346344  0.11255224  0.39834338  1
  N  N436  1  0.69127653  0.43981233  0.41220276  1
  N  N437  1  0.67362367  0.77736710  0.39510227  1
  N  N438  1  0.31615168  0.22097106  0.90279229  1
  N  N439  1  0.31716987  0.55734923  0.90128401  1
  N  N440  1  0.31694233  0.88970607  0.90030868  1
  N  N441  1  0.81791888  0.22410377  0.90169148  1
  N  N442  1  0.81719115  0.55680285  0.90178766  1
  N  N443  1  0.81107508  0.89277559  0.91071208  1
  N  N444  1  0.31969785  0.11177053  0.10160943  1
  N  N445  1  0.30832993  0.44343117  0.09500790  1
  N  N446  1  0.30699306  0.77541446  0.09134648  1
  N  N447  1  0.80808370  0.10941525  0.09015472  1
  N  N448  1  0.80243308  0.44269511  0.08908067  1
  N  N449  1  0.81471329  0.77844217  0.09914827  1
  N  N450  1  0.19465455  0.22527622  0.59170293  1
  N  N451  1  0.18392266  0.55537649  0.59740377  1
  N  N452  1  0.17424067  0.88999789  0.60446900  1
  N  N453  1  0.69808347  0.22703916  0.58872091  1
  N  N454  1  0.68340173  0.55537586  0.59792480  1
  N  N455  1  0.67989820  0.88800673  0.60144547  1
  Cl  Cl456  1  0.25732279  0.05236513  0.61544109  1
  Cl  Cl457  1  0.25392650  0.39119448  0.60290679  1
  Cl  Cl458  1  0.25938690  0.72018132  0.61094083  1
  Cl  Cl459  1  0.75711658  0.05611229  0.61223535  1
  Cl  Cl460  1  0.75326923  0.38427319  0.63099981  1
  Cl  Cl461  1  0.75798180  0.72421458  0.60763030  1
  Cl  Cl462  1  0.24611142  0.27535937  0.11759658  1
  Cl  Cl463  1  0.24668080  0.61419956  0.11964150  1
  Cl  Cl464  1  0.24604643  0.93758891  0.10312399  1
  Cl  Cl465  1  0.74709051  0.28049627  0.11407276  1
  Cl  Cl466  1  0.74911658  0.61418765  0.11834350  1
  Cl  Cl467  1  0.75246930  0.95019000  0.12573055  1
  Cl  Cl468  1  0.25102450  0.05363669  0.88630071  1
  Cl  Cl469  1  0.26179818  0.38615988  0.87252518  1
  Cl  Cl470  1  0.25177661  0.71519161  0.87126562  1
  Cl  Cl471  1  0.75975865  0.05747466  0.88219354  1
  Cl  Cl472  1  0.75977260  0.39229542  0.89922401  1
  Cl  Cl473  1  0.74730560  0.72847372  0.89645467  1
  Cl  Cl474  1  0.24013359  0.27640410  0.38668631  1
  Cl  Cl475  1  0.25165628  0.61112148  0.38440980  1
  Cl  Cl476  1  0.26196568  0.94183730  0.39208710  1
  Cl  Cl477  1  0.74235564  0.28058711  0.38015649  1
  Cl  Cl478  1  0.75164365  0.61259095  0.38844671  1
  Cl  Cl479  1  0.75740146  0.94524538  0.39063498  1
  Cl  Cl480  1  0.00936366  0.22294118  0.61227186  1
  Cl  Cl481  1  -0.00355588  0.55043651  0.62197163  1
  Cl  Cl482  1  -0.00820055  0.88681528  0.62445515  1
  Cl  Cl483  1  0.50758437  0.21960869  0.61602121  1
  Cl  Cl484  1  0.49937673  0.55580049  0.61753039  1
  Cl  Cl485  1  0.48786852  0.89665090  0.60432004  1
  Cl  Cl486  1  -0.00331815  0.10769100  0.10026832  1
  Cl  Cl487  1  -0.01326383  0.44257005  0.11061486  1
  Cl  Cl488  1  -0.00367755  0.78433295  0.12210374  1
  Cl  Cl489  1  0.49973627  0.11235308  0.12851386  1
  Cl  Cl490  1  0.49447612  0.44641521  0.12081530  1
  Cl  Cl491  1  0.50112594  0.77332061  0.10344310  1
  Cl  Cl492  1  0.00099873  0.21637236  0.88036566  1
  Cl  Cl493  1  0.00167409  0.55391723  0.88792613  1
  Cl  Cl494  1  0.00408371  0.89637654  0.89523127  1
  Cl  Cl495  1  0.50602073  0.21767494  0.88004050  1
  Cl  Cl496  1  0.50214818  0.55447499  0.88431540  1
  Cl  Cl497  1  0.49679384  0.88152518  0.87542654  1
  Cl  Cl498  1  -0.00431199  0.11831437  0.37124810  1
  Cl  Cl499  1  0.00115171  0.44937169  0.37528359  1
  Cl  Cl500  1  -0.01390185  0.77383175  0.39079028  1
  Cl  Cl501  1  0.49453019  0.11037909  0.39215286  1
  Cl  Cl502  1  0.49364700  0.44257769  0.38913754  1
  Cl  Cl503  1  0.49330526  0.78441382  0.37365604  1
  Cl  Cl504  1  0.35930537  0.14673741  0.74512381  1
  Cl  Cl505  1  0.36287867  0.48171027  0.74399734  1
  Cl  Cl506  1  0.35753293  0.81581913  0.74827444  1
  Cl  Cl507  1  0.86588329  0.14643756  0.74777877  1
  Cl  Cl508  1  0.86127755  0.48089237  0.75438368  1
  Cl  Cl509  1  0.85719082  0.81286693  0.75614366  1
  Cl  Cl510  1  0.13623759  0.18500456  0.25312293  1
  Cl  Cl511  1  0.13674010  0.51993431  0.25156989  1
  Cl  Cl512  1  0.13651496  0.85449238  0.24974182  1
  Cl  Cl513  1  0.63764839  0.18510552  0.24934267  1
  Cl  Cl514  1  0.63443648  0.52099251  0.24838676  1
  Cl  Cl515  1  0.63594360  0.85570479  0.25349248  1
  Cl  Cl516  1  0.14239450  0.14306905  0.74872953  1
  Cl  Cl517  1  0.13810268  0.47728424  0.75374257  1
  Cl  Cl518  1  0.13731980  0.81045736  0.74613448  1
  Cl  Cl519  1  0.64534833  0.14837978  0.75038064  1
  Cl  Cl520  1  0.64200693  0.48027223  0.75216460  1
  Cl  Cl521  1  0.64063285  0.81053987  0.74275411  1
  Cl  Cl522  1  0.35700262  0.18458504  0.25298082  1
  Cl  Cl523  1  0.35740710  0.52004123  0.24910229  1
  Cl  Cl524  1  0.35525939  0.85541919  0.24817692  1
  Cl  Cl525  1  0.85969890  0.18675719  0.24481043  1
  Cl  Cl526  1  0.85714649  0.52098207  0.25227110  1
  Cl  Cl527  1  0.85621248  0.85185036  0.25159816  1
  Cl  Cl528  1  0.11682971  0.31235586  0.75090919  1
  Cl  Cl529  1  0.11312289  0.64639123  0.74973263  1
  Cl  Cl530  1  0.10964998  0.97676032  0.75104117  1
  Cl  Cl531  1  0.61359892  0.31456316  0.75053571  1
  Cl  Cl532  1  0.61581881  0.64657662  0.74431424  1
  Cl  Cl533  1  0.61593203  0.97779323  0.75059477  1
  Cl  Cl534  1  0.38887559  0.01841416  0.25189435  1
  Cl  Cl535  1  0.38384424  0.35307588  0.25254712  1
  Cl  Cl536  1  0.38673393  0.68754452  0.24886731  1
  Cl  Cl537  1  0.89053553  0.01780308  0.24782589  1
  Cl  Cl538  1  0.88781736  0.35200892  0.24954141  1
  Cl  Cl539  1  0.88711193  0.68607376  0.24528994  1
  Cl  Cl540  1  0.39236240  0.31294809  0.74844764  1
  Cl  Cl541  1  0.39341136  0.64886341  0.75000054  1
  Cl  Cl542  1  0.39769888  0.98158930  0.75113355  1
  Cl  Cl543  1  0.89451278  0.31351352  0.74850524  1
  Cl  Cl544  1  0.88940823  0.64770598  0.75264992  1
  Cl  Cl545  1  0.88980617  0.97929665  0.75496420  1
  Cl  Cl546  1  0.11122101  0.02039526  0.24932542  1
  Cl  Cl547  1  0.10954957  0.35355514  0.25016599  1
  Cl  Cl548  1  0.10865369  0.68776373  0.25092457  1
  Cl  Cl549  1  0.61205551  0.02123441  0.25368677  1
  Cl  Cl550  1  0.60825506  0.35386286  0.24954922  1
  Cl  Cl551  1  0.60737849  0.69085394  0.25045153  1
